
  -OEChem-05262214473D

 47 46  0     1  0  0  0  0  0999 V2000
    0.5093   -4.7265    3.0306 C   0  0  0  0  0  0  0  0  0  0  0  0
    1.2735   -4.4402    3.9448 O   0  0  0  0  0  0  0  0  0  0  0  0
   -0.4465   -5.8608    3.1982 C   0  0  0  0  0  0  0  0  0  0  0  0
   -0.0219   -6.8213    2.8645 H   0  0  0  0  0  0  0  0  0  0  0  0
   -0.7314   -6.0185    4.2509 H   0  0  0  0  0  0  0  0  0  0  0  0
   -1.3983   -5.7596    2.6527 H   0  0  0  0  0  0  0  0  0  0  0  0
    0.4252   -4.0886    1.8040 N   0  0  0  0  0  0  0  0  0  0  0  0
    1.2532   -2.9707    1.4349 C   0  0  2  0  0  0  0  0  0  0  0  0
    0.3395   -1.8293    1.0083 C   0  0  0  0  0  0  0  0  0  0  0  0
   -0.8136   -2.0027    0.6194 O   0  0  0  0  0  0  0  0  0  0  0  0
    2.2176   -3.3411    0.3189 C   0  0  0  0  0  0  0  0  0  0  0  0
   -0.2574   -4.4279    1.1287 H   0  0  0  0  0  0  0  0  0  0  0  0
    1.8087   -2.6785    2.3327 H   0  0  0  0  0  0  0  0  0  0  0  0
    1.6793   -3.6366   -0.5890 H   0  0  0  0  0  0  0  0  0  0  0  0
    2.8662   -2.4980    0.0589 H   0  0  0  0  0  0  0  0  0  0  0  0
    2.8538   -4.1816    0.6166 H   0  0  0  0  0  0  0  0  0  0  0  0
    0.9758   -0.5952    1.0708 N   0  0  0  0  0  0  0  0  0  0  0  0
    0.3258    0.6374    0.7059 C   0  0  2  0  0  0  0  0  0  0  0  0
    1.3340    1.7641    0.9051 C   0  0  0  0  0  0  0  0  0  0  0  0
    2.4671    1.5790    1.3445 O   0  0  0  0  0  0  0  0  0  0  0  0
   -0.9326    0.8928    1.5441 C   0  0  0  0  0  0  0  0  0  0  0  0
   -2.0568   -0.1068    1.2751 C   0  0  0  0  0  0  0  0  0  0  0  0
   -3.3363    0.0769    2.0978 C   0  0  0  0  0  0  0  0  0  0  0  0
   -3.2509    0.9560    3.0031 O   0  5  0  0  0  0  0  0  0  0  0  0
   -4.3183   -0.6466    1.7748 O   0  0  0  0  0  0  0  0  0  0  0  0
    1.9288   -0.5463    1.4242 H   0  0  0  0  0  0  0  0  0  0  0  0
    0.0871    0.5629   -0.3606 H   0  0  0  0  0  0  0  0  0  0  0  0
   -1.3002    1.9114    1.3686 H   0  0  0  0  0  0  0  0  0  0  0  0
   -0.6741    0.8450    2.6104 H   0  0  0  0  0  0  0  0  0  0  0  0
   -2.3124   -0.1045    0.2088 H   0  0  0  0  0  0  0  0  0  0  0  0
   -1.6862   -1.1140    1.5045 H   0  0  0  0  0  0  0  0  0  0  0  0
    0.8021    3.0038    0.5786 N   0  0  0  0  0  0  0  0  0  0  0  0
    1.5517    4.2332    0.6950 C   0  0  2  0  0  0  0  0  0  0  0  0
    0.5608    5.3896    0.6994 C   0  0  0  0  0  0  0  0  0  0  0  0
   -0.5719    5.3042    0.2295 O   0  0  0  0  0  0  0  0  0  0  0  0
    2.5534    4.3800   -0.4398 C   0  0  0  0  0  0  0  0  0  0  0  0
   -0.1419    3.0596    0.2078 H   0  0  0  0  0  0  0  0  0  0  0  0
    2.0739    4.1953    1.6572 H   0  0  0  0  0  0  0  0  0  0  0  0
    2.0488    4.4197   -1.4120 H   0  0  0  0  0  0  0  0  0  0  0  0
    3.1406    5.2982   -0.3344 H   0  0  0  0  0  0  0  0  0  0  0  0
    3.2468    3.5323   -0.4597 H   0  0  0  0  0  0  0  0  0  0  0  0
    1.1050    6.5412    1.2507 N   0  0  0  0  0  0  0  0  0  0  0  0
    0.3674    7.7784    1.3572 C   0  0  0  0  0  0  0  0  0  0  0  0
    2.0457    6.5158    1.6329 H   0  0  0  0  0  0  0  0  0  0  0  0
    0.5600    8.3982    0.4691 H   0  0  0  0  0  0  0  0  0  0  0  0
   -0.7084    7.5591    1.4249 H   0  0  0  0  0  0  0  0  0  0  0  0
    0.6887    8.3201    2.2590 H   0  0  0  0  0  0  0  0  0  0  0  0
  1  3  1  0  0  0  0
  1  7  1  0  0  0  0
  1  2  2  0  0  0  0
 33 34  1  0  0  0  0
 34 42  1  0  0  0  0
 34 35  2  0  0  0  0
  8  9  1  0  0  0  0
  9 17  1  0  0  0  0
  9 10  2  0  0  0  0
 18 19  1  0  0  0  0
 19 32  1  0  0  0  0
 19 20  2  0  0  0  0
 22 23  1  0  0  0  0
 23 24  1  0  0  0  0
 23 25  2  0  0  0  0
 33 36  1  0  0  0  0
  8 11  1  0  0  0  0
 42 43  1  0  0  0  0
 21 22  1  0  0  0  0
 18 21  1  0  0  0  0
 32 33  1  0  0  0  0
  7  8  1  0  0  0  0
 17 18  1  0  0  0  0
  3  4  1  0  0  0  0
  3  5  1  0  0  0  0
  3  6  1  0  0  0  0
 36 39  1  0  0  0  0
 36 40  1  0  0  0  0
 36 41  1  0  0  0  0
 11 14  1  0  0  0  0
 11 15  1  0  0  0  0
 11 16  1  0  0  0  0
 43 45  1  0  0  0  0
 43 46  1  0  0  0  0
 43 47  1  0  0  0  0
 22 30  1  0  0  0  0
 22 31  1  0  0  0  0
 21 28  1  0  0  0  0
 21 29  1  0  0  0  0
 33 38  1  0  0  0  0
  8 13  1  0  0  0  0
 18 27  1  0  0  0  0
 42 44  1  0  0  0  0
  7 12  1  0  0  0  0
 32 37  1  0  0  0  0
 17 26  1  0  0  0  0
M  CHG  1  24  -1
M  END
$$$$

  -OEChem-05262214473D

 47 46  0     1  0  0  0  0  0999 V2000
    0.5093   -4.7265    3.0306 C   0  0  0  0  0  0  0  0  0  0  0  0
    1.2735   -4.4402    3.9448 O   0  0  0  0  0  0  0  0  0  0  0  0
   -0.4465   -5.8608    3.1982 C   0  0  0  0  0  0  0  0  0  0  0  0
   -0.0219   -6.8213    2.8645 H   0  0  0  0  0  0  0  0  0  0  0  0
   -0.7314   -6.0185    4.2509 H   0  0  0  0  0  0  0  0  0  0  0  0
   -1.3983   -5.7596    2.6527 H   0  0  0  0  0  0  0  0  0  0  0  0
    0.4252   -4.0886    1.8040 N   0  0  0  0  0  0  0  0  0  0  0  0
    1.2532   -2.9707    1.4349 C   0  0  2  0  0  0  0  0  0  0  0  0
    0.3395   -1.8293    1.0083 C   0  0  0  0  0  0  0  0  0  0  0  0
   -0.8136   -2.0027    0.6194 O   0  0  0  0  0  0  0  0  0  0  0  0
    2.2176   -3.3411    0.3189 C   0  0  0  0  0  0  0  0  0  0  0  0
   -0.2574   -4.4279    1.1287 H   0  0  0  0  0  0  0  0  0  0  0  0
    1.8087   -2.6785    2.3327 H   0  0  0  0  0  0  0  0  0  0  0  0
    1.6793   -3.6366   -0.5890 H   0  0  0  0  0  0  0  0  0  0  0  0
    2.8662   -2.4980    0.0589 H   0  0  0  0  0  0  0  0  0  0  0  0
    2.8538   -4.1816    0.6166 H   0  0  0  0  0  0  0  0  0  0  0  0
    0.9758   -0.5952    1.0708 N   0  0  0  0  0  0  0  0  0  0  0  0
    0.3258    0.6374    0.7059 C   0  0  2  0  0  0  0  0  0  0  0  0
    1.3340    1.7641    0.9051 C   0  0  0  0  0  0  0  0  0  0  0  0
    2.5339    1.5653    1.0841 O   0  0  0  0  0  0  0  0  0  0  0  0
   -0.9326    0.8928    1.5441 C   0  0  0  0  0  0  0  0  0  0  0  0
   -2.0568   -0.1068    1.2751 C   0  0  0  0  0  0  0  0  0  0  0  0
   -3.3363    0.0769    2.0978 C   0  0  0  0  0  0  0  0  0  0  0  0
   -3.2509    0.9560    3.0031 O   0  5  0  0  0  0  0  0  0  0  0  0
   -4.3183   -0.6466    1.7748 O   0  0  0  0  0  0  0  0  0  0  0  0
    1.9288   -0.5463    1.4242 H   0  0  0  0  0  0  0  0  0  0  0  0
    0.0871    0.5629   -0.3606 H   0  0  0  0  0  0  0  0  0  0  0  0
   -1.3002    1.9114    1.3686 H   0  0  0  0  0  0  0  0  0  0  0  0
   -0.6741    0.8450    2.6104 H   0  0  0  0  0  0  0  0  0  0  0  0
   -2.3124   -0.1045    0.2088 H   0  0  0  0  0  0  0  0  0  0  0  0
   -1.6862   -1.1140    1.5045 H   0  0  0  0  0  0  0  0  0  0  0  0
    0.7276    3.0126    0.9059 N   0  0  0  0  0  0  0  0  0  0  0  0
    1.4644    4.2412    1.0916 C   0  0  2  0  0  0  0  0  0  0  0  0
    0.4734    5.3291    1.4841 C   0  0  0  0  0  0  0  0  0  0  0  0
   -0.7273    5.2666    1.2283 O   0  0  0  0  0  0  0  0  0  0  0  0
    2.2240    4.6267   -0.1681 C   0  0  0  0  0  0  0  0  0  0  0  0
   -0.2712    3.0821    0.7350 H   0  0  0  0  0  0  0  0  0  0  0  0
    2.1640    4.0688    1.9167 H   0  0  0  0  0  0  0  0  0  0  0  0
    1.5396    4.8035   -1.0058 H   0  0  0  0  0  0  0  0  0  0  0  0
    2.8046    5.5427   -0.0167 H   0  0  0  0  0  0  0  0  0  0  0  0
    2.9148    3.8304   -0.4657 H   0  0  0  0  0  0  0  0  0  0  0  0
    1.0945    6.3977    2.1154 N   0  0  0  0  0  0  0  0  0  0  0  0
    0.3705    7.5607    2.5729 C   0  0  0  0  0  0  0  0  0  0  0  0
    2.0918    6.3560    2.3032 H   0  0  0  0  0  0  0  0  0  0  0  0
    0.3763    8.3297    1.7864 H   0  0  0  0  0  0  0  0  0  0  0  0
   -0.6677    7.2792    2.8027 H   0  0  0  0  0  0  0  0  0  0  0  0
    0.8514    7.9589    3.4785 H   0  0  0  0  0  0  0  0  0  0  0  0
  1  3  1  0  0  0  0
  1  7  1  0  0  0  0
  1  2  2  0  0  0  0
 33 34  1  0  0  0  0
 34 42  1  0  0  0  0
 34 35  2  0  0  0  0
  8  9  1  0  0  0  0
  9 17  1  0  0  0  0
  9 10  2  0  0  0  0
 18 19  1  0  0  0  0
 19 32  1  0  0  0  0
 19 20  2  0  0  0  0
 22 23  1  0  0  0  0
 23 24  1  0  0  0  0
 23 25  2  0  0  0  0
 33 36  1  0  0  0  0
  8 11  1  0  0  0  0
 42 43  1  0  0  0  0
 21 22  1  0  0  0  0
 18 21  1  0  0  0  0
 32 33  1  0  0  0  0
  7  8  1  0  0  0  0
 17 18  1  0  0  0  0
  3  4  1  0  0  0  0
  3  5  1  0  0  0  0
  3  6  1  0  0  0  0
 36 39  1  0  0  0  0
 36 40  1  0  0  0  0
 36 41  1  0  0  0  0
 11 14  1  0  0  0  0
 11 15  1  0  0  0  0
 11 16  1  0  0  0  0
 43 45  1  0  0  0  0
 43 46  1  0  0  0  0
 43 47  1  0  0  0  0
 22 30  1  0  0  0  0
 22 31  1  0  0  0  0
 21 28  1  0  0  0  0
 21 29  1  0  0  0  0
 33 38  1  0  0  0  0
  8 13  1  0  0  0  0
 18 27  1  0  0  0  0
 42 44  1  0  0  0  0
  7 12  1  0  0  0  0
 32 37  1  0  0  0  0
 17 26  1  0  0  0  0
M  CHG  1  24  -1
M  END
$$$$

  -OEChem-05262214473D

 47 46  0     1  0  0  0  0  0999 V2000
    0.5093   -4.7265    3.0306 C   0  0  0  0  0  0  0  0  0  0  0  0
    1.2735   -4.4402    3.9448 O   0  0  0  0  0  0  0  0  0  0  0  0
   -0.4465   -5.8608    3.1982 C   0  0  0  0  0  0  0  0  0  0  0  0
   -0.0219   -6.8213    2.8645 H   0  0  0  0  0  0  0  0  0  0  0  0
   -0.7314   -6.0185    4.2509 H   0  0  0  0  0  0  0  0  0  0  0  0
   -1.3983   -5.7596    2.6527 H   0  0  0  0  0  0  0  0  0  0  0  0
    0.4252   -4.0886    1.8040 N   0  0  0  0  0  0  0  0  0  0  0  0
    1.2532   -2.9707    1.4349 C   0  0  2  0  0  0  0  0  0  0  0  0
    0.3395   -1.8293    1.0083 C   0  0  0  0  0  0  0  0  0  0  0  0
   -0.8136   -2.0027    0.6194 O   0  0  0  0  0  0  0  0  0  0  0  0
    2.2176   -3.3411    0.3189 C   0  0  0  0  0  0  0  0  0  0  0  0
   -0.2574   -4.4279    1.1287 H   0  0  0  0  0  0  0  0  0  0  0  0
    1.8087   -2.6785    2.3327 H   0  0  0  0  0  0  0  0  0  0  0  0
    1.6793   -3.6366   -0.5890 H   0  0  0  0  0  0  0  0  0  0  0  0
    2.8662   -2.4980    0.0589 H   0  0  0  0  0  0  0  0  0  0  0  0
    2.8538   -4.1816    0.6166 H   0  0  0  0  0  0  0  0  0  0  0  0
    0.9758   -0.5952    1.0708 N   0  0  0  0  0  0  0  0  0  0  0  0
    0.3258    0.6374    0.7059 C   0  0  2  0  0  0  0  0  0  0  0  0
    1.3340    1.7641    0.9051 C   0  0  0  0  0  0  0  0  0  0  0  0
    2.5490    1.5989    0.8175 O   0  0  0  0  0  0  0  0  0  0  0  0
   -0.9326    0.8928    1.5441 C   0  0  0  0  0  0  0  0  0  0  0  0
   -2.0568   -0.1068    1.2751 C   0  0  0  0  0  0  0  0  0  0  0  0
   -3.3363    0.0769    2.0978 C   0  0  0  0  0  0  0  0  0  0  0  0
   -3.2509    0.9560    3.0031 O   0  5  0  0  0  0  0  0  0  0  0  0
   -4.3183   -0.6466    1.7748 O   0  0  0  0  0  0  0  0  0  0  0  0
    1.9288   -0.5463    1.4242 H   0  0  0  0  0  0  0  0  0  0  0  0
    0.0871    0.5629   -0.3606 H   0  0  0  0  0  0  0  0  0  0  0  0
   -1.3002    1.9114    1.3686 H   0  0  0  0  0  0  0  0  0  0  0  0
   -0.6741    0.8450    2.6104 H   0  0  0  0  0  0  0  0  0  0  0  0
   -2.3124   -0.1045    0.2088 H   0  0  0  0  0  0  0  0  0  0  0  0
   -1.6862   -1.1140    1.5045 H   0  0  0  0  0  0  0  0  0  0  0  0
    0.7180    2.9626    1.2378 N   0  0  0  0  0  0  0  0  0  0  0  0
    1.4556    4.1781    1.4928 C   0  0  2  0  0  0  0  0  0  0  0  0
    0.5411    5.1333    2.2485 C   0  0  0  0  0  0  0  0  0  0  0  0
   -0.6851    5.0542    2.2165 O   0  0  0  0  0  0  0  0  0  0  0  0
    1.9494    4.8074    0.1995 C   0  0  0  0  0  0  0  0  0  0  0  0
   -0.2961    3.0093    1.2727 H   0  0  0  0  0  0  0  0  0  0  0  0
    2.3050    3.9052    2.1285 H   0  0  0  0  0  0  0  0  0  0  0  0
    1.1124    5.0875   -0.4505 H   0  0  0  0  0  0  0  0  0  0  0  0
    2.5325    5.7131    0.3963 H   0  0  0  0  0  0  0  0  0  0  0  0
    2.5828    4.1083   -0.3571 H   0  0  0  0  0  0  0  0  0  0  0  0
    1.2545    6.1108    2.9280 N   0  0  0  0  0  0  0  0  0  0  0  0
    0.6133    7.1425    3.7094 C   0  0  0  0  0  0  0  0  0  0  0  0
    2.2699    6.0886    2.9145 H   0  0  0  0  0  0  0  0  0  0  0  0
    0.4531    8.0319    3.0823 H   0  0  0  0  0  0  0  0  0  0  0  0
   -0.3555    6.7744    4.0778 H   0  0  0  0  0  0  0  0  0  0  0  0
    1.2540    7.4069    4.5635 H   0  0  0  0  0  0  0  0  0  0  0  0
  1  3  1  0  0  0  0
  1  7  1  0  0  0  0
  1  2  2  0  0  0  0
 33 34  1  0  0  0  0
 34 42  1  0  0  0  0
 34 35  2  0  0  0  0
  8  9  1  0  0  0  0
  9 17  1  0  0  0  0
  9 10  2  0  0  0  0
 18 19  1  0  0  0  0
 19 32  1  0  0  0  0
 19 20  2  0  0  0  0
 22 23  1  0  0  0  0
 23 24  1  0  0  0  0
 23 25  2  0  0  0  0
 33 36  1  0  0  0  0
  8 11  1  0  0  0  0
 42 43  1  0  0  0  0
 21 22  1  0  0  0  0
 18 21  1  0  0  0  0
 32 33  1  0  0  0  0
  7  8  1  0  0  0  0
 17 18  1  0  0  0  0
  3  4  1  0  0  0  0
  3  5  1  0  0  0  0
  3  6  1  0  0  0  0
 36 39  1  0  0  0  0
 36 40  1  0  0  0  0
 36 41  1  0  0  0  0
 11 14  1  0  0  0  0
 11 15  1  0  0  0  0
 11 16  1  0  0  0  0
 43 45  1  0  0  0  0
 43 46  1  0  0  0  0
 43 47  1  0  0  0  0
 22 30  1  0  0  0  0
 22 31  1  0  0  0  0
 21 28  1  0  0  0  0
 21 29  1  0  0  0  0
 33 38  1  0  0  0  0
  8 13  1  0  0  0  0
 18 27  1  0  0  0  0
 42 44  1  0  0  0  0
  7 12  1  0  0  0  0
 32 37  1  0  0  0  0
 17 26  1  0  0  0  0
M  CHG  1  24  -1
M  END
$$$$

  -OEChem-05262214473D

 47 46  0     1  0  0  0  0  0999 V2000
    0.5093   -4.7265    3.0306 C   0  0  0  0  0  0  0  0  0  0  0  0
    1.2735   -4.4402    3.9448 O   0  0  0  0  0  0  0  0  0  0  0  0
   -0.4465   -5.8608    3.1982 C   0  0  0  0  0  0  0  0  0  0  0  0
   -0.0219   -6.8213    2.8645 H   0  0  0  0  0  0  0  0  0  0  0  0
   -0.7314   -6.0185    4.2509 H   0  0  0  0  0  0  0  0  0  0  0  0
   -1.3983   -5.7596    2.6527 H   0  0  0  0  0  0  0  0  0  0  0  0
    0.4252   -4.0886    1.8040 N   0  0  0  0  0  0  0  0  0  0  0  0
    1.2532   -2.9707    1.4349 C   0  0  2  0  0  0  0  0  0  0  0  0
    0.3395   -1.8293    1.0083 C   0  0  0  0  0  0  0  0  0  0  0  0
   -0.8136   -2.0027    0.6194 O   0  0  0  0  0  0  0  0  0  0  0  0
    2.2176   -3.3411    0.3189 C   0  0  0  0  0  0  0  0  0  0  0  0
   -0.2574   -4.4279    1.1287 H   0  0  0  0  0  0  0  0  0  0  0  0
    1.8087   -2.6785    2.3327 H   0  0  0  0  0  0  0  0  0  0  0  0
    1.6793   -3.6366   -0.5890 H   0  0  0  0  0  0  0  0  0  0  0  0
    2.8662   -2.4980    0.0589 H   0  0  0  0  0  0  0  0  0  0  0  0
    2.8538   -4.1816    0.6166 H   0  0  0  0  0  0  0  0  0  0  0  0
    0.9758   -0.5952    1.0708 N   0  0  0  0  0  0  0  0  0  0  0  0
    0.3258    0.6374    0.7059 C   0  0  2  0  0  0  0  0  0  0  0  0
    1.3340    1.7641    0.9051 C   0  0  0  0  0  0  0  0  0  0  0  0
    2.5115    1.6775    0.5629 O   0  0  0  0  0  0  0  0  0  0  0  0
   -0.9326    0.8928    1.5441 C   0  0  0  0  0  0  0  0  0  0  0  0
   -2.0568   -0.1068    1.2751 C   0  0  0  0  0  0  0  0  0  0  0  0
   -3.3363    0.0769    2.0978 C   0  0  0  0  0  0  0  0  0  0  0  0
   -3.2509    0.9560    3.0031 O   0  5  0  0  0  0  0  0  0  0  0  0
   -4.3183   -0.6466    1.7748 O   0  0  0  0  0  0  0  0  0  0  0  0
    1.9288   -0.5463    1.4242 H   0  0  0  0  0  0  0  0  0  0  0  0
    0.0871    0.5629   -0.3606 H   0  0  0  0  0  0  0  0  0  0  0  0
   -1.3002    1.9114    1.3686 H   0  0  0  0  0  0  0  0  0  0  0  0
   -0.6741    0.8450    2.6104 H   0  0  0  0  0  0  0  0  0  0  0  0
   -2.3124   -0.1045    0.2088 H   0  0  0  0  0  0  0  0  0  0  0  0
   -1.6862   -1.1140    1.5045 H   0  0  0  0  0  0  0  0  0  0  0  0
    0.7738    2.8571    1.5516 N   0  0  0  0  0  0  0  0  0  0  0  0
    1.5259    4.0483    1.8713 C   0  0  2  0  0  0  0  0  0  0  0  0
    0.7594    4.8157    2.9403 C   0  0  0  0  0  0  0  0  0  0  0  0
   -0.4483    4.6813    3.1265 O   0  0  0  0  0  0  0  0  0  0  0  0
    1.7484    4.9098    0.6380 C   0  0  0  0  0  0  0  0  0  0  0  0
   -0.2148    2.8461    1.7845 H   0  0  0  0  0  0  0  0  0  0  0  0
    2.4871    3.7157    2.2781 H   0  0  0  0  0  0  0  0  0  0  0  0
    0.7964    5.2524    0.2162 H   0  0  0  0  0  0  0  0  0  0  0  0
    2.3429    5.7979    0.8763 H   0  0  0  0  0  0  0  0  0  0  0  0
    2.2736    4.3468   -0.1412 H   0  0  0  0  0  0  0  0  0  0  0  0
    1.5742    5.7000    3.6333 N   0  0  0  0  0  0  0  0  0  0  0  0
    1.0793    6.5523    4.6891 C   0  0  0  0  0  0  0  0  0  0  0  0
    2.5679    5.7317    3.4252 H   0  0  0  0  0  0  0  0  0  0  0  0
    0.7851    7.5251    4.2683 H   0  0  0  0  0  0  0  0  0  0  0  0
    0.2069    6.0792    5.1635 H   0  0  0  0  0  0  0  0  0  0  0  0
    1.8691    6.7015    5.4401 H   0  0  0  0  0  0  0  0  0  0  0  0
  1  3  1  0  0  0  0
  1  7  1  0  0  0  0
  1  2  2  0  0  0  0
 33 34  1  0  0  0  0
 34 42  1  0  0  0  0
 34 35  2  0  0  0  0
  8  9  1  0  0  0  0
  9 17  1  0  0  0  0
  9 10  2  0  0  0  0
 18 19  1  0  0  0  0
 19 32  1  0  0  0  0
 19 20  2  0  0  0  0
 22 23  1  0  0  0  0
 23 24  1  0  0  0  0
 23 25  2  0  0  0  0
 33 36  1  0  0  0  0
  8 11  1  0  0  0  0
 42 43  1  0  0  0  0
 21 22  1  0  0  0  0
 18 21  1  0  0  0  0
 32 33  1  0  0  0  0
  7  8  1  0  0  0  0
 17 18  1  0  0  0  0
  3  4  1  0  0  0  0
  3  5  1  0  0  0  0
  3  6  1  0  0  0  0
 36 39  1  0  0  0  0
 36 40  1  0  0  0  0
 36 41  1  0  0  0  0
 11 14  1  0  0  0  0
 11 15  1  0  0  0  0
 11 16  1  0  0  0  0
 43 45  1  0  0  0  0
 43 46  1  0  0  0  0
 43 47  1  0  0  0  0
 22 30  1  0  0  0  0
 22 31  1  0  0  0  0
 21 28  1  0  0  0  0
 21 29  1  0  0  0  0
 33 38  1  0  0  0  0
  8 13  1  0  0  0  0
 18 27  1  0  0  0  0
 42 44  1  0  0  0  0
  7 12  1  0  0  0  0
 32 37  1  0  0  0  0
 17 26  1  0  0  0  0
M  CHG  1  24  -1
M  END
$$$$

  -OEChem-05262214473D

 47 46  0     1  0  0  0  0  0999 V2000
    0.5093   -4.7265    3.0306 C   0  0  0  0  0  0  0  0  0  0  0  0
    1.2735   -4.4402    3.9448 O   0  0  0  0  0  0  0  0  0  0  0  0
   -0.4465   -5.8608    3.1982 C   0  0  0  0  0  0  0  0  0  0  0  0
   -0.0219   -6.8213    2.8645 H   0  0  0  0  0  0  0  0  0  0  0  0
   -0.7314   -6.0185    4.2509 H   0  0  0  0  0  0  0  0  0  0  0  0
   -1.3983   -5.7596    2.6527 H   0  0  0  0  0  0  0  0  0  0  0  0
    0.4252   -4.0886    1.8040 N   0  0  0  0  0  0  0  0  0  0  0  0
    1.2532   -2.9707    1.4349 C   0  0  2  0  0  0  0  0  0  0  0  0
    0.3395   -1.8293    1.0083 C   0  0  0  0  0  0  0  0  0  0  0  0
   -0.8136   -2.0027    0.6194 O   0  0  0  0  0  0  0  0  0  0  0  0
    2.2176   -3.3411    0.3189 C   0  0  0  0  0  0  0  0  0  0  0  0
   -0.2574   -4.4279    1.1287 H   0  0  0  0  0  0  0  0  0  0  0  0
    1.8087   -2.6785    2.3327 H   0  0  0  0  0  0  0  0  0  0  0  0
    1.6793   -3.6366   -0.5890 H   0  0  0  0  0  0  0  0  0  0  0  0
    2.8662   -2.4980    0.0589 H   0  0  0  0  0  0  0  0  0  0  0  0
    2.8538   -4.1816    0.6166 H   0  0  0  0  0  0  0  0  0  0  0  0
    0.9758   -0.5952    1.0708 N   0  0  0  0  0  0  0  0  0  0  0  0
    0.3258    0.6374    0.7059 C   0  0  2  0  0  0  0  0  0  0  0  0
    1.3340    1.7641    0.9051 C   0  0  0  0  0  0  0  0  0  0  0  0
    2.4240    1.7956    0.3375 O   0  0  0  0  0  0  0  0  0  0  0  0
   -0.9326    0.8928    1.5441 C   0  0  0  0  0  0  0  0  0  0  0  0
   -2.0568   -0.1068    1.2751 C   0  0  0  0  0  0  0  0  0  0  0  0
   -3.3363    0.0769    2.0978 C   0  0  0  0  0  0  0  0  0  0  0  0
   -3.2509    0.9560    3.0031 O   0  5  0  0  0  0  0  0  0  0  0  0
   -4.3183   -0.6466    1.7748 O   0  0  0  0  0  0  0  0  0  0  0  0
    1.9288   -0.5463    1.4242 H   0  0  0  0  0  0  0  0  0  0  0  0
    0.0871    0.5629   -0.3606 H   0  0  0  0  0  0  0  0  0  0  0  0
   -1.3002    1.9114    1.3686 H   0  0  0  0  0  0  0  0  0  0  0  0
   -0.6741    0.8450    2.6104 H   0  0  0  0  0  0  0  0  0  0  0  0
   -2.3124   -0.1045    0.2088 H   0  0  0  0  0  0  0  0  0  0  0  0
   -1.6862   -1.1140    1.5045 H   0  0  0  0  0  0  0  0  0  0  0  0
    0.8913    2.7034    1.8260 N   0  0  0  0  0  0  0  0  0  0  0  0
    1.6706    3.8605    2.2011 C   0  0  2  0  0  0  0  0  0  0  0  0
    1.1132    4.3980    3.5125 C   0  0  0  0  0  0  0  0  0  0  0  0
   -0.0328    4.1735    3.8964 O   0  0  0  0  0  0  0  0  0  0  0  0
    1.6346    4.9269    1.1175 C   0  0  0  0  0  0  0  0  0  0  0  0
   -0.0329    2.6036    2.2353 H   0  0  0  0  0  0  0  0  0  0  0  0
    2.6981    3.5133    2.3554 H   0  0  0  0  0  0  0  0  0  0  0  0
    0.6131    5.2869    0.9489 H   0  0  0  0  0  0  0  0  0  0  0  0
    2.2488    5.7912    1.3908 H   0  0  0  0  0  0  0  0  0  0  0  0
    2.0081    4.5298    0.1674 H   0  0  0  0  0  0  0  0  0  0  0  0
    2.0318    5.1934    4.1831 N   0  0  0  0  0  0  0  0  0  0  0  0
    1.7368    5.8303    5.4453 C   0  0  0  0  0  0  0  0  0  0  0  0
    2.9655    5.3096    3.8004 H   0  0  0  0  0  0  0  0  0  0  0  0
    1.3498    6.8439    5.2637 H   0  0  0  0  0  0  0  0  0  0  0  0
    0.9813    5.2409    5.9856 H   0  0  0  0  0  0  0  0  0  0  0  0
    2.6546    5.8911    6.0486 H   0  0  0  0  0  0  0  0  0  0  0  0
  1  3  1  0  0  0  0
  1  7  1  0  0  0  0
  1  2  2  0  0  0  0
 33 34  1  0  0  0  0
 34 42  1  0  0  0  0
 34 35  2  0  0  0  0
  8  9  1  0  0  0  0
  9 17  1  0  0  0  0
  9 10  2  0  0  0  0
 18 19  1  0  0  0  0
 19 32  1  0  0  0  0
 19 20  2  0  0  0  0
 22 23  1  0  0  0  0
 23 24  1  0  0  0  0
 23 25  2  0  0  0  0
 33 36  1  0  0  0  0
  8 11  1  0  0  0  0
 42 43  1  0  0  0  0
 21 22  1  0  0  0  0
 18 21  1  0  0  0  0
 32 33  1  0  0  0  0
  7  8  1  0  0  0  0
 17 18  1  0  0  0  0
  3  4  1  0  0  0  0
  3  5  1  0  0  0  0
  3  6  1  0  0  0  0
 36 39  1  0  0  0  0
 36 40  1  0  0  0  0
 36 41  1  0  0  0  0
 11 14  1  0  0  0  0
 11 15  1  0  0  0  0
 11 16  1  0  0  0  0
 43 45  1  0  0  0  0
 43 46  1  0  0  0  0
 43 47  1  0  0  0  0
 22 30  1  0  0  0  0
 22 31  1  0  0  0  0
 21 28  1  0  0  0  0
 21 29  1  0  0  0  0
 33 38  1  0  0  0  0
  8 13  1  0  0  0  0
 18 27  1  0  0  0  0
 42 44  1  0  0  0  0
  7 12  1  0  0  0  0
 32 37  1  0  0  0  0
 17 26  1  0  0  0  0
M  CHG  1  24  -1
M  END
$$$$

  -OEChem-05262214473D

 47 46  0     1  0  0  0  0  0999 V2000
    0.5093   -4.7265    3.0306 C   0  0  0  0  0  0  0  0  0  0  0  0
    1.2735   -4.4402    3.9448 O   0  0  0  0  0  0  0  0  0  0  0  0
   -0.4465   -5.8608    3.1982 C   0  0  0  0  0  0  0  0  0  0  0  0
   -0.0219   -6.8213    2.8645 H   0  0  0  0  0  0  0  0  0  0  0  0
   -0.7314   -6.0185    4.2509 H   0  0  0  0  0  0  0  0  0  0  0  0
   -1.3983   -5.7596    2.6527 H   0  0  0  0  0  0  0  0  0  0  0  0
    0.4252   -4.0886    1.8040 N   0  0  0  0  0  0  0  0  0  0  0  0
    1.2532   -2.9707    1.4349 C   0  0  2  0  0  0  0  0  0  0  0  0
    0.3395   -1.8293    1.0083 C   0  0  0  0  0  0  0  0  0  0  0  0
   -0.8136   -2.0027    0.6194 O   0  0  0  0  0  0  0  0  0  0  0  0
    2.2176   -3.3411    0.3189 C   0  0  0  0  0  0  0  0  0  0  0  0
   -0.2574   -4.4279    1.1287 H   0  0  0  0  0  0  0  0  0  0  0  0
    1.8087   -2.6785    2.3327 H   0  0  0  0  0  0  0  0  0  0  0  0
    1.6793   -3.6366   -0.5890 H   0  0  0  0  0  0  0  0  0  0  0  0
    2.8662   -2.4980    0.0589 H   0  0  0  0  0  0  0  0  0  0  0  0
    2.8538   -4.1816    0.6166 H   0  0  0  0  0  0  0  0  0  0  0  0
    0.9758   -0.5952    1.0708 N   0  0  0  0  0  0  0  0  0  0  0  0
    0.3258    0.6374    0.7059 C   0  0  2  0  0  0  0  0  0  0  0  0
    1.3340    1.7641    0.9051 C   0  0  0  0  0  0  0  0  0  0  0  0
    2.2923    1.9454    0.1568 O   0  0  0  0  0  0  0  0  0  0  0  0
   -0.9326    0.8928    1.5441 C   0  0  0  0  0  0  0  0  0  0  0  0
   -2.0568   -0.1068    1.2751 C   0  0  0  0  0  0  0  0  0  0  0  0
   -3.3363    0.0769    2.0978 C   0  0  0  0  0  0  0  0  0  0  0  0
   -3.2509    0.9560    3.0031 O   0  5  0  0  0  0  0  0  0  0  0  0
   -4.3183   -0.6466    1.7748 O   0  0  0  0  0  0  0  0  0  0  0  0
    1.9288   -0.5463    1.4242 H   0  0  0  0  0  0  0  0  0  0  0  0
    0.0871    0.5629   -0.3606 H   0  0  0  0  0  0  0  0  0  0  0  0
   -1.3002    1.9114    1.3686 H   0  0  0  0  0  0  0  0  0  0  0  0
   -0.6741    0.8450    2.6104 H   0  0  0  0  0  0  0  0  0  0  0  0
   -2.3124   -0.1045    0.2088 H   0  0  0  0  0  0  0  0  0  0  0  0
   -1.6862   -1.1140    1.5045 H   0  0  0  0  0  0  0  0  0  0  0  0
    1.0625    2.5120    2.0424 N   0  0  0  0  0  0  0  0  0  0  0  0
    1.8798    3.6275    2.4599 C   0  0  2  0  0  0  0  0  0  0  0  0
    1.5785    3.9085    3.9261 C   0  0  0  0  0  0  0  0  0  0  0  0
    0.5328    3.5653    4.4737 O   0  0  0  0  0  0  0  0  0  0  0  0
    1.6157    4.8575    1.6054 C   0  0  0  0  0  0  0  0  0  0  0  0
    0.2372    2.2984    2.5945 H   0  0  0  0  0  0  0  0  0  0  0  0
    2.9235    3.3117    2.3550 H   0  0  0  0  0  0  0  0  0  0  0  0
    0.5749    5.1887    1.6975 H   0  0  0  0  0  0  0  0  0  0  0  0
    2.2564    5.6935    1.9046 H   0  0  0  0  0  0  0  0  0  0  0  0
    1.8044    4.6449    0.5475 H   0  0  0  0  0  0  0  0  0  0  0  0
    2.5960    4.6255    4.5400 N   0  0  0  0  0  0  0  0  0  0  0  0
    2.5408    5.0258    5.9266 C   0  0  0  0  0  0  0  0  0  0  0  0
    3.4355    4.8512    4.0145 H   0  0  0  0  0  0  0  0  0  0  0  0
    2.1086    6.0346    6.0006 H   0  0  0  0  0  0  0  0  0  0  0  0
    1.9148    4.3167    6.4882 H   0  0  0  0  0  0  0  0  0  0  0  0
    3.5571    5.0307    6.3474 H   0  0  0  0  0  0  0  0  0  0  0  0
  1  3  1  0  0  0  0
  1  7  1  0  0  0  0
  1  2  2  0  0  0  0
 33 34  1  0  0  0  0
 34 42  1  0  0  0  0
 34 35  2  0  0  0  0
  8  9  1  0  0  0  0
  9 17  1  0  0  0  0
  9 10  2  0  0  0  0
 18 19  1  0  0  0  0
 19 32  1  0  0  0  0
 19 20  2  0  0  0  0
 22 23  1  0  0  0  0
 23 24  1  0  0  0  0
 23 25  2  0  0  0  0
 33 36  1  0  0  0  0
  8 11  1  0  0  0  0
 42 43  1  0  0  0  0
 21 22  1  0  0  0  0
 18 21  1  0  0  0  0
 32 33  1  0  0  0  0
  7  8  1  0  0  0  0
 17 18  1  0  0  0  0
  3  4  1  0  0  0  0
  3  5  1  0  0  0  0
  3  6  1  0  0  0  0
 36 39  1  0  0  0  0
 36 40  1  0  0  0  0
 36 41  1  0  0  0  0
 11 14  1  0  0  0  0
 11 15  1  0  0  0  0
 11 16  1  0  0  0  0
 43 45  1  0  0  0  0
 43 46  1  0  0  0  0
 43 47  1  0  0  0  0
 22 30  1  0  0  0  0
 22 31  1  0  0  0  0
 21 28  1  0  0  0  0
 21 29  1  0  0  0  0
 33 38  1  0  0  0  0
  8 13  1  0  0  0  0
 18 27  1  0  0  0  0
 42 44  1  0  0  0  0
  7 12  1  0  0  0  0
 32 37  1  0  0  0  0
 17 26  1  0  0  0  0
M  CHG  1  24  -1
M  END
$$$$

  -OEChem-05262214473D

 47 46  0     1  0  0  0  0  0999 V2000
    0.5093   -4.7265    3.0306 C   0  0  0  0  0  0  0  0  0  0  0  0
    1.2735   -4.4402    3.9448 O   0  0  0  0  0  0  0  0  0  0  0  0
   -0.4465   -5.8608    3.1982 C   0  0  0  0  0  0  0  0  0  0  0  0
   -0.0219   -6.8213    2.8645 H   0  0  0  0  0  0  0  0  0  0  0  0
   -0.7314   -6.0185    4.2509 H   0  0  0  0  0  0  0  0  0  0  0  0
   -1.3983   -5.7596    2.6527 H   0  0  0  0  0  0  0  0  0  0  0  0
    0.4252   -4.0886    1.8040 N   0  0  0  0  0  0  0  0  0  0  0  0
    1.2532   -2.9707    1.4349 C   0  0  2  0  0  0  0  0  0  0  0  0
    0.3395   -1.8293    1.0083 C   0  0  0  0  0  0  0  0  0  0  0  0
   -0.8136   -2.0027    0.6194 O   0  0  0  0  0  0  0  0  0  0  0  0
    2.2176   -3.3411    0.3189 C   0  0  0  0  0  0  0  0  0  0  0  0
   -0.2574   -4.4279    1.1287 H   0  0  0  0  0  0  0  0  0  0  0  0
    1.8087   -2.6785    2.3327 H   0  0  0  0  0  0  0  0  0  0  0  0
    1.6793   -3.6366   -0.5890 H   0  0  0  0  0  0  0  0  0  0  0  0
    2.8662   -2.4980    0.0589 H   0  0  0  0  0  0  0  0  0  0  0  0
    2.8538   -4.1816    0.6166 H   0  0  0  0  0  0  0  0  0  0  0  0
    0.9758   -0.5952    1.0708 N   0  0  0  0  0  0  0  0  0  0  0  0
    0.3258    0.6374    0.7059 C   0  0  2  0  0  0  0  0  0  0  0  0
    1.3340    1.7641    0.9051 C   0  0  0  0  0  0  0  0  0  0  0  0
    2.1255    2.1165    0.0331 O   0  0  0  0  0  0  0  0  0  0  0  0
   -0.9326    0.8928    1.5441 C   0  0  0  0  0  0  0  0  0  0  0  0
   -2.0568   -0.1068    1.2751 C   0  0  0  0  0  0  0  0  0  0  0  0
   -3.3363    0.0769    2.0978 C   0  0  0  0  0  0  0  0  0  0  0  0
   -3.2509    0.9560    3.0031 O   0  5  0  0  0  0  0  0  0  0  0  0
   -4.3183   -0.6466    1.7748 O   0  0  0  0  0  0  0  0  0  0  0  0
    1.9288   -0.5463    1.4242 H   0  0  0  0  0  0  0  0  0  0  0  0
    0.0871    0.5629   -0.3606 H   0  0  0  0  0  0  0  0  0  0  0  0
   -1.3002    1.9114    1.3686 H   0  0  0  0  0  0  0  0  0  0  0  0
   -0.6741    0.8450    2.6104 H   0  0  0  0  0  0  0  0  0  0  0  0
   -2.3124   -0.1045    0.2088 H   0  0  0  0  0  0  0  0  0  0  0  0
   -1.6862   -1.1140    1.5045 H   0  0  0  0  0  0  0  0  0  0  0  0
    1.2757    2.2959    2.1858 N   0  0  0  0  0  0  0  0  0  0  0  0
    2.1393    3.3653    2.6301 C   0  0  2  0  0  0  0  0  0  0  0  0
    2.1235    3.3807    4.1529 C   0  0  0  0  0  0  0  0  0  0  0  0
    1.2102    2.8981    4.8192 O   0  0  0  0  0  0  0  0  0  0  0  0
    1.6932    4.7063    2.0683 C   0  0  0  0  0  0  0  0  0  0  0  0
    0.5771    1.9513    2.8376 H   0  0  0  0  0  0  0  0  0  0  0  0
    3.1480    3.1246    2.2771 H   0  0  0  0  0  0  0  0  0  0  0  0
    0.6846    4.9644    2.4111 H   0  0  0  0  0  0  0  0  0  0  0  0
    2.3653    5.5115    2.3827 H   0  0  0  0  0  0  0  0  0  0  0  0
    1.6765    4.6840    0.9733 H   0  0  0  0  0  0  0  0  0  0  0  0
    3.2284    4.0349    4.6796 N   0  0  0  0  0  0  0  0  0  0  0  0
    3.4367    4.1935    6.1000 C   0  0  0  0  0  0  0  0  0  0  0  0
    3.9459    4.3876    4.0531 H   0  0  0  0  0  0  0  0  0  0  0  0
    3.0098    5.1525    6.4288 H   0  0  0  0  0  0  0  0  0  0  0  0
    2.9439    3.3696    6.6370 H   0  0  0  0  0  0  0  0  0  0  0  0
    4.5151    4.1790    6.3162 H   0  0  0  0  0  0  0  0  0  0  0  0
  1  3  1  0  0  0  0
  1  7  1  0  0  0  0
  1  2  2  0  0  0  0
 33 34  1  0  0  0  0
 34 42  1  0  0  0  0
 34 35  2  0  0  0  0
  8  9  1  0  0  0  0
  9 17  1  0  0  0  0
  9 10  2  0  0  0  0
 18 19  1  0  0  0  0
 19 32  1  0  0  0  0
 19 20  2  0  0  0  0
 22 23  1  0  0  0  0
 23 24  1  0  0  0  0
 23 25  2  0  0  0  0
 33 36  1  0  0  0  0
  8 11  1  0  0  0  0
 42 43  1  0  0  0  0
 21 22  1  0  0  0  0
 18 21  1  0  0  0  0
 32 33  1  0  0  0  0
  7  8  1  0  0  0  0
 17 18  1  0  0  0  0
  3  4  1  0  0  0  0
  3  5  1  0  0  0  0
  3  6  1  0  0  0  0
 36 39  1  0  0  0  0
 36 40  1  0  0  0  0
 36 41  1  0  0  0  0
 11 14  1  0  0  0  0
 11 15  1  0  0  0  0
 11 16  1  0  0  0  0
 43 45  1  0  0  0  0
 43 46  1  0  0  0  0
 43 47  1  0  0  0  0
 22 30  1  0  0  0  0
 22 31  1  0  0  0  0
 21 28  1  0  0  0  0
 21 29  1  0  0  0  0
 33 38  1  0  0  0  0
  8 13  1  0  0  0  0
 18 27  1  0  0  0  0
 42 44  1  0  0  0  0
  7 12  1  0  0  0  0
 32 37  1  0  0  0  0
 17 26  1  0  0  0  0
M  CHG  1  24  -1
M  END
$$$$

  -OEChem-05262214473D

 47 46  0     1  0  0  0  0  0999 V2000
    0.5093   -4.7265    3.0306 C   0  0  0  0  0  0  0  0  0  0  0  0
    1.2735   -4.4402    3.9448 O   0  0  0  0  0  0  0  0  0  0  0  0
   -0.4465   -5.8608    3.1982 C   0  0  0  0  0  0  0  0  0  0  0  0
   -0.0219   -6.8213    2.8645 H   0  0  0  0  0  0  0  0  0  0  0  0
   -0.7314   -6.0185    4.2509 H   0  0  0  0  0  0  0  0  0  0  0  0
   -1.3983   -5.7596    2.6527 H   0  0  0  0  0  0  0  0  0  0  0  0
    0.4252   -4.0886    1.8040 N   0  0  0  0  0  0  0  0  0  0  0  0
    1.2532   -2.9707    1.4349 C   0  0  2  0  0  0  0  0  0  0  0  0
    0.3395   -1.8293    1.0083 C   0  0  0  0  0  0  0  0  0  0  0  0
   -0.8136   -2.0027    0.6194 O   0  0  0  0  0  0  0  0  0  0  0  0
    2.2176   -3.3411    0.3189 C   0  0  0  0  0  0  0  0  0  0  0  0
   -0.2574   -4.4279    1.1287 H   0  0  0  0  0  0  0  0  0  0  0  0
    1.8087   -2.6785    2.3327 H   0  0  0  0  0  0  0  0  0  0  0  0
    1.6793   -3.6366   -0.5890 H   0  0  0  0  0  0  0  0  0  0  0  0
    2.8662   -2.4980    0.0589 H   0  0  0  0  0  0  0  0  0  0  0  0
    2.8538   -4.1816    0.6166 H   0  0  0  0  0  0  0  0  0  0  0  0
    0.9758   -0.5952    1.0708 N   0  0  0  0  0  0  0  0  0  0  0  0
    0.3258    0.6374    0.7059 C   0  0  2  0  0  0  0  0  0  0  0  0
    1.3340    1.7641    0.9051 C   0  0  0  0  0  0  0  0  0  0  0  0
    1.9350    2.2973   -0.0253 O   0  0  0  0  0  0  0  0  0  0  0  0
   -0.9326    0.8928    1.5441 C   0  0  0  0  0  0  0  0  0  0  0  0
   -2.0568   -0.1068    1.2751 C   0  0  0  0  0  0  0  0  0  0  0  0
   -3.3363    0.0769    2.0978 C   0  0  0  0  0  0  0  0  0  0  0  0
   -3.2509    0.9560    3.0031 O   0  5  0  0  0  0  0  0  0  0  0  0
   -4.3183   -0.6466    1.7748 O   0  0  0  0  0  0  0  0  0  0  0  0
    1.9288   -0.5463    1.4242 H   0  0  0  0  0  0  0  0  0  0  0  0
    0.0871    0.5629   -0.3606 H   0  0  0  0  0  0  0  0  0  0  0  0
   -1.3002    1.9114    1.3686 H   0  0  0  0  0  0  0  0  0  0  0  0
   -0.6741    0.8450    2.6104 H   0  0  0  0  0  0  0  0  0  0  0  0
   -2.3124   -0.1045    0.2088 H   0  0  0  0  0  0  0  0  0  0  0  0
   -1.6862   -1.1140    1.5045 H   0  0  0  0  0  0  0  0  0  0  0  0
    1.5163    2.0698    2.2466 N   0  0  0  0  0  0  0  0  0  0  0  0
    2.4312    3.0917    2.6999 C   0  0  2  0  0  0  0  0  0  0  0  0
    2.7113    2.8505    4.1774 C   0  0  0  0  0  0  0  0  0  0  0  0
    1.9531    2.2174    4.9092 O   0  0  0  0  0  0  0  0  0  0  0  0
    1.8617    4.4837    2.4748 C   0  0  0  0  0  0  0  0  0  0  0  0
    0.9636    1.5859    2.9481 H   0  0  0  0  0  0  0  0  0  0  0  0
    3.3562    2.9648    2.1268 H   0  0  0  0  0  0  0  0  0  0  0  0
    0.9345    4.6294    3.0411 H   0  0  0  0  0  0  0  0  0  0  0  0
    2.5681    5.2576    2.7926 H   0  0  0  0  0  0  0  0  0  0  0  0
    1.6331    4.6447    1.4158 H   0  0  0  0  0  0  0  0  0  0  0  0
    3.8860    3.4619    4.5925 N   0  0  0  0  0  0  0  0  0  0  0  0
    4.3633    3.3902    5.9538 C   0  0  0  0  0  0  0  0  0  0  0  0
    4.4620    3.9505    3.9134 H   0  0  0  0  0  0  0  0  0  0  0  0
    3.9920    4.2576    6.5192 H   0  0  0  0  0  0  0  0  0  0  0  0
    3.9984    2.4640    6.4219 H   0  0  0  0  0  0  0  0  0  0  0  0
    5.4633    3.3940    5.9572 H   0  0  0  0  0  0  0  0  0  0  0  0
  1  3  1  0  0  0  0
  1  7  1  0  0  0  0
  1  2  2  0  0  0  0
 33 34  1  0  0  0  0
 34 42  1  0  0  0  0
 34 35  2  0  0  0  0
  8  9  1  0  0  0  0
  9 17  1  0  0  0  0
  9 10  2  0  0  0  0
 18 19  1  0  0  0  0
 19 32  1  0  0  0  0
 19 20  2  0  0  0  0
 22 23  1  0  0  0  0
 23 24  1  0  0  0  0
 23 25  2  0  0  0  0
 33 36  1  0  0  0  0
  8 11  1  0  0  0  0
 42 43  1  0  0  0  0
 21 22  1  0  0  0  0
 18 21  1  0  0  0  0
 32 33  1  0  0  0  0
  7  8  1  0  0  0  0
 17 18  1  0  0  0  0
  3  4  1  0  0  0  0
  3  5  1  0  0  0  0
  3  6  1  0  0  0  0
 36 39  1  0  0  0  0
 36 40  1  0  0  0  0
 36 41  1  0  0  0  0
 11 14  1  0  0  0  0
 11 15  1  0  0  0  0
 11 16  1  0  0  0  0
 43 45  1  0  0  0  0
 43 46  1  0  0  0  0
 43 47  1  0  0  0  0
 22 30  1  0  0  0  0
 22 31  1  0  0  0  0
 21 28  1  0  0  0  0
 21 29  1  0  0  0  0
 33 38  1  0  0  0  0
  8 13  1  0  0  0  0
 18 27  1  0  0  0  0
 42 44  1  0  0  0  0
  7 12  1  0  0  0  0
 32 37  1  0  0  0  0
 17 26  1  0  0  0  0
M  CHG  1  24  -1
M  END
$$$$

  -OEChem-05262214473D

 47 46  0     1  0  0  0  0  0999 V2000
    0.5093   -4.7265    3.0306 C   0  0  0  0  0  0  0  0  0  0  0  0
    1.2735   -4.4402    3.9448 O   0  0  0  0  0  0  0  0  0  0  0  0
   -0.4465   -5.8608    3.1982 C   0  0  0  0  0  0  0  0  0  0  0  0
   -0.0219   -6.8213    2.8645 H   0  0  0  0  0  0  0  0  0  0  0  0
   -0.7314   -6.0185    4.2509 H   0  0  0  0  0  0  0  0  0  0  0  0
   -1.3983   -5.7596    2.6527 H   0  0  0  0  0  0  0  0  0  0  0  0
    0.4252   -4.0886    1.8040 N   0  0  0  0  0  0  0  0  0  0  0  0
    1.2532   -2.9707    1.4349 C   0  0  2  0  0  0  0  0  0  0  0  0
    0.3395   -1.8293    1.0083 C   0  0  0  0  0  0  0  0  0  0  0  0
   -0.8136   -2.0027    0.6194 O   0  0  0  0  0  0  0  0  0  0  0  0
    2.2176   -3.3411    0.3189 C   0  0  0  0  0  0  0  0  0  0  0  0
   -0.2574   -4.4279    1.1287 H   0  0  0  0  0  0  0  0  0  0  0  0
    1.8087   -2.6785    2.3327 H   0  0  0  0  0  0  0  0  0  0  0  0
    1.6793   -3.6366   -0.5890 H   0  0  0  0  0  0  0  0  0  0  0  0
    2.8662   -2.4980    0.0589 H   0  0  0  0  0  0  0  0  0  0  0  0
    2.8538   -4.1816    0.6166 H   0  0  0  0  0  0  0  0  0  0  0  0
    0.9758   -0.5952    1.0708 N   0  0  0  0  0  0  0  0  0  0  0  0
    0.3258    0.6374    0.7059 C   0  0  2  0  0  0  0  0  0  0  0  0
    1.3340    1.7641    0.9051 C   0  0  0  0  0  0  0  0  0  0  0  0
    1.7336    2.4756   -0.0143 O   0  0  0  0  0  0  0  0  0  0  0  0
   -0.9326    0.8928    1.5441 C   0  0  0  0  0  0  0  0  0  0  0  0
   -2.0568   -0.1068    1.2751 C   0  0  0  0  0  0  0  0  0  0  0  0
   -3.3363    0.0769    2.0978 C   0  0  0  0  0  0  0  0  0  0  0  0
   -3.2509    0.9560    3.0031 O   0  5  0  0  0  0  0  0  0  0  0  0
   -4.3183   -0.6466    1.7748 O   0  0  0  0  0  0  0  0  0  0  0  0
    1.9288   -0.5463    1.4242 H   0  0  0  0  0  0  0  0  0  0  0  0
    0.0871    0.5629   -0.3606 H   0  0  0  0  0  0  0  0  0  0  0  0
   -1.3002    1.9114    1.3686 H   0  0  0  0  0  0  0  0  0  0  0  0
   -0.6741    0.8450    2.6104 H   0  0  0  0  0  0  0  0  0  0  0  0
   -2.3124   -0.1045    0.2088 H   0  0  0  0  0  0  0  0  0  0  0  0
   -1.6862   -1.1140    1.5045 H   0  0  0  0  0  0  0  0  0  0  0  0
    1.7681    1.8491    2.2207 N   0  0  0  0  0  0  0  0  0  0  0  0
    2.7359    2.8253    2.6647 C   0  0  2  0  0  0  0  0  0  0  0  0
    3.3016    2.3540    3.9979 C   0  0  0  0  0  0  0  0  0  0  0  0
    2.7109    1.5697    4.7375 O   0  0  0  0  0  0  0  0  0  0  0  0
    2.1097    4.2048    2.7972 C   0  0  0  0  0  0  0  0  0  0  0  0
    1.3705    1.2271    2.9183 H   0  0  0  0  0  0  0  0  0  0  0  0
    3.5340    2.8433    1.9146 H   0  0  0  0  0  0  0  0  0  0  0  0
    1.3077    4.2065    3.5444 H   0  0  0  0  0  0  0  0  0  0  0  0
    2.8510    4.9491    3.1063 H   0  0  0  0  0  0  0  0  0  0  0  0
    1.6770    4.5295    1.8447 H   0  0  0  0  0  0  0  0  0  0  0  0
    4.5239    2.9455    4.2846 N   0  0  0  0  0  0  0  0  0  0  0  0
    5.2576    2.6706    5.4979 C   0  0  0  0  0  0  0  0  0  0  0  0
    4.9486    3.5696    3.6050 H   0  0  0  0  0  0  0  0  0  0  0  0
    4.9883    3.4110    6.2656 H   0  0  0  0  0  0  0  0  0  0  0  0
    5.0064    1.6618    5.8575 H   0  0  0  0  0  0  0  0  0  0  0  0
    6.3370    2.7293    5.2947 H   0  0  0  0  0  0  0  0  0  0  0  0
  1  3  1  0  0  0  0
  1  7  1  0  0  0  0
  1  2  2  0  0  0  0
 33 34  1  0  0  0  0
 34 42  1  0  0  0  0
 34 35  2  0  0  0  0
  8  9  1  0  0  0  0
  9 17  1  0  0  0  0
  9 10  2  0  0  0  0
 18 19  1  0  0  0  0
 19 32  1  0  0  0  0
 19 20  2  0  0  0  0
 22 23  1  0  0  0  0
 23 24  1  0  0  0  0
 23 25  2  0  0  0  0
 33 36  1  0  0  0  0
  8 11  1  0  0  0  0
 42 43  1  0  0  0  0
 21 22  1  0  0  0  0
 18 21  1  0  0  0  0
 32 33  1  0  0  0  0
  7  8  1  0  0  0  0
 17 18  1  0  0  0  0
  3  4  1  0  0  0  0
  3  5  1  0  0  0  0
  3  6  1  0  0  0  0
 36 39  1  0  0  0  0
 36 40  1  0  0  0  0
 36 41  1  0  0  0  0
 11 14  1  0  0  0  0
 11 15  1  0  0  0  0
 11 16  1  0  0  0  0
 43 45  1  0  0  0  0
 43 46  1  0  0  0  0
 43 47  1  0  0  0  0
 22 30  1  0  0  0  0
 22 31  1  0  0  0  0
 21 28  1  0  0  0  0
 21 29  1  0  0  0  0
 33 38  1  0  0  0  0
  8 13  1  0  0  0  0
 18 27  1  0  0  0  0
 42 44  1  0  0  0  0
  7 12  1  0  0  0  0
 32 37  1  0  0  0  0
 17 26  1  0  0  0  0
M  CHG  1  24  -1
M  END
$$$$

  -OEChem-05262214473D

 47 46  0     1  0  0  0  0  0999 V2000
    0.5093   -4.7265    3.0306 C   0  0  0  0  0  0  0  0  0  0  0  0
    1.2735   -4.4402    3.9448 O   0  0  0  0  0  0  0  0  0  0  0  0
   -0.4465   -5.8608    3.1982 C   0  0  0  0  0  0  0  0  0  0  0  0
   -0.0219   -6.8213    2.8645 H   0  0  0  0  0  0  0  0  0  0  0  0
   -0.7314   -6.0185    4.2509 H   0  0  0  0  0  0  0  0  0  0  0  0
   -1.3983   -5.7596    2.6527 H   0  0  0  0  0  0  0  0  0  0  0  0
    0.4252   -4.0886    1.8040 N   0  0  0  0  0  0  0  0  0  0  0  0
    1.2532   -2.9707    1.4349 C   0  0  2  0  0  0  0  0  0  0  0  0
    0.3395   -1.8293    1.0083 C   0  0  0  0  0  0  0  0  0  0  0  0
   -0.8136   -2.0027    0.6194 O   0  0  0  0  0  0  0  0  0  0  0  0
    2.2176   -3.3411    0.3189 C   0  0  0  0  0  0  0  0  0  0  0  0
   -0.2574   -4.4279    1.1287 H   0  0  0  0  0  0  0  0  0  0  0  0
    1.8087   -2.6785    2.3327 H   0  0  0  0  0  0  0  0  0  0  0  0
    1.6793   -3.6366   -0.5890 H   0  0  0  0  0  0  0  0  0  0  0  0
    2.8662   -2.4980    0.0589 H   0  0  0  0  0  0  0  0  0  0  0  0
    2.8538   -4.1816    0.6166 H   0  0  0  0  0  0  0  0  0  0  0  0
    0.9758   -0.5952    1.0708 N   0  0  0  0  0  0  0  0  0  0  0  0
    0.3258    0.6374    0.7059 C   0  0  2  0  0  0  0  0  0  0  0  0
    1.3340    1.7641    0.9051 C   0  0  0  0  0  0  0  0  0  0  0  0
    1.5352    2.6390    0.0653 O   0  0  0  0  0  0  0  0  0  0  0  0
   -0.9326    0.8928    1.5441 C   0  0  0  0  0  0  0  0  0  0  0  0
   -2.0568   -0.1068    1.2751 C   0  0  0  0  0  0  0  0  0  0  0  0
   -3.3363    0.0769    2.0978 C   0  0  0  0  0  0  0  0  0  0  0  0
   -3.2509    0.9560    3.0031 O   0  5  0  0  0  0  0  0  0  0  0  0
   -4.3183   -0.6466    1.7748 O   0  0  0  0  0  0  0  0  0  0  0  0
    1.9288   -0.5463    1.4242 H   0  0  0  0  0  0  0  0  0  0  0  0
    0.0871    0.5629   -0.3606 H   0  0  0  0  0  0  0  0  0  0  0  0
   -1.3002    1.9114    1.3686 H   0  0  0  0  0  0  0  0  0  0  0  0
   -0.6741    0.8450    2.6104 H   0  0  0  0  0  0  0  0  0  0  0  0
   -2.3124   -0.1045    0.2088 H   0  0  0  0  0  0  0  0  0  0  0  0
   -1.6862   -1.1140    1.5045 H   0  0  0  0  0  0  0  0  0  0  0  0
    2.0137    1.6490    2.1097 N   0  0  0  0  0  0  0  0  0  0  0  0
    3.0325    2.5843    2.5269 C   0  0  2  0  0  0  0  0  0  0  0  0
    3.8542    1.9251    3.6267 C   0  0  0  0  0  0  0  0  0  0  0  0
    3.4319    0.9990    4.3160 O   0  0  0  0  0  0  0  0  0  0  0  0
    2.4203    3.8886    3.0134 C   0  0  0  0  0  0  0  0  0  0  0  0
    1.7699    0.8994    2.7504 H   0  0  0  0  0  0  0  0  0  0  0  0
    3.6693    2.7681    1.6547 H   0  0  0  0  0  0  0  0  0  0  0  0
    1.7788    3.7244    3.8869 H   0  0  0  0  0  0  0  0  0  0  0  0
    3.1946    4.6069    3.3024 H   0  0  0  0  0  0  0  0  0  0  0  0
    1.8054    4.3463    2.2309 H   0  0  0  0  0  0  0  0  0  0  0  0
    5.0986    2.5210    3.7769 N   0  0  0  0  0  0  0  0  0  0  0  0
    6.0585    2.0838    4.7634 C   0  0  0  0  0  0  0  0  0  0  0  0
    5.3725    3.2709    3.1489 H   0  0  0  0  0  0  0  0  0  0  0  0
    5.9308    2.6702    5.6852 H   0  0  0  0  0  0  0  0  0  0  0  0
    5.8993    1.0176    4.9823 H   0  0  0  0  0  0  0  0  0  0  0  0
    7.0768    2.2301    4.3741 H   0  0  0  0  0  0  0  0  0  0  0  0
  1  3  1  0  0  0  0
  1  7  1  0  0  0  0
  1  2  2  0  0  0  0
 33 34  1  0  0  0  0
 34 42  1  0  0  0  0
 34 35  2  0  0  0  0
  8  9  1  0  0  0  0
  9 17  1  0  0  0  0
  9 10  2  0  0  0  0
 18 19  1  0  0  0  0
 19 32  1  0  0  0  0
 19 20  2  0  0  0  0
 22 23  1  0  0  0  0
 23 24  1  0  0  0  0
 23 25  2  0  0  0  0
 33 36  1  0  0  0  0
  8 11  1  0  0  0  0
 42 43  1  0  0  0  0
 21 22  1  0  0  0  0
 18 21  1  0  0  0  0
 32 33  1  0  0  0  0
  7  8  1  0  0  0  0
 17 18  1  0  0  0  0
  3  4  1  0  0  0  0
  3  5  1  0  0  0  0
  3  6  1  0  0  0  0
 36 39  1  0  0  0  0
 36 40  1  0  0  0  0
 36 41  1  0  0  0  0
 11 14  1  0  0  0  0
 11 15  1  0  0  0  0
 11 16  1  0  0  0  0
 43 45  1  0  0  0  0
 43 46  1  0  0  0  0
 43 47  1  0  0  0  0
 22 30  1  0  0  0  0
 22 31  1  0  0  0  0
 21 28  1  0  0  0  0
 21 29  1  0  0  0  0
 33 38  1  0  0  0  0
  8 13  1  0  0  0  0
 18 27  1  0  0  0  0
 42 44  1  0  0  0  0
  7 12  1  0  0  0  0
 32 37  1  0  0  0  0
 17 26  1  0  0  0  0
M  CHG  1  24  -1
M  END
$$$$

  -OEChem-05262214473D

 47 46  0     1  0  0  0  0  0999 V2000
    0.5093   -4.7265    3.0306 C   0  0  0  0  0  0  0  0  0  0  0  0
    1.2735   -4.4402    3.9448 O   0  0  0  0  0  0  0  0  0  0  0  0
   -0.4465   -5.8608    3.1982 C   0  0  0  0  0  0  0  0  0  0  0  0
   -0.0219   -6.8213    2.8645 H   0  0  0  0  0  0  0  0  0  0  0  0
   -0.7314   -6.0185    4.2509 H   0  0  0  0  0  0  0  0  0  0  0  0
   -1.3983   -5.7596    2.6527 H   0  0  0  0  0  0  0  0  0  0  0  0
    0.4252   -4.0886    1.8040 N   0  0  0  0  0  0  0  0  0  0  0  0
    1.2532   -2.9707    1.4349 C   0  0  2  0  0  0  0  0  0  0  0  0
    0.3395   -1.8293    1.0083 C   0  0  0  0  0  0  0  0  0  0  0  0
   -0.8136   -2.0027    0.6194 O   0  0  0  0  0  0  0  0  0  0  0  0
    2.2176   -3.3411    0.3189 C   0  0  0  0  0  0  0  0  0  0  0  0
   -0.2574   -4.4279    1.1287 H   0  0  0  0  0  0  0  0  0  0  0  0
    1.8087   -2.6785    2.3327 H   0  0  0  0  0  0  0  0  0  0  0  0
    1.6793   -3.6366   -0.5890 H   0  0  0  0  0  0  0  0  0  0  0  0
    2.8662   -2.4980    0.0589 H   0  0  0  0  0  0  0  0  0  0  0  0
    2.8538   -4.1816    0.6166 H   0  0  0  0  0  0  0  0  0  0  0  0
    0.9758   -0.5952    1.0708 N   0  0  0  0  0  0  0  0  0  0  0  0
    0.3258    0.6374    0.7059 C   0  0  2  0  0  0  0  0  0  0  0  0
    1.3340    1.7641    0.9051 C   0  0  0  0  0  0  0  0  0  0  0  0
    1.3533    2.7766    0.2081 O   0  0  0  0  0  0  0  0  0  0  0  0
   -0.9326    0.8928    1.5441 C   0  0  0  0  0  0  0  0  0  0  0  0
   -2.0568   -0.1068    1.2751 C   0  0  0  0  0  0  0  0  0  0  0  0
   -3.3363    0.0769    2.0978 C   0  0  0  0  0  0  0  0  0  0  0  0
   -3.2509    0.9560    3.0031 O   0  5  0  0  0  0  0  0  0  0  0  0
   -4.3183   -0.6466    1.7748 O   0  0  0  0  0  0  0  0  0  0  0  0
    1.9288   -0.5463    1.4242 H   0  0  0  0  0  0  0  0  0  0  0  0
    0.0871    0.5629   -0.3606 H   0  0  0  0  0  0  0  0  0  0  0  0
   -1.3002    1.9114    1.3686 H   0  0  0  0  0  0  0  0  0  0  0  0
   -0.6741    0.8450    2.6104 H   0  0  0  0  0  0  0  0  0  0  0  0
   -2.3124   -0.1045    0.2088 H   0  0  0  0  0  0  0  0  0  0  0  0
   -1.6862   -1.1140    1.5045 H   0  0  0  0  0  0  0  0  0  0  0  0
    2.2366    1.4829    1.9213 N   0  0  0  0  0  0  0  0  0  0  0  0
    3.3007    2.3851    2.2958 C   0  0  2  0  0  0  0  0  0  0  0  0
    4.3315    1.5930    3.0891 C   0  0  0  0  0  0  0  0  0  0  0  0
    4.0671    0.5443    3.6734 O   0  0  0  0  0  0  0  0  0  0  0  0
    2.7723    3.5567    3.1088 C   0  0  0  0  0  0  0  0  0  0  0  0
    2.1346    0.6251    2.4557 H   0  0  0  0  0  0  0  0  0  0  0  0
    3.7528    2.7446    1.3650 H   0  0  0  0  0  0  0  0  0  0  0  0
    2.3156    3.2161    4.0452 H   0  0  0  0  0  0  0  0  0  0  0  0
    3.5756    4.2545    3.3675 H   0  0  0  0  0  0  0  0  0  0  0  0
    2.0095    4.1077    2.5481 H   0  0  0  0  0  0  0  0  0  0  0  0
    5.5710    2.2173    3.1039 N   0  0  0  0  0  0  0  0  0  0  0  0
    6.7116    1.6697    3.8004 C   0  0  0  0  0  0  0  0  0  0  0  0
    5.7048    3.0748    2.5761 H   0  0  0  0  0  0  0  0  0  0  0  0
    6.7552    2.0859    4.8177 H   0  0  0  0  0  0  0  0  0  0  0  0
    6.6162    0.5752    3.8560 H   0  0  0  0  0  0  0  0  0  0  0  0
    7.6322    1.9304    3.2579 H   0  0  0  0  0  0  0  0  0  0  0  0
  1  3  1  0  0  0  0
  1  7  1  0  0  0  0
  1  2  2  0  0  0  0
 33 34  1  0  0  0  0
 34 42  1  0  0  0  0
 34 35  2  0  0  0  0
  8  9  1  0  0  0  0
  9 17  1  0  0  0  0
  9 10  2  0  0  0  0
 18 19  1  0  0  0  0
 19 32  1  0  0  0  0
 19 20  2  0  0  0  0
 22 23  1  0  0  0  0
 23 24  1  0  0  0  0
 23 25  2  0  0  0  0
 33 36  1  0  0  0  0
  8 11  1  0  0  0  0
 42 43  1  0  0  0  0
 21 22  1  0  0  0  0
 18 21  1  0  0  0  0
 32 33  1  0  0  0  0
  7  8  1  0  0  0  0
 17 18  1  0  0  0  0
  3  4  1  0  0  0  0
  3  5  1  0  0  0  0
  3  6  1  0  0  0  0
 36 39  1  0  0  0  0
 36 40  1  0  0  0  0
 36 41  1  0  0  0  0
 11 14  1  0  0  0  0
 11 15  1  0  0  0  0
 11 16  1  0  0  0  0
 43 45  1  0  0  0  0
 43 46  1  0  0  0  0
 43 47  1  0  0  0  0
 22 30  1  0  0  0  0
 22 31  1  0  0  0  0
 21 28  1  0  0  0  0
 21 29  1  0  0  0  0
 33 38  1  0  0  0  0
  8 13  1  0  0  0  0
 18 27  1  0  0  0  0
 42 44  1  0  0  0  0
  7 12  1  0  0  0  0
 32 37  1  0  0  0  0
 17 26  1  0  0  0  0
M  CHG  1  24  -1
M  END
$$$$

  -OEChem-05262214473D

 47 46  0     1  0  0  0  0  0999 V2000
    0.5093   -4.7265    3.0306 C   0  0  0  0  0  0  0  0  0  0  0  0
    1.2735   -4.4402    3.9448 O   0  0  0  0  0  0  0  0  0  0  0  0
   -0.4465   -5.8608    3.1982 C   0  0  0  0  0  0  0  0  0  0  0  0
   -0.0219   -6.8213    2.8645 H   0  0  0  0  0  0  0  0  0  0  0  0
   -0.7314   -6.0185    4.2509 H   0  0  0  0  0  0  0  0  0  0  0  0
   -1.3983   -5.7596    2.6527 H   0  0  0  0  0  0  0  0  0  0  0  0
    0.4252   -4.0886    1.8040 N   0  0  0  0  0  0  0  0  0  0  0  0
    1.2532   -2.9707    1.4349 C   0  0  2  0  0  0  0  0  0  0  0  0
    0.3395   -1.8293    1.0083 C   0  0  0  0  0  0  0  0  0  0  0  0
   -0.8136   -2.0027    0.6194 O   0  0  0  0  0  0  0  0  0  0  0  0
    2.2176   -3.3411    0.3189 C   0  0  0  0  0  0  0  0  0  0  0  0
   -0.2574   -4.4279    1.1287 H   0  0  0  0  0  0  0  0  0  0  0  0
    1.8087   -2.6785    2.3327 H   0  0  0  0  0  0  0  0  0  0  0  0
    1.6793   -3.6366   -0.5890 H   0  0  0  0  0  0  0  0  0  0  0  0
    2.8662   -2.4980    0.0589 H   0  0  0  0  0  0  0  0  0  0  0  0
    2.8538   -4.1816    0.6166 H   0  0  0  0  0  0  0  0  0  0  0  0
    0.9758   -0.5952    1.0708 N   0  0  0  0  0  0  0  0  0  0  0  0
    0.3258    0.6374    0.7059 C   0  0  2  0  0  0  0  0  0  0  0  0
    1.3340    1.7641    0.9051 C   0  0  0  0  0  0  0  0  0  0  0  0
    1.2002    2.8788    0.4044 O   0  0  0  0  0  0  0  0  0  0  0  0
   -0.9326    0.8928    1.5441 C   0  0  0  0  0  0  0  0  0  0  0  0
   -2.0568   -0.1068    1.2751 C   0  0  0  0  0  0  0  0  0  0  0  0
   -3.3363    0.0769    2.0978 C   0  0  0  0  0  0  0  0  0  0  0  0
   -3.2509    0.9560    3.0031 O   0  5  0  0  0  0  0  0  0  0  0  0
   -4.3183   -0.6466    1.7748 O   0  0  0  0  0  0  0  0  0  0  0  0
    1.9288   -0.5463    1.4242 H   0  0  0  0  0  0  0  0  0  0  0  0
    0.0871    0.5629   -0.3606 H   0  0  0  0  0  0  0  0  0  0  0  0
   -1.3002    1.9114    1.3686 H   0  0  0  0  0  0  0  0  0  0  0  0
   -0.6741    0.8450    2.6104 H   0  0  0  0  0  0  0  0  0  0  0  0
   -2.3124   -0.1045    0.2088 H   0  0  0  0  0  0  0  0  0  0  0  0
   -1.6862   -1.1140    1.5045 H   0  0  0  0  0  0  0  0  0  0  0  0
    2.4214    1.3622    1.6683 N   0  0  0  0  0  0  0  0  0  0  0  0
    3.5223    2.2414    1.9873 C   0  0  2  0  0  0  0  0  0  0  0  0
    4.7011    1.3804    2.4218 C   0  0  0  0  0  0  0  0  0  0  0  0
    4.5731    0.2365    2.8533 O   0  0  0  0  0  0  0  0  0  0  0  0
    3.1418    3.2317    3.0768 C   0  0  0  0  0  0  0  0  0  0  0  0
    2.4399    0.4229    2.0544 H   0  0  0  0  0  0  0  0  0  0  0  0
    3.7789    2.7743    1.0652 H   0  0  0  0  0  0  0  0  0  0  0  0
    2.8815    2.7162    4.0084 H   0  0  0  0  0  0  0  0  0  0  0  0
    3.9680    3.9158    3.2973 H   0  0  0  0  0  0  0  0  0  0  0  0
    2.2753    3.8298    2.7746 H   0  0  0  0  0  0  0  0  0  0  0  0
    5.9089    2.0551    2.3115 N   0  0  0  0  0  0  0  0  0  0  0  0
    7.1722    1.4565    2.6745 C   0  0  0  0  0  0  0  0  0  0  0  0
    5.9230    2.9946    1.9258 H   0  0  0  0  0  0  0  0  0  0  0  0
    7.4053    1.6979    3.7220 H   0  0  0  0  0  0  0  0  0  0  0  0
    7.1083    0.3649    2.5553 H   0  0  0  0  0  0  0  0  0  0  0  0
    7.9654    1.8508    2.0222 H   0  0  0  0  0  0  0  0  0  0  0  0
  1  3  1  0  0  0  0
  1  7  1  0  0  0  0
  1  2  2  0  0  0  0
 33 34  1  0  0  0  0
 34 42  1  0  0  0  0
 34 35  2  0  0  0  0
  8  9  1  0  0  0  0
  9 17  1  0  0  0  0
  9 10  2  0  0  0  0
 18 19  1  0  0  0  0
 19 32  1  0  0  0  0
 19 20  2  0  0  0  0
 22 23  1  0  0  0  0
 23 24  1  0  0  0  0
 23 25  2  0  0  0  0
 33 36  1  0  0  0  0
  8 11  1  0  0  0  0
 42 43  1  0  0  0  0
 21 22  1  0  0  0  0
 18 21  1  0  0  0  0
 32 33  1  0  0  0  0
  7  8  1  0  0  0  0
 17 18  1  0  0  0  0
  3  4  1  0  0  0  0
  3  5  1  0  0  0  0
  3  6  1  0  0  0  0
 36 39  1  0  0  0  0
 36 40  1  0  0  0  0
 36 41  1  0  0  0  0
 11 14  1  0  0  0  0
 11 15  1  0  0  0  0
 11 16  1  0  0  0  0
 43 45  1  0  0  0  0
 43 46  1  0  0  0  0
 43 47  1  0  0  0  0
 22 30  1  0  0  0  0
 22 31  1  0  0  0  0
 21 28  1  0  0  0  0
 21 29  1  0  0  0  0
 33 38  1  0  0  0  0
  8 13  1  0  0  0  0
 18 27  1  0  0  0  0
 42 44  1  0  0  0  0
  7 12  1  0  0  0  0
 32 37  1  0  0  0  0
 17 26  1  0  0  0  0
M  CHG  1  24  -1
M  END
$$$$

  -OEChem-05262214473D

 47 46  0     1  0  0  0  0  0999 V2000
    0.5093   -4.7265    3.0306 C   0  0  0  0  0  0  0  0  0  0  0  0
    1.2735   -4.4402    3.9448 O   0  0  0  0  0  0  0  0  0  0  0  0
   -0.4465   -5.8608    3.1982 C   0  0  0  0  0  0  0  0  0  0  0  0
   -0.0219   -6.8213    2.8645 H   0  0  0  0  0  0  0  0  0  0  0  0
   -0.7314   -6.0185    4.2509 H   0  0  0  0  0  0  0  0  0  0  0  0
   -1.3983   -5.7596    2.6527 H   0  0  0  0  0  0  0  0  0  0  0  0
    0.4252   -4.0886    1.8040 N   0  0  0  0  0  0  0  0  0  0  0  0
    1.2532   -2.9707    1.4349 C   0  0  2  0  0  0  0  0  0  0  0  0
    0.3395   -1.8293    1.0083 C   0  0  0  0  0  0  0  0  0  0  0  0
   -0.8136   -2.0027    0.6194 O   0  0  0  0  0  0  0  0  0  0  0  0
    2.2176   -3.3411    0.3189 C   0  0  0  0  0  0  0  0  0  0  0  0
   -0.2574   -4.4279    1.1287 H   0  0  0  0  0  0  0  0  0  0  0  0
    1.8087   -2.6785    2.3327 H   0  0  0  0  0  0  0  0  0  0  0  0
    1.6793   -3.6366   -0.5890 H   0  0  0  0  0  0  0  0  0  0  0  0
    2.8662   -2.4980    0.0589 H   0  0  0  0  0  0  0  0  0  0  0  0
    2.8538   -4.1816    0.6166 H   0  0  0  0  0  0  0  0  0  0  0  0
    0.9758   -0.5952    1.0708 N   0  0  0  0  0  0  0  0  0  0  0  0
    0.3258    0.6374    0.7059 C   0  0  2  0  0  0  0  0  0  0  0  0
    1.3340    1.7641    0.9051 C   0  0  0  0  0  0  0  0  0  0  0  0
    1.0864    2.9389    0.6407 O   0  0  0  0  0  0  0  0  0  0  0  0
   -0.9326    0.8928    1.5441 C   0  0  0  0  0  0  0  0  0  0  0  0
   -2.0568   -0.1068    1.2751 C   0  0  0  0  0  0  0  0  0  0  0  0
   -3.3363    0.0769    2.0978 C   0  0  0  0  0  0  0  0  0  0  0  0
   -3.2509    0.9560    3.0031 O   0  5  0  0  0  0  0  0  0  0  0  0
   -4.3183   -0.6466    1.7748 O   0  0  0  0  0  0  0  0  0  0  0  0
    1.9288   -0.5463    1.4242 H   0  0  0  0  0  0  0  0  0  0  0  0
    0.0871    0.5629   -0.3606 H   0  0  0  0  0  0  0  0  0  0  0  0
   -1.3002    1.9114    1.3686 H   0  0  0  0  0  0  0  0  0  0  0  0
   -0.6741    0.8450    2.6104 H   0  0  0  0  0  0  0  0  0  0  0  0
   -2.3124   -0.1045    0.2088 H   0  0  0  0  0  0  0  0  0  0  0  0
   -1.6862   -1.1140    1.5045 H   0  0  0  0  0  0  0  0  0  0  0  0
    2.5556    1.2952    1.3679 N   0  0  0  0  0  0  0  0  0  0  0  0
    3.6823    2.1628    1.6222 C   0  0  2  0  0  0  0  0  0  0  0  0
    4.9375    1.3016    1.6701 C   0  0  0  0  0  0  0  0  0  0  0  0
    4.9155    0.0966    1.9118 O   0  0  0  0  0  0  0  0  0  0  0  0
    3.5036    2.9358    2.9196 C   0  0  0  0  0  0  0  0  0  0  0  0
    2.6649    0.3066    1.5738 H   0  0  0  0  0  0  0  0  0  0  0  0
    3.7457    2.8551    0.7757 H   0  0  0  0  0  0  0  0  0  0  0  0
    3.4381    2.2588    3.7792 H   0  0  0  0  0  0  0  0  0  0  0  0
    4.3450    3.6139    3.0965 H   0  0  0  0  0  0  0  0  0  0  0  0
    2.5848    3.5316    2.8950 H   0  0  0  0  0  0  0  0  0  0  0  0
    6.0892    2.0453    1.4538 N   0  0  0  0  0  0  0  0  0  0  0  0
    7.4090    1.4589    1.4623 C   0  0  0  0  0  0  0  0  0  0  0  0
    6.0120    3.0358    1.2422 H   0  0  0  0  0  0  0  0  0  0  0  0
    7.8370    1.5325    2.4730 H   0  0  0  0  0  0  0  0  0  0  0  0
    7.3420    0.4009    1.1688 H   0  0  0  0  0  0  0  0  0  0  0  0
    8.0536    1.9965    0.7514 H   0  0  0  0  0  0  0  0  0  0  0  0
  1  3  1  0  0  0  0
  1  7  1  0  0  0  0
  1  2  2  0  0  0  0
 33 34  1  0  0  0  0
 34 42  1  0  0  0  0
 34 35  2  0  0  0  0
  8  9  1  0  0  0  0
  9 17  1  0  0  0  0
  9 10  2  0  0  0  0
 18 19  1  0  0  0  0
 19 32  1  0  0  0  0
 19 20  2  0  0  0  0
 22 23  1  0  0  0  0
 23 24  1  0  0  0  0
 23 25  2  0  0  0  0
 33 36  1  0  0  0  0
  8 11  1  0  0  0  0
 42 43  1  0  0  0  0
 21 22  1  0  0  0  0
 18 21  1  0  0  0  0
 32 33  1  0  0  0  0
  7  8  1  0  0  0  0
 17 18  1  0  0  0  0
  3  4  1  0  0  0  0
  3  5  1  0  0  0  0
  3  6  1  0  0  0  0
 36 39  1  0  0  0  0
 36 40  1  0  0  0  0
 36 41  1  0  0  0  0
 11 14  1  0  0  0  0
 11 15  1  0  0  0  0
 11 16  1  0  0  0  0
 43 45  1  0  0  0  0
 43 46  1  0  0  0  0
 43 47  1  0  0  0  0
 22 30  1  0  0  0  0
 22 31  1  0  0  0  0
 21 28  1  0  0  0  0
 21 29  1  0  0  0  0
 33 38  1  0  0  0  0
  8 13  1  0  0  0  0
 18 27  1  0  0  0  0
 42 44  1  0  0  0  0
  7 12  1  0  0  0  0
 32 37  1  0  0  0  0
 17 26  1  0  0  0  0
M  CHG  1  24  -1
M  END
$$$$

  -OEChem-05262214473D

 47 46  0     1  0  0  0  0  0999 V2000
    0.5093   -4.7265    3.0306 C   0  0  0  0  0  0  0  0  0  0  0  0
    1.2735   -4.4402    3.9448 O   0  0  0  0  0  0  0  0  0  0  0  0
   -0.4465   -5.8608    3.1982 C   0  0  0  0  0  0  0  0  0  0  0  0
   -0.0219   -6.8213    2.8645 H   0  0  0  0  0  0  0  0  0  0  0  0
   -0.7314   -6.0185    4.2509 H   0  0  0  0  0  0  0  0  0  0  0  0
   -1.3983   -5.7596    2.6527 H   0  0  0  0  0  0  0  0  0  0  0  0
    0.4252   -4.0886    1.8040 N   0  0  0  0  0  0  0  0  0  0  0  0
    1.2532   -2.9707    1.4349 C   0  0  2  0  0  0  0  0  0  0  0  0
    0.3395   -1.8293    1.0083 C   0  0  0  0  0  0  0  0  0  0  0  0
   -0.8136   -2.0027    0.6194 O   0  0  0  0  0  0  0  0  0  0  0  0
    2.2176   -3.3411    0.3189 C   0  0  0  0  0  0  0  0  0  0  0  0
   -0.2574   -4.4279    1.1287 H   0  0  0  0  0  0  0  0  0  0  0  0
    1.8087   -2.6785    2.3327 H   0  0  0  0  0  0  0  0  0  0  0  0
    1.6793   -3.6366   -0.5890 H   0  0  0  0  0  0  0  0  0  0  0  0
    2.8662   -2.4980    0.0589 H   0  0  0  0  0  0  0  0  0  0  0  0
    2.8538   -4.1816    0.6166 H   0  0  0  0  0  0  0  0  0  0  0  0
    0.9758   -0.5952    1.0708 N   0  0  0  0  0  0  0  0  0  0  0  0
    0.3258    0.6374    0.7059 C   0  0  2  0  0  0  0  0  0  0  0  0
    1.3340    1.7641    0.9051 C   0  0  0  0  0  0  0  0  0  0  0  0
    1.0197    2.9526    0.9011 O   0  0  0  0  0  0  0  0  0  0  0  0
   -0.9326    0.8928    1.5441 C   0  0  0  0  0  0  0  0  0  0  0  0
   -2.0568   -0.1068    1.2751 C   0  0  0  0  0  0  0  0  0  0  0  0
   -3.3363    0.0769    2.0978 C   0  0  0  0  0  0  0  0  0  0  0  0
   -3.2509    0.9560    3.0031 O   0  5  0  0  0  0  0  0  0  0  0  0
   -4.3183   -0.6466    1.7748 O   0  0  0  0  0  0  0  0  0  0  0  0
    1.9288   -0.5463    1.4242 H   0  0  0  0  0  0  0  0  0  0  0  0
    0.0871    0.5629   -0.3606 H   0  0  0  0  0  0  0  0  0  0  0  0
   -1.3002    1.9114    1.3686 H   0  0  0  0  0  0  0  0  0  0  0  0
   -0.6741    0.8450    2.6104 H   0  0  0  0  0  0  0  0  0  0  0  0
   -2.3124   -0.1045    0.2088 H   0  0  0  0  0  0  0  0  0  0  0  0
   -1.6862   -1.1140    1.5045 H   0  0  0  0  0  0  0  0  0  0  0  0
    2.6301    1.2865    1.0406 N   0  0  0  0  0  0  0  0  0  0  0  0
    3.7696    2.1547    1.2256 C   0  0  2  0  0  0  0  0  0  0  0  0
    5.0249    1.3622    0.8853 C   0  0  0  0  0  0  0  0  0  0  0  0
    5.0709    0.1341    0.9129 O   0  0  0  0  0  0  0  0  0  0  0  0
    3.8331    2.6891    2.6480 C   0  0  0  0  0  0  0  0  0  0  0  0
    2.7942    0.2841    1.0466 H   0  0  0  0  0  0  0  0  0  0  0  0
    3.6556    2.9817    0.5162 H   0  0  0  0  0  0  0  0  0  0  0  0
    3.9472    1.8749    3.3730 H   0  0  0  0  0  0  0  0  0  0  0  0
    4.6810    3.3695    2.7788 H   0  0  0  0  0  0  0  0  0  0  0  0
    2.9168    3.2334    2.9010 H   0  0  0  0  0  0  0  0  0  0  0  0
    6.0997    2.1888    0.5892 N   0  0  0  0  0  0  0  0  0  0  0  0
    7.4059    1.6766    0.2466 C   0  0  0  0  0  0  0  0  0  0  0  0
    5.9659    3.1956    0.5719 H   0  0  0  0  0  0  0  0  0  0  0  0
    8.0206    1.6010    1.1557 H   0  0  0  0  0  0  0  0  0  0  0  0
    7.3013    0.6809   -0.2089 H   0  0  0  0  0  0  0  0  0  0  0  0
    7.8909    2.3578   -0.4681 H   0  0  0  0  0  0  0  0  0  0  0  0
  1  3  1  0  0  0  0
  1  7  1  0  0  0  0
  1  2  2  0  0  0  0
 33 34  1  0  0  0  0
 34 42  1  0  0  0  0
 34 35  2  0  0  0  0
  8  9  1  0  0  0  0
  9 17  1  0  0  0  0
  9 10  2  0  0  0  0
 18 19  1  0  0  0  0
 19 32  1  0  0  0  0
 19 20  2  0  0  0  0
 22 23  1  0  0  0  0
 23 24  1  0  0  0  0
 23 25  2  0  0  0  0
 33 36  1  0  0  0  0
  8 11  1  0  0  0  0
 42 43  1  0  0  0  0
 21 22  1  0  0  0  0
 18 21  1  0  0  0  0
 32 33  1  0  0  0  0
  7  8  1  0  0  0  0
 17 18  1  0  0  0  0
  3  4  1  0  0  0  0
  3  5  1  0  0  0  0
  3  6  1  0  0  0  0
 36 39  1  0  0  0  0
 36 40  1  0  0  0  0
 36 41  1  0  0  0  0
 11 14  1  0  0  0  0
 11 15  1  0  0  0  0
 11 16  1  0  0  0  0
 43 45  1  0  0  0  0
 43 46  1  0  0  0  0
 43 47  1  0  0  0  0
 22 30  1  0  0  0  0
 22 31  1  0  0  0  0
 21 28  1  0  0  0  0
 21 29  1  0  0  0  0
 33 38  1  0  0  0  0
  8 13  1  0  0  0  0
 18 27  1  0  0  0  0
 42 44  1  0  0  0  0
  7 12  1  0  0  0  0
 32 37  1  0  0  0  0
 17 26  1  0  0  0  0
M  CHG  1  24  -1
M  END
$$$$

  -OEChem-05262214473D

 47 46  0     1  0  0  0  0  0999 V2000
    0.5093   -4.7265    3.0306 C   0  0  0  0  0  0  0  0  0  0  0  0
    1.2735   -4.4402    3.9448 O   0  0  0  0  0  0  0  0  0  0  0  0
   -0.4465   -5.8608    3.1982 C   0  0  0  0  0  0  0  0  0  0  0  0
   -0.0219   -6.8213    2.8645 H   0  0  0  0  0  0  0  0  0  0  0  0
   -0.7314   -6.0185    4.2509 H   0  0  0  0  0  0  0  0  0  0  0  0
   -1.3983   -5.7596    2.6527 H   0  0  0  0  0  0  0  0  0  0  0  0
    0.4252   -4.0886    1.8040 N   0  0  0  0  0  0  0  0  0  0  0  0
    1.2532   -2.9707    1.4349 C   0  0  2  0  0  0  0  0  0  0  0  0
    0.3395   -1.8293    1.0083 C   0  0  0  0  0  0  0  0  0  0  0  0
   -0.8136   -2.0027    0.6194 O   0  0  0  0  0  0  0  0  0  0  0  0
    2.2176   -3.3411    0.3189 C   0  0  0  0  0  0  0  0  0  0  0  0
   -0.2574   -4.4279    1.1287 H   0  0  0  0  0  0  0  0  0  0  0  0
    1.8087   -2.6785    2.3327 H   0  0  0  0  0  0  0  0  0  0  0  0
    1.6793   -3.6366   -0.5890 H   0  0  0  0  0  0  0  0  0  0  0  0
    2.8662   -2.4980    0.0589 H   0  0  0  0  0  0  0  0  0  0  0  0
    2.8538   -4.1816    0.6166 H   0  0  0  0  0  0  0  0  0  0  0  0
    0.9758   -0.5952    1.0708 N   0  0  0  0  0  0  0  0  0  0  0  0
    0.3258    0.6374    0.7059 C   0  0  2  0  0  0  0  0  0  0  0  0
    1.3340    1.7641    0.9051 C   0  0  0  0  0  0  0  0  0  0  0  0
    1.0045    2.9190    1.1677 O   0  0  0  0  0  0  0  0  0  0  0  0
   -0.9326    0.8928    1.5441 C   0  0  0  0  0  0  0  0  0  0  0  0
   -2.0568   -0.1068    1.2751 C   0  0  0  0  0  0  0  0  0  0  0  0
   -3.3363    0.0769    2.0978 C   0  0  0  0  0  0  0  0  0  0  0  0
   -3.2509    0.9560    3.0031 O   0  5  0  0  0  0  0  0  0  0  0  0
   -4.3183   -0.6466    1.7748 O   0  0  0  0  0  0  0  0  0  0  0  0
    1.9288   -0.5463    1.4242 H   0  0  0  0  0  0  0  0  0  0  0  0
    0.0871    0.5629   -0.3606 H   0  0  0  0  0  0  0  0  0  0  0  0
   -1.3002    1.9114    1.3686 H   0  0  0  0  0  0  0  0  0  0  0  0
   -0.6741    0.8450    2.6104 H   0  0  0  0  0  0  0  0  0  0  0  0
   -2.3124   -0.1045    0.2088 H   0  0  0  0  0  0  0  0  0  0  0  0
   -1.6862   -1.1140    1.5045 H   0  0  0  0  0  0  0  0  0  0  0  0
    2.6397    1.3365    0.7087 N   0  0  0  0  0  0  0  0  0  0  0  0
    3.7784    2.2178    0.8244 C   0  0  2  0  0  0  0  0  0  0  0  0
    4.9571    1.5580    0.1210 C   0  0  0  0  0  0  0  0  0  0  0  0
    5.0287    0.3466   -0.0752 O   0  0  0  0  0  0  0  0  0  0  0  0
    4.1076    2.5083    2.2804 C   0  0  0  0  0  0  0  0  0  0  0  0
    2.8190    0.3569    0.5088 H   0  0  0  0  0  0  0  0  0  0  0  0
    3.5147    3.1452    0.3044 H   0  0  0  0  0  0  0  0  0  0  0  0
    4.3744    1.5909    2.8177 H   0  0  0  0  0  0  0  0  0  0  0  0
    4.9530    3.1990    2.3658 H   0  0  0  0  0  0  0  0  0  0  0  0
    3.2488    2.9555    2.7924 H   0  0  0  0  0  0  0  0  0  0  0  0
    5.9396    2.4757   -0.2235 N   0  0  0  0  0  0  0  0  0  0  0  0
    7.1631    2.0948   -0.8898 C   0  0  0  0  0  0  0  0  0  0  0  0
    5.7878    3.4630   -0.0394 H   0  0  0  0  0  0  0  0  0  0  0  0
    7.9438    1.8988   -0.1401 H   0  0  0  0  0  0  0  0  0  0  0  0
    6.9891    1.1857   -1.4841 H   0  0  0  0  0  0  0  0  0  0  0  0
    7.4883    2.9098   -1.5531 H   0  0  0  0  0  0  0  0  0  0  0  0
  1  3  1  0  0  0  0
  1  7  1  0  0  0  0
  1  2  2  0  0  0  0
 33 34  1  0  0  0  0
 34 42  1  0  0  0  0
 34 35  2  0  0  0  0
  8  9  1  0  0  0  0
  9 17  1  0  0  0  0
  9 10  2  0  0  0  0
 18 19  1  0  0  0  0
 19 32  1  0  0  0  0
 19 20  2  0  0  0  0
 22 23  1  0  0  0  0
 23 24  1  0  0  0  0
 23 25  2  0  0  0  0
 33 36  1  0  0  0  0
  8 11  1  0  0  0  0
 42 43  1  0  0  0  0
 21 22  1  0  0  0  0
 18 21  1  0  0  0  0
 32 33  1  0  0  0  0
  7  8  1  0  0  0  0
 17 18  1  0  0  0  0
  3  4  1  0  0  0  0
  3  5  1  0  0  0  0
  3  6  1  0  0  0  0
 36 39  1  0  0  0  0
 36 40  1  0  0  0  0
 36 41  1  0  0  0  0
 11 14  1  0  0  0  0
 11 15  1  0  0  0  0
 11 16  1  0  0  0  0
 43 45  1  0  0  0  0
 43 46  1  0  0  0  0
 43 47  1  0  0  0  0
 22 30  1  0  0  0  0
 22 31  1  0  0  0  0
 21 28  1  0  0  0  0
 21 29  1  0  0  0  0
 33 38  1  0  0  0  0
  8 13  1  0  0  0  0
 18 27  1  0  0  0  0
 42 44  1  0  0  0  0
  7 12  1  0  0  0  0
 32 37  1  0  0  0  0
 17 26  1  0  0  0  0
M  CHG  1  24  -1
M  END
$$$$

  -OEChem-05262214473D

 47 46  0     1  0  0  0  0  0999 V2000
    0.5093   -4.7265    3.0306 C   0  0  0  0  0  0  0  0  0  0  0  0
    1.2735   -4.4402    3.9448 O   0  0  0  0  0  0  0  0  0  0  0  0
   -0.4465   -5.8608    3.1982 C   0  0  0  0  0  0  0  0  0  0  0  0
   -0.0219   -6.8213    2.8645 H   0  0  0  0  0  0  0  0  0  0  0  0
   -0.7314   -6.0185    4.2509 H   0  0  0  0  0  0  0  0  0  0  0  0
   -1.3983   -5.7596    2.6527 H   0  0  0  0  0  0  0  0  0  0  0  0
    0.4252   -4.0886    1.8040 N   0  0  0  0  0  0  0  0  0  0  0  0
    1.2532   -2.9707    1.4349 C   0  0  2  0  0  0  0  0  0  0  0  0
    0.3395   -1.8293    1.0083 C   0  0  0  0  0  0  0  0  0  0  0  0
   -0.8136   -2.0027    0.6194 O   0  0  0  0  0  0  0  0  0  0  0  0
    2.2176   -3.3411    0.3189 C   0  0  0  0  0  0  0  0  0  0  0  0
   -0.2574   -4.4279    1.1287 H   0  0  0  0  0  0  0  0  0  0  0  0
    1.8087   -2.6785    2.3327 H   0  0  0  0  0  0  0  0  0  0  0  0
    1.6793   -3.6366   -0.5890 H   0  0  0  0  0  0  0  0  0  0  0  0
    2.8662   -2.4980    0.0589 H   0  0  0  0  0  0  0  0  0  0  0  0
    2.8538   -4.1816    0.6166 H   0  0  0  0  0  0  0  0  0  0  0  0
    0.9758   -0.5952    1.0708 N   0  0  0  0  0  0  0  0  0  0  0  0
    0.3258    0.6374    0.7059 C   0  0  2  0  0  0  0  0  0  0  0  0
    1.3340    1.7641    0.9051 C   0  0  0  0  0  0  0  0  0  0  0  0
    1.0420    2.8405    1.4223 O   0  0  0  0  0  0  0  0  0  0  0  0
   -0.9326    0.8928    1.5441 C   0  0  0  0  0  0  0  0  0  0  0  0
   -2.0568   -0.1068    1.2751 C   0  0  0  0  0  0  0  0  0  0  0  0
   -3.3363    0.0769    2.0978 C   0  0  0  0  0  0  0  0  0  0  0  0
   -3.2509    0.9560    3.0031 O   0  5  0  0  0  0  0  0  0  0  0  0
   -4.3183   -0.6466    1.7748 O   0  0  0  0  0  0  0  0  0  0  0  0
    1.9288   -0.5463    1.4242 H   0  0  0  0  0  0  0  0  0  0  0  0
    0.0871    0.5629   -0.3606 H   0  0  0  0  0  0  0  0  0  0  0  0
   -1.3002    1.9114    1.3686 H   0  0  0  0  0  0  0  0  0  0  0  0
   -0.6741    0.8450    2.6104 H   0  0  0  0  0  0  0  0  0  0  0  0
   -2.3124   -0.1045    0.2088 H   0  0  0  0  0  0  0  0  0  0  0  0
   -1.6862   -1.1140    1.5045 H   0  0  0  0  0  0  0  0  0  0  0  0
    2.5839    1.4419    0.3949 N   0  0  0  0  0  0  0  0  0  0  0  0
    3.7081    2.3476    0.4460 C   0  0  2  0  0  0  0  0  0  0  0  0
    4.7389    1.8756   -0.5709 C   0  0  0  0  0  0  0  0  0  0  0  0
    4.7918    0.7194   -0.9852 O   0  0  0  0  0  0  0  0  0  0  0  0
    4.3087    2.4060    1.8419 C   0  0  0  0  0  0  0  0  0  0  0  0
    2.7378    0.5201   -0.0029 H   0  0  0  0  0  0  0  0  0  0  0  0
    3.3325    3.3347    0.1548 H   0  0  0  0  0  0  0  0  0  0  0  0
    4.6904    1.4260    2.1509 H   0  0  0  0  0  0  0  0  0  0  0  0
    5.1426    3.1143    1.8858 H   0  0  0  0  0  0  0  0  0  0  0  0
    3.5581    2.7170    2.5765 H   0  0  0  0  0  0  0  0  0  0  0  0
    5.6199    2.8865   -0.9287 N   0  0  0  0  0  0  0  0  0  0  0  0
    6.6971    2.6850   -1.8695 C   0  0  0  0  0  0  0  0  0  0  0  0
    5.4898    3.8199   -0.5500 H   0  0  0  0  0  0  0  0  0  0  0  0
    7.6118    2.4056   -1.3261 H   0  0  0  0  0  0  0  0  0  0  0  0
    6.4267    1.8809   -2.5697 H   0  0  0  0  0  0  0  0  0  0  0  0
    6.8733    3.6151   -2.4297 H   0  0  0  0  0  0  0  0  0  0  0  0
  1  3  1  0  0  0  0
  1  7  1  0  0  0  0
  1  2  2  0  0  0  0
 33 34  1  0  0  0  0
 34 42  1  0  0  0  0
 34 35  2  0  0  0  0
  8  9  1  0  0  0  0
  9 17  1  0  0  0  0
  9 10  2  0  0  0  0
 18 19  1  0  0  0  0
 19 32  1  0  0  0  0
 19 20  2  0  0  0  0
 22 23  1  0  0  0  0
 23 24  1  0  0  0  0
 23 25  2  0  0  0  0
 33 36  1  0  0  0  0
  8 11  1  0  0  0  0
 42 43  1  0  0  0  0
 21 22  1  0  0  0  0
 18 21  1  0  0  0  0
 32 33  1  0  0  0  0
  7  8  1  0  0  0  0
 17 18  1  0  0  0  0
  3  4  1  0  0  0  0
  3  5  1  0  0  0  0
  3  6  1  0  0  0  0
 36 39  1  0  0  0  0
 36 40  1  0  0  0  0
 36 41  1  0  0  0  0
 11 14  1  0  0  0  0
 11 15  1  0  0  0  0
 11 16  1  0  0  0  0
 43 45  1  0  0  0  0
 43 46  1  0  0  0  0
 43 47  1  0  0  0  0
 22 30  1  0  0  0  0
 22 31  1  0  0  0  0
 21 28  1  0  0  0  0
 21 29  1  0  0  0  0
 33 38  1  0  0  0  0
  8 13  1  0  0  0  0
 18 27  1  0  0  0  0
 42 44  1  0  0  0  0
  7 12  1  0  0  0  0
 32 37  1  0  0  0  0
 17 26  1  0  0  0  0
M  CHG  1  24  -1
M  END
$$$$

  -OEChem-05262214473D

 47 46  0     1  0  0  0  0  0999 V2000
    0.5093   -4.7265    3.0306 C   0  0  0  0  0  0  0  0  0  0  0  0
    1.2735   -4.4402    3.9448 O   0  0  0  0  0  0  0  0  0  0  0  0
   -0.4465   -5.8608    3.1982 C   0  0  0  0  0  0  0  0  0  0  0  0
   -0.0219   -6.8213    2.8645 H   0  0  0  0  0  0  0  0  0  0  0  0
   -0.7314   -6.0185    4.2509 H   0  0  0  0  0  0  0  0  0  0  0  0
   -1.3983   -5.7596    2.6527 H   0  0  0  0  0  0  0  0  0  0  0  0
    0.4252   -4.0886    1.8040 N   0  0  0  0  0  0  0  0  0  0  0  0
    1.2532   -2.9707    1.4349 C   0  0  2  0  0  0  0  0  0  0  0  0
    0.3395   -1.8293    1.0083 C   0  0  0  0  0  0  0  0  0  0  0  0
   -0.8136   -2.0027    0.6194 O   0  0  0  0  0  0  0  0  0  0  0  0
    2.2176   -3.3411    0.3189 C   0  0  0  0  0  0  0  0  0  0  0  0
   -0.2574   -4.4279    1.1287 H   0  0  0  0  0  0  0  0  0  0  0  0
    1.8087   -2.6785    2.3327 H   0  0  0  0  0  0  0  0  0  0  0  0
    1.6793   -3.6366   -0.5890 H   0  0  0  0  0  0  0  0  0  0  0  0
    2.8662   -2.4980    0.0589 H   0  0  0  0  0  0  0  0  0  0  0  0
    2.8538   -4.1816    0.6166 H   0  0  0  0  0  0  0  0  0  0  0  0
    0.9758   -0.5952    1.0708 N   0  0  0  0  0  0  0  0  0  0  0  0
    0.3258    0.6374    0.7059 C   0  0  2  0  0  0  0  0  0  0  0  0
    1.3340    1.7641    0.9051 C   0  0  0  0  0  0  0  0  0  0  0  0
    1.1296    2.7223    1.6477 O   0  0  0  0  0  0  0  0  0  0  0  0
   -0.9326    0.8928    1.5441 C   0  0  0  0  0  0  0  0  0  0  0  0
   -2.0568   -0.1068    1.2751 C   0  0  0  0  0  0  0  0  0  0  0  0
   -3.3363    0.0769    2.0978 C   0  0  0  0  0  0  0  0  0  0  0  0
   -3.2509    0.9560    3.0031 O   0  5  0  0  0  0  0  0  0  0  0  0
   -4.3183   -0.6466    1.7748 O   0  0  0  0  0  0  0  0  0  0  0  0
    1.9288   -0.5463    1.4242 H   0  0  0  0  0  0  0  0  0  0  0  0
    0.0871    0.5629   -0.3606 H   0  0  0  0  0  0  0  0  0  0  0  0
   -1.3002    1.9114    1.3686 H   0  0  0  0  0  0  0  0  0  0  0  0
   -0.6741    0.8450    2.6104 H   0  0  0  0  0  0  0  0  0  0  0  0
   -2.3124   -0.1045    0.2088 H   0  0  0  0  0  0  0  0  0  0  0  0
   -1.6862   -1.1140    1.5045 H   0  0  0  0  0  0  0  0  0  0  0  0
    2.4664    1.5956    0.1205 N   0  0  0  0  0  0  0  0  0  0  0  0
    3.5634    2.5354    0.1161 C   0  0  2  0  0  0  0  0  0  0  0  0
    4.3851    2.2933   -1.1431 C   0  0  0  0  0  0  0  0  0  0  0  0
    4.3764    1.2273   -1.7551 O   0  0  0  0  0  0  0  0  0  0  0  0
    4.4225    2.3889    1.3624 C   0  0  0  0  0  0  0  0  0  0  0  0
    2.5559    0.7626   -0.4538 H   0  0  0  0  0  0  0  0  0  0  0  0
    3.1216    3.5371    0.0776 H   0  0  0  0  0  0  0  0  0  0  0  0
    4.8737    1.3915    1.4183 H   0  0  0  0  0  0  0  0  0  0  0  0
    5.2368    3.1210    1.3713 H   0  0  0  0  0  0  0  0  0  0  0  0
    3.8236    2.5340    2.2679 H   0  0  0  0  0  0  0  0  0  0  0  0
    5.1624    3.3931   -1.4786 N   0  0  0  0  0  0  0  0  0  0  0  0
    6.0397    3.4070   -2.6258 C   0  0  0  0  0  0  0  0  0  0  0  0
    5.0923    4.2420   -0.9252 H   0  0  0  0  0  0  0  0  0  0  0  0
    7.0471    3.0869   -2.3215 H   0  0  0  0  0  0  0  0  0  0  0  0
    5.6523    2.7191   -3.3918 H   0  0  0  0  0  0  0  0  0  0  0  0
    6.0877    4.4256   -3.0382 H   0  0  0  0  0  0  0  0  0  0  0  0
  1  3  1  0  0  0  0
  1  7  1  0  0  0  0
  1  2  2  0  0  0  0
 33 34  1  0  0  0  0
 34 42  1  0  0  0  0
 34 35  2  0  0  0  0
  8  9  1  0  0  0  0
  9 17  1  0  0  0  0
  9 10  2  0  0  0  0
 18 19  1  0  0  0  0
 19 32  1  0  0  0  0
 19 20  2  0  0  0  0
 22 23  1  0  0  0  0
 23 24  1  0  0  0  0
 23 25  2  0  0  0  0
 33 36  1  0  0  0  0
  8 11  1  0  0  0  0
 42 43  1  0  0  0  0
 21 22  1  0  0  0  0
 18 21  1  0  0  0  0
 32 33  1  0  0  0  0
  7  8  1  0  0  0  0
 17 18  1  0  0  0  0
  3  4  1  0  0  0  0
  3  5  1  0  0  0  0
  3  6  1  0  0  0  0
 36 39  1  0  0  0  0
 36 40  1  0  0  0  0
 36 41  1  0  0  0  0
 11 14  1  0  0  0  0
 11 15  1  0  0  0  0
 11 16  1  0  0  0  0
 43 45  1  0  0  0  0
 43 46  1  0  0  0  0
 43 47  1  0  0  0  0
 22 30  1  0  0  0  0
 22 31  1  0  0  0  0
 21 28  1  0  0  0  0
 21 29  1  0  0  0  0
 33 38  1  0  0  0  0
  8 13  1  0  0  0  0
 18 27  1  0  0  0  0
 42 44  1  0  0  0  0
  7 12  1  0  0  0  0
 32 37  1  0  0  0  0
 17 26  1  0  0  0  0
M  CHG  1  24  -1
M  END
$$$$

  -OEChem-05262214473D

 47 46  0     1  0  0  0  0  0999 V2000
    0.5093   -4.7265    3.0306 C   0  0  0  0  0  0  0  0  0  0  0  0
    1.2735   -4.4402    3.9448 O   0  0  0  0  0  0  0  0  0  0  0  0
   -0.4465   -5.8608    3.1982 C   0  0  0  0  0  0  0  0  0  0  0  0
   -0.0219   -6.8213    2.8645 H   0  0  0  0  0  0  0  0  0  0  0  0
   -0.7314   -6.0185    4.2509 H   0  0  0  0  0  0  0  0  0  0  0  0
   -1.3983   -5.7596    2.6527 H   0  0  0  0  0  0  0  0  0  0  0  0
    0.4252   -4.0886    1.8040 N   0  0  0  0  0  0  0  0  0  0  0  0
    1.2532   -2.9707    1.4349 C   0  0  2  0  0  0  0  0  0  0  0  0
    0.3395   -1.8293    1.0083 C   0  0  0  0  0  0  0  0  0  0  0  0
   -0.8136   -2.0027    0.6194 O   0  0  0  0  0  0  0  0  0  0  0  0
    2.2176   -3.3411    0.3189 C   0  0  0  0  0  0  0  0  0  0  0  0
   -0.2574   -4.4279    1.1287 H   0  0  0  0  0  0  0  0  0  0  0  0
    1.8087   -2.6785    2.3327 H   0  0  0  0  0  0  0  0  0  0  0  0
    1.6793   -3.6366   -0.5890 H   0  0  0  0  0  0  0  0  0  0  0  0
    2.8662   -2.4980    0.0589 H   0  0  0  0  0  0  0  0  0  0  0  0
    2.8538   -4.1816    0.6166 H   0  0  0  0  0  0  0  0  0  0  0  0
    0.9758   -0.5952    1.0708 N   0  0  0  0  0  0  0  0  0  0  0  0
    0.3258    0.6374    0.7059 C   0  0  2  0  0  0  0  0  0  0  0  0
    1.3340    1.7641    0.9051 C   0  0  0  0  0  0  0  0  0  0  0  0
    1.2612    2.5725    1.8284 O   0  0  0  0  0  0  0  0  0  0  0  0
   -0.9326    0.8928    1.5441 C   0  0  0  0  0  0  0  0  0  0  0  0
   -2.0568   -0.1068    1.2751 C   0  0  0  0  0  0  0  0  0  0  0  0
   -3.3363    0.0769    2.0978 C   0  0  0  0  0  0  0  0  0  0  0  0
   -3.2509    0.9560    3.0031 O   0  5  0  0  0  0  0  0  0  0  0  0
   -4.3183   -0.6466    1.7748 O   0  0  0  0  0  0  0  0  0  0  0  0
    1.9288   -0.5463    1.4242 H   0  0  0  0  0  0  0  0  0  0  0  0
    0.0871    0.5629   -0.3606 H   0  0  0  0  0  0  0  0  0  0  0  0
   -1.3002    1.9114    1.3686 H   0  0  0  0  0  0  0  0  0  0  0  0
   -0.6741    0.8450    2.6104 H   0  0  0  0  0  0  0  0  0  0  0  0
   -2.3124   -0.1045    0.2088 H   0  0  0  0  0  0  0  0  0  0  0  0
   -1.6862   -1.1140    1.5045 H   0  0  0  0  0  0  0  0  0  0  0  0
    2.2952    1.7870   -0.0958 N   0  0  0  0  0  0  0  0  0  0  0  0
    3.3542    2.7684   -0.1427 C   0  0  2  0  0  0  0  0  0  0  0  0
    3.9198    2.7828   -1.5567 C   0  0  0  0  0  0  0  0  0  0  0  0
    3.8107    1.8355   -2.3325 O   0  0  0  0  0  0  0  0  0  0  0  0
    4.4413    2.4583    0.8745 C   0  0  0  0  0  0  0  0  0  0  0  0
    2.2858    1.0678   -0.8130 H   0  0  0  0  0  0  0  0  0  0  0  0
    2.8962    3.7387    0.0779 H   0  0  0  0  0  0  0  0  0  0  0  0
    4.9119    1.4897    0.6697 H   0  0  0  0  0  0  0  0  0  0  0  0
    5.2291    3.2186    0.8575 H   0  0  0  0  0  0  0  0  0  0  0  0
    4.0272    2.4189    1.8878 H   0  0  0  0  0  0  0  0  0  0  0  0
    4.5982    3.9610   -1.8354 N   0  0  0  0  0  0  0  0  0  0  0  0
    5.2357    4.2115   -3.1070 C   0  0  0  0  0  0  0  0  0  0  0  0
    4.6223    4.7004   -1.1394 H   0  0  0  0  0  0  0  0  0  0  0  0
    6.2884    3.8961   -3.0584 H   0  0  0  0  0  0  0  0  0  0  0  0
    4.7188    3.6433   -3.8944 H   0  0  0  0  0  0  0  0  0  0  0  0
    5.1852    5.2860   -3.3370 H   0  0  0  0  0  0  0  0  0  0  0  0
  1  3  1  0  0  0  0
  1  7  1  0  0  0  0
  1  2  2  0  0  0  0
 33 34  1  0  0  0  0
 34 42  1  0  0  0  0
 34 35  2  0  0  0  0
  8  9  1  0  0  0  0
  9 17  1  0  0  0  0
  9 10  2  0  0  0  0
 18 19  1  0  0  0  0
 19 32  1  0  0  0  0
 19 20  2  0  0  0  0
 22 23  1  0  0  0  0
 23 24  1  0  0  0  0
 23 25  2  0  0  0  0
 33 36  1  0  0  0  0
  8 11  1  0  0  0  0
 42 43  1  0  0  0  0
 21 22  1  0  0  0  0
 18 21  1  0  0  0  0
 32 33  1  0  0  0  0
  7  8  1  0  0  0  0
 17 18  1  0  0  0  0
  3  4  1  0  0  0  0
  3  5  1  0  0  0  0
  3  6  1  0  0  0  0
 36 39  1  0  0  0  0
 36 40  1  0  0  0  0
 36 41  1  0  0  0  0
 11 14  1  0  0  0  0
 11 15  1  0  0  0  0
 11 16  1  0  0  0  0
 43 45  1  0  0  0  0
 43 46  1  0  0  0  0
 43 47  1  0  0  0  0
 22 30  1  0  0  0  0
 22 31  1  0  0  0  0
 21 28  1  0  0  0  0
 21 29  1  0  0  0  0
 33 38  1  0  0  0  0
  8 13  1  0  0  0  0
 18 27  1  0  0  0  0
 42 44  1  0  0  0  0
  7 12  1  0  0  0  0
 32 37  1  0  0  0  0
 17 26  1  0  0  0  0
M  CHG  1  24  -1
M  END
$$$$

  -OEChem-05262214473D

 47 46  0     1  0  0  0  0  0999 V2000
    0.5093   -4.7265    3.0306 C   0  0  0  0  0  0  0  0  0  0  0  0
    1.2735   -4.4402    3.9448 O   0  0  0  0  0  0  0  0  0  0  0  0
   -0.4465   -5.8608    3.1982 C   0  0  0  0  0  0  0  0  0  0  0  0
   -0.0219   -6.8213    2.8645 H   0  0  0  0  0  0  0  0  0  0  0  0
   -0.7314   -6.0185    4.2509 H   0  0  0  0  0  0  0  0  0  0  0  0
   -1.3983   -5.7596    2.6527 H   0  0  0  0  0  0  0  0  0  0  0  0
    0.4252   -4.0886    1.8040 N   0  0  0  0  0  0  0  0  0  0  0  0
    1.2532   -2.9707    1.4349 C   0  0  2  0  0  0  0  0  0  0  0  0
    0.3395   -1.8293    1.0083 C   0  0  0  0  0  0  0  0  0  0  0  0
   -0.8136   -2.0027    0.6194 O   0  0  0  0  0  0  0  0  0  0  0  0
    2.2176   -3.3411    0.3189 C   0  0  0  0  0  0  0  0  0  0  0  0
   -0.2574   -4.4279    1.1287 H   0  0  0  0  0  0  0  0  0  0  0  0
    1.8087   -2.6785    2.3327 H   0  0  0  0  0  0  0  0  0  0  0  0
    1.6793   -3.6366   -0.5890 H   0  0  0  0  0  0  0  0  0  0  0  0
    2.8662   -2.4980    0.0589 H   0  0  0  0  0  0  0  0  0  0  0  0
    2.8538   -4.1816    0.6166 H   0  0  0  0  0  0  0  0  0  0  0  0
    0.9758   -0.5952    1.0708 N   0  0  0  0  0  0  0  0  0  0  0  0
    0.3258    0.6374    0.7059 C   0  0  2  0  0  0  0  0  0  0  0  0
    1.3340    1.7641    0.9051 C   0  0  0  0  0  0  0  0  0  0  0  0
    1.4280    2.4014    1.9521 O   0  0  0  0  0  0  0  0  0  0  0  0
   -0.9326    0.8928    1.5441 C   0  0  0  0  0  0  0  0  0  0  0  0
   -2.0568   -0.1068    1.2751 C   0  0  0  0  0  0  0  0  0  0  0  0
   -3.3363    0.0769    2.0978 C   0  0  0  0  0  0  0  0  0  0  0  0
   -3.2509    0.9560    3.0031 O   0  5  0  0  0  0  0  0  0  0  0  0
   -4.3183   -0.6466    1.7748 O   0  0  0  0  0  0  0  0  0  0  0  0
    1.9288   -0.5463    1.4242 H   0  0  0  0  0  0  0  0  0  0  0  0
    0.0871    0.5629   -0.3606 H   0  0  0  0  0  0  0  0  0  0  0  0
   -1.3002    1.9114    1.3686 H   0  0  0  0  0  0  0  0  0  0  0  0
   -0.6741    0.8450    2.6104 H   0  0  0  0  0  0  0  0  0  0  0  0
   -2.3124   -0.1045    0.2088 H   0  0  0  0  0  0  0  0  0  0  0  0
   -1.6862   -1.1140    1.5045 H   0  0  0  0  0  0  0  0  0  0  0  0
    2.0820    2.0031   -0.2393 N   0  0  0  0  0  0  0  0  0  0  0  0
    3.0948    3.0306   -0.3128 C   0  0  2  0  0  0  0  0  0  0  0  0
    3.3747    3.3106   -1.7834 C   0  0  0  0  0  0  0  0  0  0  0  0
    3.1333    2.5027   -2.6779 O   0  0  0  0  0  0  0  0  0  0  0  0
    4.3639    2.6095    0.4115 C   0  0  0  0  0  0  0  0  0  0  0  0
    1.9459    1.4149   -1.0561 H   0  0  0  0  0  0  0  0  0  0  0  0
    2.6717    3.9258    0.1559 H   0  0  0  0  0  0  0  0  0  0  0  0
    4.8022    1.7140   -0.0439 H   0  0  0  0  0  0  0  0  0  0  0  0
    5.1202    3.4006    0.3794 H   0  0  0  0  0  0  0  0  0  0  0  0
    4.1551    2.3798    1.4620 H   0  0  0  0  0  0  0  0  0  0  0  0
    3.9657    4.5517   -1.9751 N   0  0  0  0  0  0  0  0  0  0  0  0
    4.3398    5.0438   -3.2804 C   0  0  0  0  0  0  0  0  0  0  0  0
    4.1118    5.1640   -1.1780 H   0  0  0  0  0  0  0  0  0  0  0  0
    5.3872    4.7782   -3.4867 H   0  0  0  0  0  0  0  0  0  0  0  0
    3.6897    4.5905   -4.0432 H   0  0  0  0  0  0  0  0  0  0  0  0
    4.2272    6.1377   -3.3058 H   0  0  0  0  0  0  0  0  0  0  0  0
  1  3  1  0  0  0  0
  1  7  1  0  0  0  0
  1  2  2  0  0  0  0
 33 34  1  0  0  0  0
 34 42  1  0  0  0  0
 34 35  2  0  0  0  0
  8  9  1  0  0  0  0
  9 17  1  0  0  0  0
  9 10  2  0  0  0  0
 18 19  1  0  0  0  0
 19 32  1  0  0  0  0
 19 20  2  0  0  0  0
 22 23  1  0  0  0  0
 23 24  1  0  0  0  0
 23 25  2  0  0  0  0
 33 36  1  0  0  0  0
  8 11  1  0  0  0  0
 42 43  1  0  0  0  0
 21 22  1  0  0  0  0
 18 21  1  0  0  0  0
 32 33  1  0  0  0  0
  7  8  1  0  0  0  0
 17 18  1  0  0  0  0
  3  4  1  0  0  0  0
  3  5  1  0  0  0  0
  3  6  1  0  0  0  0
 36 39  1  0  0  0  0
 36 40  1  0  0  0  0
 36 41  1  0  0  0  0
 11 14  1  0  0  0  0
 11 15  1  0  0  0  0
 11 16  1  0  0  0  0
 43 45  1  0  0  0  0
 43 46  1  0  0  0  0
 43 47  1  0  0  0  0
 22 30  1  0  0  0  0
 22 31  1  0  0  0  0
 21 28  1  0  0  0  0
 21 29  1  0  0  0  0
 33 38  1  0  0  0  0
  8 13  1  0  0  0  0
 18 27  1  0  0  0  0
 42 44  1  0  0  0  0
  7 12  1  0  0  0  0
 32 37  1  0  0  0  0
 17 26  1  0  0  0  0
M  CHG  1  24  -1
M  END
$$$$

  -OEChem-05262214473D

 47 46  0     1  0  0  0  0  0999 V2000
    0.5093   -4.7265    3.0306 C   0  0  0  0  0  0  0  0  0  0  0  0
    1.2735   -4.4402    3.9448 O   0  0  0  0  0  0  0  0  0  0  0  0
   -0.4465   -5.8608    3.1982 C   0  0  0  0  0  0  0  0  0  0  0  0
   -0.0219   -6.8213    2.8645 H   0  0  0  0  0  0  0  0  0  0  0  0
   -0.7314   -6.0185    4.2509 H   0  0  0  0  0  0  0  0  0  0  0  0
   -1.3983   -5.7596    2.6527 H   0  0  0  0  0  0  0  0  0  0  0  0
    0.4252   -4.0886    1.8040 N   0  0  0  0  0  0  0  0  0  0  0  0
    1.2532   -2.9707    1.4349 C   0  0  2  0  0  0  0  0  0  0  0  0
    0.3395   -1.8293    1.0083 C   0  0  0  0  0  0  0  0  0  0  0  0
   -0.8136   -2.0027    0.6194 O   0  0  0  0  0  0  0  0  0  0  0  0
    2.2176   -3.3411    0.3189 C   0  0  0  0  0  0  0  0  0  0  0  0
   -0.2574   -4.4279    1.1287 H   0  0  0  0  0  0  0  0  0  0  0  0
    1.8087   -2.6785    2.3327 H   0  0  0  0  0  0  0  0  0  0  0  0
    1.6793   -3.6366   -0.5890 H   0  0  0  0  0  0  0  0  0  0  0  0
    2.8662   -2.4980    0.0589 H   0  0  0  0  0  0  0  0  0  0  0  0
    2.8538   -4.1816    0.6166 H   0  0  0  0  0  0  0  0  0  0  0  0
    0.9758   -0.5952    1.0708 N   0  0  0  0  0  0  0  0  0  0  0  0
    0.3258    0.6374    0.7059 C   0  0  2  0  0  0  0  0  0  0  0  0
    1.3340    1.7641    0.9051 C   0  0  0  0  0  0  0  0  0  0  0  0
    1.6185    2.2206    2.0105 O   0  0  0  0  0  0  0  0  0  0  0  0
   -0.9326    0.8928    1.5441 C   0  0  0  0  0  0  0  0  0  0  0  0
   -2.0568   -0.1068    1.2751 C   0  0  0  0  0  0  0  0  0  0  0  0
   -3.3363    0.0769    2.0978 C   0  0  0  0  0  0  0  0  0  0  0  0
   -3.2509    0.9560    3.0031 O   0  5  0  0  0  0  0  0  0  0  0  0
   -4.3183   -0.6466    1.7748 O   0  0  0  0  0  0  0  0  0  0  0  0
    1.9288   -0.5463    1.4242 H   0  0  0  0  0  0  0  0  0  0  0  0
    0.0871    0.5629   -0.3606 H   0  0  0  0  0  0  0  0  0  0  0  0
   -1.3002    1.9114    1.3686 H   0  0  0  0  0  0  0  0  0  0  0  0
   -0.6741    0.8450    2.6104 H   0  0  0  0  0  0  0  0  0  0  0  0
   -2.3124   -0.1045    0.2088 H   0  0  0  0  0  0  0  0  0  0  0  0
   -1.6862   -1.1140    1.5045 H   0  0  0  0  0  0  0  0  0  0  0  0
    1.8414    2.2292   -0.3001 N   0  0  0  0  0  0  0  0  0  0  0  0
    2.8028    3.3042   -0.3827 C   0  0  2  0  0  0  0  0  0  0  0  0
    2.7870    3.8408   -1.8079 C   0  0  0  0  0  0  0  0  0  0  0  0
    2.3905    3.1833   -2.7679 O   0  0  0  0  0  0  0  0  0  0  0  0
    4.1954    2.8321    0.0050 C   0  0  0  0  0  0  0  0  0  0  0  0
    1.5594    1.7803   -1.1665 H   0  0  0  0  0  0  0  0  0  0  0  0
    2.4634    4.0856    0.3061 H   0  0  0  0  0  0  0  0  0  0  0  0
    4.5523    2.0490   -0.6739 H   0  0  0  0  0  0  0  0  0  0  0  0
    4.9174    3.6546   -0.0305 H   0  0  0  0  0  0  0  0  0  0  0  0
    4.1985    2.4191    1.0195 H   0  0  0  0  0  0  0  0  0  0  0  0
    3.3082    5.1246   -1.8880 N   0  0  0  0  0  0  0  0  0  0  0  0
    3.4132    5.8471   -3.1342 C   0  0  0  0  0  0  0  0  0  0  0  0
    3.5957    5.6011   -1.0383 H   0  0  0  0  0  0  0  0  0  0  0  0
    4.4049    5.6731   -3.5771 H   0  0  0  0  0  0  0  0  0  0  0  0
    2.6352    5.4960   -3.8281 H   0  0  0  0  0  0  0  0  0  0  0  0
    3.2790    6.9227   -2.9468 H   0  0  0  0  0  0  0  0  0  0  0  0
  1  3  1  0  0  0  0
  1  7  1  0  0  0  0
  1  2  2  0  0  0  0
 33 34  1  0  0  0  0
 34 42  1  0  0  0  0
 34 35  2  0  0  0  0
  8  9  1  0  0  0  0
  9 17  1  0  0  0  0
  9 10  2  0  0  0  0
 18 19  1  0  0  0  0
 19 32  1  0  0  0  0
 19 20  2  0  0  0  0
 22 23  1  0  0  0  0
 23 24  1  0  0  0  0
 23 25  2  0  0  0  0
 33 36  1  0  0  0  0
  8 11  1  0  0  0  0
 42 43  1  0  0  0  0
 21 22  1  0  0  0  0
 18 21  1  0  0  0  0
 32 33  1  0  0  0  0
  7  8  1  0  0  0  0
 17 18  1  0  0  0  0
  3  4  1  0  0  0  0
  3  5  1  0  0  0  0
  3  6  1  0  0  0  0
 36 39  1  0  0  0  0
 36 40  1  0  0  0  0
 36 41  1  0  0  0  0
 11 14  1  0  0  0  0
 11 15  1  0  0  0  0
 11 16  1  0  0  0  0
 43 45  1  0  0  0  0
 43 46  1  0  0  0  0
 43 47  1  0  0  0  0
 22 30  1  0  0  0  0
 22 31  1  0  0  0  0
 21 28  1  0  0  0  0
 21 29  1  0  0  0  0
 33 38  1  0  0  0  0
  8 13  1  0  0  0  0
 18 27  1  0  0  0  0
 42 44  1  0  0  0  0
  7 12  1  0  0  0  0
 32 37  1  0  0  0  0
 17 26  1  0  0  0  0
M  CHG  1  24  -1
M  END
$$$$

  -OEChem-05262214473D

 47 46  0     1  0  0  0  0  0999 V2000
    0.5093   -4.7265    3.0306 C   0  0  0  0  0  0  0  0  0  0  0  0
    1.2735   -4.4402    3.9448 O   0  0  0  0  0  0  0  0  0  0  0  0
   -0.4465   -5.8608    3.1982 C   0  0  0  0  0  0  0  0  0  0  0  0
   -0.0219   -6.8213    2.8645 H   0  0  0  0  0  0  0  0  0  0  0  0
   -0.7314   -6.0185    4.2509 H   0  0  0  0  0  0  0  0  0  0  0  0
   -1.3983   -5.7596    2.6527 H   0  0  0  0  0  0  0  0  0  0  0  0
    0.4252   -4.0886    1.8040 N   0  0  0  0  0  0  0  0  0  0  0  0
    1.2532   -2.9707    1.4349 C   0  0  2  0  0  0  0  0  0  0  0  0
    0.3395   -1.8293    1.0083 C   0  0  0  0  0  0  0  0  0  0  0  0
   -0.8136   -2.0027    0.6194 O   0  0  0  0  0  0  0  0  0  0  0  0
    2.2176   -3.3411    0.3189 C   0  0  0  0  0  0  0  0  0  0  0  0
   -0.2574   -4.4279    1.1287 H   0  0  0  0  0  0  0  0  0  0  0  0
    1.8087   -2.6785    2.3327 H   0  0  0  0  0  0  0  0  0  0  0  0
    1.6793   -3.6366   -0.5890 H   0  0  0  0  0  0  0  0  0  0  0  0
    2.8662   -2.4980    0.0589 H   0  0  0  0  0  0  0  0  0  0  0  0
    2.8538   -4.1816    0.6166 H   0  0  0  0  0  0  0  0  0  0  0  0
    0.9758   -0.5952    1.0708 N   0  0  0  0  0  0  0  0  0  0  0  0
    0.3258    0.6374    0.7059 C   0  0  2  0  0  0  0  0  0  0  0  0
    1.3340    1.7641    0.9051 C   0  0  0  0  0  0  0  0  0  0  0  0
    1.8199    2.0424    1.9995 O   0  0  0  0  0  0  0  0  0  0  0  0
   -0.9326    0.8928    1.5441 C   0  0  0  0  0  0  0  0  0  0  0  0
   -2.0568   -0.1068    1.2751 C   0  0  0  0  0  0  0  0  0  0  0  0
   -3.3363    0.0769    2.0978 C   0  0  0  0  0  0  0  0  0  0  0  0
   -3.2509    0.9560    3.0031 O   0  5  0  0  0  0  0  0  0  0  0  0
   -4.3183   -0.6466    1.7748 O   0  0  0  0  0  0  0  0  0  0  0  0
    1.9288   -0.5463    1.4242 H   0  0  0  0  0  0  0  0  0  0  0  0
    0.0871    0.5629   -0.3606 H   0  0  0  0  0  0  0  0  0  0  0  0
   -1.3002    1.9114    1.3686 H   0  0  0  0  0  0  0  0  0  0  0  0
   -0.6741    0.8450    2.6104 H   0  0  0  0  0  0  0  0  0  0  0  0
   -2.3124   -0.1045    0.2088 H   0  0  0  0  0  0  0  0  0  0  0  0
   -1.6862   -1.1140    1.5045 H   0  0  0  0  0  0  0  0  0  0  0  0
    1.5896    2.4499   -0.2742 N   0  0  0  0  0  0  0  0  0  0  0  0
    2.4981    3.5706   -0.3475 C   0  0  2  0  0  0  0  0  0  0  0  0
    2.1967    4.3373   -1.6285 C   0  0  0  0  0  0  0  0  0  0  0  0
    1.6327    3.8311   -2.5963 O   0  0  0  0  0  0  0  0  0  0  0  0
    3.9474    3.1110   -0.3173 C   0  0  0  0  0  0  0  0  0  0  0  0
    1.1525    2.1391   -1.1367 H   0  0  0  0  0  0  0  0  0  0  0  0
    2.2856    4.2072    0.5184 H   0  0  0  0  0  0  0  0  0  0  0  0
    4.1791    2.4720   -1.1773 H   0  0  0  0  0  0  0  0  0  0  0  0
    4.6346    3.9631   -0.3442 H   0  0  0  0  0  0  0  0  0  0  0  0
    4.1546    2.5343    0.5906 H   0  0  0  0  0  0  0  0  0  0  0  0
    2.6703    5.6410   -1.5801 N   0  0  0  0  0  0  0  0  0  0  0  0
    2.5189    6.5667   -2.6783 C   0  0  0  0  0  0  0  0  0  0  0  0
    3.1091    5.9820   -0.7299 H   0  0  0  0  0  0  0  0  0  0  0  0
    3.4086    6.5197   -3.3234 H   0  0  0  0  0  0  0  0  0  0  0  0
    1.6271    6.2982   -3.2637 H   0  0  0  0  0  0  0  0  0  0  0  0
    2.4053    7.5874   -2.2843 H   0  0  0  0  0  0  0  0  0  0  0  0
  1  3  1  0  0  0  0
  1  7  1  0  0  0  0
  1  2  2  0  0  0  0
 33 34  1  0  0  0  0
 34 42  1  0  0  0  0
 34 35  2  0  0  0  0
  8  9  1  0  0  0  0
  9 17  1  0  0  0  0
  9 10  2  0  0  0  0
 18 19  1  0  0  0  0
 19 32  1  0  0  0  0
 19 20  2  0  0  0  0
 22 23  1  0  0  0  0
 23 24  1  0  0  0  0
 23 25  2  0  0  0  0
 33 36  1  0  0  0  0
  8 11  1  0  0  0  0
 42 43  1  0  0  0  0
 21 22  1  0  0  0  0
 18 21  1  0  0  0  0
 32 33  1  0  0  0  0
  7  8  1  0  0  0  0
 17 18  1  0  0  0  0
  3  4  1  0  0  0  0
  3  5  1  0  0  0  0
  3  6  1  0  0  0  0
 36 39  1  0  0  0  0
 36 40  1  0  0  0  0
 36 41  1  0  0  0  0
 11 14  1  0  0  0  0
 11 15  1  0  0  0  0
 11 16  1  0  0  0  0
 43 45  1  0  0  0  0
 43 46  1  0  0  0  0
 43 47  1  0  0  0  0
 22 30  1  0  0  0  0
 22 31  1  0  0  0  0
 21 28  1  0  0  0  0
 21 29  1  0  0  0  0
 33 38  1  0  0  0  0
  8 13  1  0  0  0  0
 18 27  1  0  0  0  0
 42 44  1  0  0  0  0
  7 12  1  0  0  0  0
 32 37  1  0  0  0  0
 17 26  1  0  0  0  0
M  CHG  1  24  -1
M  END
$$$$

  -OEChem-05262214473D

 47 46  0     1  0  0  0  0  0999 V2000
    0.5093   -4.7265    3.0306 C   0  0  0  0  0  0  0  0  0  0  0  0
    1.2735   -4.4402    3.9448 O   0  0  0  0  0  0  0  0  0  0  0  0
   -0.4465   -5.8608    3.1982 C   0  0  0  0  0  0  0  0  0  0  0  0
   -0.0219   -6.8213    2.8645 H   0  0  0  0  0  0  0  0  0  0  0  0
   -0.7314   -6.0185    4.2509 H   0  0  0  0  0  0  0  0  0  0  0  0
   -1.3983   -5.7596    2.6527 H   0  0  0  0  0  0  0  0  0  0  0  0
    0.4252   -4.0886    1.8040 N   0  0  0  0  0  0  0  0  0  0  0  0
    1.2532   -2.9707    1.4349 C   0  0  2  0  0  0  0  0  0  0  0  0
    0.3395   -1.8293    1.0083 C   0  0  0  0  0  0  0  0  0  0  0  0
   -0.8136   -2.0027    0.6194 O   0  0  0  0  0  0  0  0  0  0  0  0
    2.2176   -3.3411    0.3189 C   0  0  0  0  0  0  0  0  0  0  0  0
   -0.2574   -4.4279    1.1287 H   0  0  0  0  0  0  0  0  0  0  0  0
    1.8087   -2.6785    2.3327 H   0  0  0  0  0  0  0  0  0  0  0  0
    1.6793   -3.6366   -0.5890 H   0  0  0  0  0  0  0  0  0  0  0  0
    2.8662   -2.4980    0.0589 H   0  0  0  0  0  0  0  0  0  0  0  0
    2.8538   -4.1816    0.6166 H   0  0  0  0  0  0  0  0  0  0  0  0
    0.9758   -0.5952    1.0708 N   0  0  0  0  0  0  0  0  0  0  0  0
    0.3258    0.6374    0.7059 C   0  0  2  0  0  0  0  0  0  0  0  0
    1.3340    1.7641    0.9051 C   0  0  0  0  0  0  0  0  0  0  0  0
    2.0183    1.8789    1.9199 O   0  0  0  0  0  0  0  0  0  0  0  0
   -0.9326    0.8928    1.5441 C   0  0  0  0  0  0  0  0  0  0  0  0
   -2.0568   -0.1068    1.2751 C   0  0  0  0  0  0  0  0  0  0  0  0
   -3.3363    0.0769    2.0978 C   0  0  0  0  0  0  0  0  0  0  0  0
   -3.2509    0.9560    3.0031 O   0  5  0  0  0  0  0  0  0  0  0  0
   -4.3183   -0.6466    1.7748 O   0  0  0  0  0  0  0  0  0  0  0  0
    1.9288   -0.5463    1.4242 H   0  0  0  0  0  0  0  0  0  0  0  0
    0.0871    0.5629   -0.3606 H   0  0  0  0  0  0  0  0  0  0  0  0
   -1.3002    1.9114    1.3686 H   0  0  0  0  0  0  0  0  0  0  0  0
   -0.6741    0.8450    2.6104 H   0  0  0  0  0  0  0  0  0  0  0  0
   -2.3124   -0.1045    0.2088 H   0  0  0  0  0  0  0  0  0  0  0  0
   -1.6862   -1.1140    1.5045 H   0  0  0  0  0  0  0  0  0  0  0  0
    1.3440    2.6501   -0.1632 N   0  0  0  0  0  0  0  0  0  0  0  0
    2.2016    3.8116   -0.2097 C   0  0  2  0  0  0  0  0  0  0  0  0
    1.6441    4.7662   -1.2573 C   0  0  0  0  0  0  0  0  0  0  0  0
    0.9116    4.4018   -2.1748 O   0  0  0  0  0  0  0  0  0  0  0  0
    3.6368    3.4271   -0.5336 C   0  0  0  0  0  0  0  0  0  0  0  0
    0.7531    2.4668   -0.9688 H   0  0  0  0  0  0  0  0  0  0  0  0
    2.1503    4.2823    0.7782 H   0  0  0  0  0  0  0  0  0  0  0  0
    3.7080    2.9540   -1.5198 H   0  0  0  0  0  0  0  0  0  0  0  0
    4.2909    4.3053   -0.5403 H   0  0  0  0  0  0  0  0  0  0  0  0
    4.0262    2.7175    0.2044 H   0  0  0  0  0  0  0  0  0  0  0  0
    2.0956    6.0655   -1.0723 N   0  0  0  0  0  0  0  0  0  0  0  0
    1.7180    7.1535   -1.9439 C   0  0  0  0  0  0  0  0  0  0  0  0
    2.6852    6.2807   -0.2737 H   0  0  0  0  0  0  0  0  0  0  0  0
    2.4662    7.2605   -2.7431 H   0  0  0  0  0  0  0  0  0  0  0  0
    0.7342    6.9425   -2.3886 H   0  0  0  0  0  0  0  0  0  0  0  0
    1.6655    8.0866   -1.3637 H   0  0  0  0  0  0  0  0  0  0  0  0
  1  3  1  0  0  0  0
  1  7  1  0  0  0  0
  1  2  2  0  0  0  0
 33 34  1  0  0  0  0
 34 42  1  0  0  0  0
 34 35  2  0  0  0  0
  8  9  1  0  0  0  0
  9 17  1  0  0  0  0
  9 10  2  0  0  0  0
 18 19  1  0  0  0  0
 19 32  1  0  0  0  0
 19 20  2  0  0  0  0
 22 23  1  0  0  0  0
 23 24  1  0  0  0  0
 23 25  2  0  0  0  0
 33 36  1  0  0  0  0
  8 11  1  0  0  0  0
 42 43  1  0  0  0  0
 21 22  1  0  0  0  0
 18 21  1  0  0  0  0
 32 33  1  0  0  0  0
  7  8  1  0  0  0  0
 17 18  1  0  0  0  0
  3  4  1  0  0  0  0
  3  5  1  0  0  0  0
  3  6  1  0  0  0  0
 36 39  1  0  0  0  0
 36 40  1  0  0  0  0
 36 41  1  0  0  0  0
 11 14  1  0  0  0  0
 11 15  1  0  0  0  0
 11 16  1  0  0  0  0
 43 45  1  0  0  0  0
 43 46  1  0  0  0  0
 43 47  1  0  0  0  0
 22 30  1  0  0  0  0
 22 31  1  0  0  0  0
 21 28  1  0  0  0  0
 21 29  1  0  0  0  0
 33 38  1  0  0  0  0
  8 13  1  0  0  0  0
 18 27  1  0  0  0  0
 42 44  1  0  0  0  0
  7 12  1  0  0  0  0
 32 37  1  0  0  0  0
 17 26  1  0  0  0  0
M  CHG  1  24  -1
M  END
$$$$

  -OEChem-05262214473D

 47 46  0     1  0  0  0  0  0999 V2000
    0.5093   -4.7265    3.0306 C   0  0  0  0  0  0  0  0  0  0  0  0
    1.2735   -4.4402    3.9448 O   0  0  0  0  0  0  0  0  0  0  0  0
   -0.4465   -5.8608    3.1982 C   0  0  0  0  0  0  0  0  0  0  0  0
   -0.0219   -6.8213    2.8645 H   0  0  0  0  0  0  0  0  0  0  0  0
   -0.7314   -6.0185    4.2509 H   0  0  0  0  0  0  0  0  0  0  0  0
   -1.3983   -5.7596    2.6527 H   0  0  0  0  0  0  0  0  0  0  0  0
    0.4252   -4.0886    1.8040 N   0  0  0  0  0  0  0  0  0  0  0  0
    1.2532   -2.9707    1.4349 C   0  0  2  0  0  0  0  0  0  0  0  0
    0.3395   -1.8293    1.0083 C   0  0  0  0  0  0  0  0  0  0  0  0
   -0.8136   -2.0027    0.6194 O   0  0  0  0  0  0  0  0  0  0  0  0
    2.2176   -3.3411    0.3189 C   0  0  0  0  0  0  0  0  0  0  0  0
   -0.2574   -4.4279    1.1287 H   0  0  0  0  0  0  0  0  0  0  0  0
    1.8087   -2.6785    2.3327 H   0  0  0  0  0  0  0  0  0  0  0  0
    1.6793   -3.6366   -0.5890 H   0  0  0  0  0  0  0  0  0  0  0  0
    2.8662   -2.4980    0.0589 H   0  0  0  0  0  0  0  0  0  0  0  0
    2.8538   -4.1816    0.6166 H   0  0  0  0  0  0  0  0  0  0  0  0
    0.9758   -0.5952    1.0708 N   0  0  0  0  0  0  0  0  0  0  0  0
    0.3258    0.6374    0.7059 C   0  0  2  0  0  0  0  0  0  0  0  0
    1.3340    1.7641    0.9051 C   0  0  0  0  0  0  0  0  0  0  0  0
    2.2002    1.7413    1.7771 O   0  0  0  0  0  0  0  0  0  0  0  0
   -0.9326    0.8928    1.5441 C   0  0  0  0  0  0  0  0  0  0  0  0
   -2.0568   -0.1068    1.2751 C   0  0  0  0  0  0  0  0  0  0  0  0
   -3.3363    0.0769    2.0978 C   0  0  0  0  0  0  0  0  0  0  0  0
   -3.2509    0.9560    3.0031 O   0  5  0  0  0  0  0  0  0  0  0  0
   -4.3183   -0.6466    1.7748 O   0  0  0  0  0  0  0  0  0  0  0  0
    1.9288   -0.5463    1.4242 H   0  0  0  0  0  0  0  0  0  0  0  0
    0.0871    0.5629   -0.3606 H   0  0  0  0  0  0  0  0  0  0  0  0
   -1.3002    1.9114    1.3686 H   0  0  0  0  0  0  0  0  0  0  0  0
   -0.6741    0.8450    2.6104 H   0  0  0  0  0  0  0  0  0  0  0  0
   -2.3124   -0.1045    0.2088 H   0  0  0  0  0  0  0  0  0  0  0  0
   -1.6862   -1.1140    1.5045 H   0  0  0  0  0  0  0  0  0  0  0  0
    1.1211    2.8162    0.0252 N   0  0  0  0  0  0  0  0  0  0  0  0
    1.9333    4.0108    0.0214 C   0  0  2  0  0  0  0  0  0  0  0  0
    1.1667    5.0983   -0.7197 C   0  0  0  0  0  0  0  0  0  0  0  0
    0.2764    4.8565   -1.5321 O   0  0  0  0  0  0  0  0  0  0  0  0
    3.2848    3.7590   -0.6289 C   0  0  0  0  0  0  0  0  0  0  0  0
    0.3883    2.7411   -0.6741 H   0  0  0  0  0  0  0  0  0  0  0  0
    2.0668    4.3058    1.0679 H   0  0  0  0  0  0  0  0  0  0  0  0
    3.1712    3.4623   -1.6780 H   0  0  0  0  0  0  0  0  0  0  0  0
    3.9100    4.6577   -0.6054 H   0  0  0  0  0  0  0  0  0  0  0  0
    3.8221    2.9561   -0.1128 H   0  0  0  0  0  0  0  0  0  0  0  0
    1.6232    6.3692   -0.3994 N   0  0  0  0  0  0  0  0  0  0  0  0
    1.0649    7.5676   -0.9808 C   0  0  0  0  0  0  0  0  0  0  0  0
    2.3529    6.4768    0.2990 H   0  0  0  0  0  0  0  0  0  0  0  0
    1.6418    7.8448   -1.8755 H   0  0  0  0  0  0  0  0  0  0  0  0
    0.0173    7.3848   -1.2623 H   0  0  0  0  0  0  0  0  0  0  0  0
    1.1101    8.3862   -0.2475 H   0  0  0  0  0  0  0  0  0  0  0  0
  1  3  1  0  0  0  0
  1  7  1  0  0  0  0
  1  2  2  0  0  0  0
 33 34  1  0  0  0  0
 34 42  1  0  0  0  0
 34 35  2  0  0  0  0
  8  9  1  0  0  0  0
  9 17  1  0  0  0  0
  9 10  2  0  0  0  0
 18 19  1  0  0  0  0
 19 32  1  0  0  0  0
 19 20  2  0  0  0  0
 22 23  1  0  0  0  0
 23 24  1  0  0  0  0
 23 25  2  0  0  0  0
 33 36  1  0  0  0  0
  8 11  1  0  0  0  0
 42 43  1  0  0  0  0
 21 22  1  0  0  0  0
 18 21  1  0  0  0  0
 32 33  1  0  0  0  0
  7  8  1  0  0  0  0
 17 18  1  0  0  0  0
  3  4  1  0  0  0  0
  3  5  1  0  0  0  0
  3  6  1  0  0  0  0
 36 39  1  0  0  0  0
 36 40  1  0  0  0  0
 36 41  1  0  0  0  0
 11 14  1  0  0  0  0
 11 15  1  0  0  0  0
 11 16  1  0  0  0  0
 43 45  1  0  0  0  0
 43 46  1  0  0  0  0
 43 47  1  0  0  0  0
 22 30  1  0  0  0  0
 22 31  1  0  0  0  0
 21 28  1  0  0  0  0
 21 29  1  0  0  0  0
 33 38  1  0  0  0  0
  8 13  1  0  0  0  0
 18 27  1  0  0  0  0
 42 44  1  0  0  0  0
  7 12  1  0  0  0  0
 32 37  1  0  0  0  0
 17 26  1  0  0  0  0
M  CHG  1  24  -1
M  END
$$$$

  -OEChem-05262214473D

 47 46  0     1  0  0  0  0  0999 V2000
    0.5093   -4.7265    3.0306 C   0  0  0  0  0  0  0  0  0  0  0  0
    1.2735   -4.4402    3.9448 O   0  0  0  0  0  0  0  0  0  0  0  0
   -0.4465   -5.8608    3.1982 C   0  0  0  0  0  0  0  0  0  0  0  0
   -0.0219   -6.8213    2.8645 H   0  0  0  0  0  0  0  0  0  0  0  0
   -0.7314   -6.0185    4.2509 H   0  0  0  0  0  0  0  0  0  0  0  0
   -1.3983   -5.7596    2.6527 H   0  0  0  0  0  0  0  0  0  0  0  0
    0.4252   -4.0886    1.8040 N   0  0  0  0  0  0  0  0  0  0  0  0
    1.2532   -2.9707    1.4349 C   0  0  2  0  0  0  0  0  0  0  0  0
    0.3395   -1.8293    1.0083 C   0  0  0  0  0  0  0  0  0  0  0  0
   -0.8136   -2.0027    0.6194 O   0  0  0  0  0  0  0  0  0  0  0  0
    2.2176   -3.3411    0.3189 C   0  0  0  0  0  0  0  0  0  0  0  0
   -0.2574   -4.4279    1.1287 H   0  0  0  0  0  0  0  0  0  0  0  0
    1.8087   -2.6785    2.3327 H   0  0  0  0  0  0  0  0  0  0  0  0
    1.6793   -3.6366   -0.5890 H   0  0  0  0  0  0  0  0  0  0  0  0
    2.8662   -2.4980    0.0589 H   0  0  0  0  0  0  0  0  0  0  0  0
    2.8538   -4.1816    0.6166 H   0  0  0  0  0  0  0  0  0  0  0  0
    0.9758   -0.5952    1.0708 N   0  0  0  0  0  0  0  0  0  0  0  0
    0.3258    0.6374    0.7059 C   0  0  2  0  0  0  0  0  0  0  0  0
    1.3340    1.7641    0.9051 C   0  0  0  0  0  0  0  0  0  0  0  0
    2.3533    1.6391    1.5808 O   0  0  0  0  0  0  0  0  0  0  0  0
   -0.9326    0.8928    1.5441 C   0  0  0  0  0  0  0  0  0  0  0  0
   -2.0568   -0.1068    1.2751 C   0  0  0  0  0  0  0  0  0  0  0  0
   -3.3363    0.0769    2.0978 C   0  0  0  0  0  0  0  0  0  0  0  0
   -3.2509    0.9560    3.0031 O   0  5  0  0  0  0  0  0  0  0  0  0
   -4.3183   -0.6466    1.7748 O   0  0  0  0  0  0  0  0  0  0  0  0
    1.9288   -0.5463    1.4242 H   0  0  0  0  0  0  0  0  0  0  0  0
    0.0871    0.5629   -0.3606 H   0  0  0  0  0  0  0  0  0  0  0  0
   -1.3002    1.9114    1.3686 H   0  0  0  0  0  0  0  0  0  0  0  0
   -0.6741    0.8450    2.6104 H   0  0  0  0  0  0  0  0  0  0  0  0
   -2.3124   -0.1045    0.2088 H   0  0  0  0  0  0  0  0  0  0  0  0
   -1.6862   -1.1140    1.5045 H   0  0  0  0  0  0  0  0  0  0  0  0
    0.9363    2.9368    0.2782 N   0  0  0  0  0  0  0  0  0  0  0  0
    1.7117    4.1546    0.3300 C   0  0  2  0  0  0  0  0  0  0  0  0
    0.7972    5.3109   -0.0523 C   0  0  0  0  0  0  0  0  0  0  0  0
   -0.2296    5.1643   -0.7120 O   0  0  0  0  0  0  0  0  0  0  0  0
    2.9152    4.0840   -0.5969 C   0  0  0  0  0  0  0  0  0  0  0  0
    0.0831    2.9433   -0.2728 H   0  0  0  0  0  0  0  0  0  0  0  0
    2.0407    4.2761    1.3677 H   0  0  0  0  0  0  0  0  0  0  0  0
    2.6053    3.9622   -1.6412 H   0  0  0  0  0  0  0  0  0  0  0  0
    3.5176    4.9964   -0.5352 H   0  0  0  0  0  0  0  0  0  0  0  0
    3.5563    3.2340   -0.3393 H   0  0  0  0  0  0  0  0  0  0  0  0
    1.2853    6.5314    0.3930 N   0  0  0  0  0  0  0  0  0  0  0  0
    0.6043    7.7807    0.1451 C   0  0  0  0  0  0  0  0  0  0  0  0
    2.1348    6.5570    0.9493 H   0  0  0  0  0  0  0  0  0  0  0  0
    0.9916    8.2328   -0.7799 H   0  0  0  0  0  0  0  0  0  0  0  0
   -0.4747    7.5952    0.0385 H   0  0  0  0  0  0  0  0  0  0  0  0
    0.7769    8.4659    0.9882 H   0  0  0  0  0  0  0  0  0  0  0  0
  1  3  1  0  0  0  0
  1  7  1  0  0  0  0
  1  2  2  0  0  0  0
 33 34  1  0  0  0  0
 34 42  1  0  0  0  0
 34 35  2  0  0  0  0
  8  9  1  0  0  0  0
  9 17  1  0  0  0  0
  9 10  2  0  0  0  0
 18 19  1  0  0  0  0
 19 32  1  0  0  0  0
 19 20  2  0  0  0  0
 22 23  1  0  0  0  0
 23 24  1  0  0  0  0
 23 25  2  0  0  0  0
 33 36  1  0  0  0  0
  8 11  1  0  0  0  0
 42 43  1  0  0  0  0
 21 22  1  0  0  0  0
 18 21  1  0  0  0  0
 32 33  1  0  0  0  0
  7  8  1  0  0  0  0
 17 18  1  0  0  0  0
  3  4  1  0  0  0  0
  3  5  1  0  0  0  0
  3  6  1  0  0  0  0
 36 39  1  0  0  0  0
 36 40  1  0  0  0  0
 36 41  1  0  0  0  0
 11 14  1  0  0  0  0
 11 15  1  0  0  0  0
 11 16  1  0  0  0  0
 43 45  1  0  0  0  0
 43 46  1  0  0  0  0
 43 47  1  0  0  0  0
 22 30  1  0  0  0  0
 22 31  1  0  0  0  0
 21 28  1  0  0  0  0
 21 29  1  0  0  0  0
 33 38  1  0  0  0  0
  8 13  1  0  0  0  0
 18 27  1  0  0  0  0
 42 44  1  0  0  0  0
  7 12  1  0  0  0  0
 32 37  1  0  0  0  0
 17 26  1  0  0  0  0
M  CHG  1  24  -1
M  END
$$$$

  -OEChem-05262214473D

 47 46  0     1  0  0  0  0  0999 V2000
    0.5093   -4.7265    3.0306 C   0  0  0  0  0  0  0  0  0  0  0  0
    1.2735   -4.4402    3.9448 O   0  0  0  0  0  0  0  0  0  0  0  0
   -0.4465   -5.8608    3.1982 C   0  0  0  0  0  0  0  0  0  0  0  0
   -0.0219   -6.8213    2.8645 H   0  0  0  0  0  0  0  0  0  0  0  0
   -0.7314   -6.0185    4.2509 H   0  0  0  0  0  0  0  0  0  0  0  0
   -1.3983   -5.7596    2.6527 H   0  0  0  0  0  0  0  0  0  0  0  0
    0.4252   -4.0886    1.8040 N   0  0  0  0  0  0  0  0  0  0  0  0
    1.2532   -2.9707    1.4349 C   0  0  2  0  0  0  0  0  0  0  0  0
    0.3395   -1.8293    1.0083 C   0  0  0  0  0  0  0  0  0  0  0  0
   -0.8136   -2.0027    0.6194 O   0  0  0  0  0  0  0  0  0  0  0  0
    2.2176   -3.3411    0.3189 C   0  0  0  0  0  0  0  0  0  0  0  0
   -0.2574   -4.4279    1.1287 H   0  0  0  0  0  0  0  0  0  0  0  0
    1.8087   -2.6785    2.3327 H   0  0  0  0  0  0  0  0  0  0  0  0
    1.6793   -3.6366   -0.5890 H   0  0  0  0  0  0  0  0  0  0  0  0
    2.8662   -2.4980    0.0589 H   0  0  0  0  0  0  0  0  0  0  0  0
    2.8538   -4.1816    0.6166 H   0  0  0  0  0  0  0  0  0  0  0  0
    0.9758   -0.5952    1.0708 N   0  0  0  0  0  0  0  0  0  0  0  0
    0.3258    0.6374    0.7059 C   0  0  2  0  0  0  0  0  0  0  0  0
    1.4106    1.6962    0.5395 C   0  0  0  0  0  0  0  0  0  0  0  0
    2.6023    1.4717    0.7413 O   0  0  0  0  0  0  0  0  0  0  0  0
   -0.6962    1.0812    1.7594 C   0  0  0  0  0  0  0  0  0  0  0  0
   -1.9029    0.1499    1.8677 C   0  0  0  0  0  0  0  0  0  0  0  0
   -2.9527    0.5227    2.9198 C   0  0  0  0  0  0  0  0  0  0  0  0
   -2.6195    1.4861    3.6684 O   0  5  0  0  0  0  0  0  0  0  0  0
   -4.0187   -0.1524    2.9105 O   0  0  0  0  0  0  0  0  0  0  0  0
    1.9288   -0.5463    1.4242 H   0  0  0  0  0  0  0  0  0  0  0  0
   -0.1506    0.4656   -0.2654 H   0  0  0  0  0  0  0  0  0  0  0  0
   -1.0399    2.1003    1.5430 H   0  0  0  0  0  0  0  0  0  0  0  0
   -0.2069    1.1303    2.7415 H   0  0  0  0  0  0  0  0  0  0  0  0
   -2.3917    0.0556    0.8907 H   0  0  0  0  0  0  0  0  0  0  0  0
   -1.5434   -0.8523    2.1343 H   0  0  0  0  0  0  0  0  0  0  0  0
    0.8845    2.9308    0.1851 N   0  0  0  0  0  0  0  0  0  0  0  0
    1.7045    4.1026   -0.0179 C   0  0  2  0  0  0  0  0  0  0  0  0
    0.8020    5.3271    0.0583 C   0  0  0  0  0  0  0  0  0  0  0  0
   -0.4103    5.2801   -0.1396 O   0  0  0  0  0  0  0  0  0  0  0  0
    2.4310    4.0451   -1.3527 C   0  0  0  0  0  0  0  0  0  0  0  0
   -0.1145    3.0198    0.0246 H   0  0  0  0  0  0  0  0  0  0  0  0
    2.4273    4.1293    0.8047 H   0  0  0  0  0  0  0  0  0  0  0  0
    1.7230    4.0178   -2.1890 H   0  0  0  0  0  0  0  0  0  0  0  0
    3.0740    4.9203   -1.4925 H   0  0  0  0  0  0  0  0  0  0  0  0
    3.0566    3.1483   -1.4175 H   0  0  0  0  0  0  0  0  0  0  0  0
    1.5160    6.4855    0.3306 N   0  0  0  0  0  0  0  0  0  0  0  0
    0.8874    7.7812    0.4405 C   0  0  0  0  0  0  0  0  0  0  0  0
    2.5161    6.4282    0.4991 H   0  0  0  0  0  0  0  0  0  0  0  0
    0.9070    8.2831   -0.5381 H   0  0  0  0  0  0  0  0  0  0  0  0
   -0.1555    7.6560    0.7674 H   0  0  0  0  0  0  0  0  0  0  0  0
    1.4315    8.3914    1.1764 H   0  0  0  0  0  0  0  0  0  0  0  0
  1  3  1  0  0  0  0
  1  7  1  0  0  0  0
  1  2  2  0  0  0  0
 33 34  1  0  0  0  0
 34 42  1  0  0  0  0
 34 35  2  0  0  0  0
  8  9  1  0  0  0  0
  9 17  1  0  0  0  0
  9 10  2  0  0  0  0
 18 19  1  0  0  0  0
 19 32  1  0  0  0  0
 19 20  2  0  0  0  0
 22 23  1  0  0  0  0
 23 24  1  0  0  0  0
 23 25  2  0  0  0  0
 33 36  1  0  0  0  0
  8 11  1  0  0  0  0
 42 43  1  0  0  0  0
 21 22  1  0  0  0  0
 18 21  1  0  0  0  0
 32 33  1  0  0  0  0
  7  8  1  0  0  0  0
 17 18  1  0  0  0  0
  3  4  1  0  0  0  0
  3  5  1  0  0  0  0
  3  6  1  0  0  0  0
 36 39  1  0  0  0  0
 36 40  1  0  0  0  0
 36 41  1  0  0  0  0
 11 14  1  0  0  0  0
 11 15  1  0  0  0  0
 11 16  1  0  0  0  0
 43 45  1  0  0  0  0
 43 46  1  0  0  0  0
 43 47  1  0  0  0  0
 22 30  1  0  0  0  0
 22 31  1  0  0  0  0
 21 28  1  0  0  0  0
 21 29  1  0  0  0  0
 33 38  1  0  0  0  0
  8 13  1  0  0  0  0
 18 27  1  0  0  0  0
 42 44  1  0  0  0  0
  7 12  1  0  0  0  0
 32 37  1  0  0  0  0
 17 26  1  0  0  0  0
M  CHG  1  24  -1
M  END
$$$$

  -OEChem-05262214473D

 47 46  0     1  0  0  0  0  0999 V2000
    0.5093   -4.7265    3.0306 C   0  0  0  0  0  0  0  0  0  0  0  0
    1.2735   -4.4402    3.9448 O   0  0  0  0  0  0  0  0  0  0  0  0
   -0.4465   -5.8608    3.1982 C   0  0  0  0  0  0  0  0  0  0  0  0
   -0.0219   -6.8213    2.8645 H   0  0  0  0  0  0  0  0  0  0  0  0
   -0.7314   -6.0185    4.2509 H   0  0  0  0  0  0  0  0  0  0  0  0
   -1.3983   -5.7596    2.6527 H   0  0  0  0  0  0  0  0  0  0  0  0
    0.4252   -4.0886    1.8040 N   0  0  0  0  0  0  0  0  0  0  0  0
    1.2532   -2.9707    1.4349 C   0  0  2  0  0  0  0  0  0  0  0  0
    0.3395   -1.8293    1.0083 C   0  0  0  0  0  0  0  0  0  0  0  0
   -0.8136   -2.0027    0.6194 O   0  0  0  0  0  0  0  0  0  0  0  0
    2.2176   -3.3411    0.3189 C   0  0  0  0  0  0  0  0  0  0  0  0
   -0.2574   -4.4279    1.1287 H   0  0  0  0  0  0  0  0  0  0  0  0
    1.8087   -2.6785    2.3327 H   0  0  0  0  0  0  0  0  0  0  0  0
    1.6793   -3.6366   -0.5890 H   0  0  0  0  0  0  0  0  0  0  0  0
    2.8662   -2.4980    0.0589 H   0  0  0  0  0  0  0  0  0  0  0  0
    2.8538   -4.1816    0.6166 H   0  0  0  0  0  0  0  0  0  0  0  0
    0.9758   -0.5952    1.0708 N   0  0  0  0  0  0  0  0  0  0  0  0
    0.3258    0.6374    0.7059 C   0  0  2  0  0  0  0  0  0  0  0  0
    1.4106    1.6962    0.5395 C   0  0  0  0  0  0  0  0  0  0  0  0
    2.6078    1.4244    0.4764 O   0  0  0  0  0  0  0  0  0  0  0  0
   -0.6962    1.0812    1.7594 C   0  0  0  0  0  0  0  0  0  0  0  0
   -1.9029    0.1499    1.8677 C   0  0  0  0  0  0  0  0  0  0  0  0
   -2.9527    0.5227    2.9198 C   0  0  0  0  0  0  0  0  0  0  0  0
   -2.6195    1.4861    3.6684 O   0  5  0  0  0  0  0  0  0  0  0  0
   -4.0187   -0.1524    2.9105 O   0  0  0  0  0  0  0  0  0  0  0  0
    1.9288   -0.5463    1.4242 H   0  0  0  0  0  0  0  0  0  0  0  0
   -0.1506    0.4656   -0.2654 H   0  0  0  0  0  0  0  0  0  0  0  0
   -1.0399    2.1003    1.5430 H   0  0  0  0  0  0  0  0  0  0  0  0
   -0.2069    1.1303    2.7415 H   0  0  0  0  0  0  0  0  0  0  0  0
   -2.3917    0.0556    0.8907 H   0  0  0  0  0  0  0  0  0  0  0  0
   -1.5434   -0.8523    2.1343 H   0  0  0  0  0  0  0  0  0  0  0  0
    0.8863    2.9812    0.5171 N   0  0  0  0  0  0  0  0  0  0  0  0
    1.7093    4.1609    0.3841 C   0  0  2  0  0  0  0  0  0  0  0  0
    0.8907    5.3598    0.8445 C   0  0  0  0  0  0  0  0  0  0  0  0
   -0.3384    5.3645    0.8659 O   0  0  0  0  0  0  0  0  0  0  0  0
    2.1846    4.3452   -1.0487 C   0  0  0  0  0  0  0  0  0  0  0  0
   -0.1203    3.1100    0.5603 H   0  0  0  0  0  0  0  0  0  0  0  0
    2.5669    4.0252    1.0520 H   0  0  0  0  0  0  0  0  0  0  0  0
    1.3392    4.4826   -1.7327 H   0  0  0  0  0  0  0  0  0  0  0  0
    2.8316    5.2237   -1.1422 H   0  0  0  0  0  0  0  0  0  0  0  0
    2.7479    3.4693   -1.3882 H   0  0  0  0  0  0  0  0  0  0  0  0
    1.6932    6.4388    1.1878 N   0  0  0  0  0  0  0  0  0  0  0  0
    1.1529    7.6982    1.6439 C   0  0  0  0  0  0  0  0  0  0  0  0
    2.7036    6.3396    1.1579 H   0  0  0  0  0  0  0  0  0  0  0  0
    1.0216    8.3737    0.7857 H   0  0  0  0  0  0  0  0  0  0  0  0
    0.1799    7.5262    2.1271 H   0  0  0  0  0  0  0  0  0  0  0  0
    1.8457    8.1541    2.3665 H   0  0  0  0  0  0  0  0  0  0  0  0
  1  3  1  0  0  0  0
  1  7  1  0  0  0  0
  1  2  2  0  0  0  0
 33 34  1  0  0  0  0
 34 42  1  0  0  0  0
 34 35  2  0  0  0  0
  8  9  1  0  0  0  0
  9 17  1  0  0  0  0
  9 10  2  0  0  0  0
 18 19  1  0  0  0  0
 19 32  1  0  0  0  0
 19 20  2  0  0  0  0
 22 23  1  0  0  0  0
 23 24  1  0  0  0  0
 23 25  2  0  0  0  0
 33 36  1  0  0  0  0
  8 11  1  0  0  0  0
 42 43  1  0  0  0  0
 21 22  1  0  0  0  0
 18 21  1  0  0  0  0
 32 33  1  0  0  0  0
  7  8  1  0  0  0  0
 17 18  1  0  0  0  0
  3  4  1  0  0  0  0
  3  5  1  0  0  0  0
  3  6  1  0  0  0  0
 36 39  1  0  0  0  0
 36 40  1  0  0  0  0
 36 41  1  0  0  0  0
 11 14  1  0  0  0  0
 11 15  1  0  0  0  0
 11 16  1  0  0  0  0
 43 45  1  0  0  0  0
 43 46  1  0  0  0  0
 43 47  1  0  0  0  0
 22 30  1  0  0  0  0
 22 31  1  0  0  0  0
 21 28  1  0  0  0  0
 21 29  1  0  0  0  0
 33 38  1  0  0  0  0
  8 13  1  0  0  0  0
 18 27  1  0  0  0  0
 42 44  1  0  0  0  0
  7 12  1  0  0  0  0
 32 37  1  0  0  0  0
 17 26  1  0  0  0  0
M  CHG  1  24  -1
M  END
$$$$

  -OEChem-05262214473D

 47 46  0     1  0  0  0  0  0999 V2000
    0.5093   -4.7265    3.0306 C   0  0  0  0  0  0  0  0  0  0  0  0
    1.2735   -4.4402    3.9448 O   0  0  0  0  0  0  0  0  0  0  0  0
   -0.4465   -5.8608    3.1982 C   0  0  0  0  0  0  0  0  0  0  0  0
   -0.0219   -6.8213    2.8645 H   0  0  0  0  0  0  0  0  0  0  0  0
   -0.7314   -6.0185    4.2509 H   0  0  0  0  0  0  0  0  0  0  0  0
   -1.3983   -5.7596    2.6527 H   0  0  0  0  0  0  0  0  0  0  0  0
    0.4252   -4.0886    1.8040 N   0  0  0  0  0  0  0  0  0  0  0  0
    1.2532   -2.9707    1.4349 C   0  0  2  0  0  0  0  0  0  0  0  0
    0.3395   -1.8293    1.0083 C   0  0  0  0  0  0  0  0  0  0  0  0
   -0.8136   -2.0027    0.6194 O   0  0  0  0  0  0  0  0  0  0  0  0
    2.2176   -3.3411    0.3189 C   0  0  0  0  0  0  0  0  0  0  0  0
   -0.2574   -4.4279    1.1287 H   0  0  0  0  0  0  0  0  0  0  0  0
    1.8087   -2.6785    2.3327 H   0  0  0  0  0  0  0  0  0  0  0  0
    1.6793   -3.6366   -0.5890 H   0  0  0  0  0  0  0  0  0  0  0  0
    2.8662   -2.4980    0.0589 H   0  0  0  0  0  0  0  0  0  0  0  0
    2.8538   -4.1816    0.6166 H   0  0  0  0  0  0  0  0  0  0  0  0
    0.9758   -0.5952    1.0708 N   0  0  0  0  0  0  0  0  0  0  0  0
    0.3258    0.6374    0.7059 C   0  0  2  0  0  0  0  0  0  0  0  0
    1.4106    1.6962    0.5395 C   0  0  0  0  0  0  0  0  0  0  0  0
    2.5642    1.4273    0.2109 O   0  0  0  0  0  0  0  0  0  0  0  0
   -0.6962    1.0812    1.7594 C   0  0  0  0  0  0  0  0  0  0  0  0
   -1.9029    0.1499    1.8677 C   0  0  0  0  0  0  0  0  0  0  0  0
   -2.9527    0.5227    2.9198 C   0  0  0  0  0  0  0  0  0  0  0  0
   -2.6195    1.4861    3.6684 O   0  5  0  0  0  0  0  0  0  0  0  0
   -4.0187   -0.1524    2.9105 O   0  0  0  0  0  0  0  0  0  0  0  0
    1.9288   -0.5463    1.4242 H   0  0  0  0  0  0  0  0  0  0  0  0
   -0.1506    0.4656   -0.2654 H   0  0  0  0  0  0  0  0  0  0  0  0
   -1.0399    2.1003    1.5430 H   0  0  0  0  0  0  0  0  0  0  0  0
   -0.2069    1.1303    2.7415 H   0  0  0  0  0  0  0  0  0  0  0  0
   -2.3917    0.0556    0.8907 H   0  0  0  0  0  0  0  0  0  0  0  0
   -1.5434   -0.8523    2.1343 H   0  0  0  0  0  0  0  0  0  0  0  0
    0.9491    2.9687    0.8467 N   0  0  0  0  0  0  0  0  0  0  0  0
    1.7878    4.1430    0.7822 C   0  0  2  0  0  0  0  0  0  0  0  0
    1.1186    5.2441    1.5941 C   0  0  0  0  0  0  0  0  0  0  0  0
   -0.0858    5.2588    1.8397 O   0  0  0  0  0  0  0  0  0  0  0  0
    2.0098    4.5861   -0.6555 C   0  0  0  0  0  0  0  0  0  0  0  0
   -0.0271    3.0986    1.0954 H   0  0  0  0  0  0  0  0  0  0  0  0
    2.7431    3.8752    1.2467 H   0  0  0  0  0  0  0  0  0  0  0  0
    1.0637    4.8585   -1.1374 H   0  0  0  0  0  0  0  0  0  0  0  0
    2.6689    5.4592   -0.7043 H   0  0  0  0  0  0  0  0  0  0  0  0
    2.4640    3.7826   -1.2453 H   0  0  0  0  0  0  0  0  0  0  0  0
    2.0170    6.2309    1.9753 N   0  0  0  0  0  0  0  0  0  0  0  0
    1.6233    7.3891    2.7432 C   0  0  0  0  0  0  0  0  0  0  0  0
    3.0006    6.1274    1.7441 H   0  0  0  0  0  0  0  0  0  0  0  0
    1.3727    8.2144    2.0605 H   0  0  0  0  0  0  0  0  0  0  0  0
    0.7445    7.1410    3.3564 H   0  0  0  0  0  0  0  0  0  0  0  0
    2.4530    7.6941    3.3979 H   0  0  0  0  0  0  0  0  0  0  0  0
  1  3  1  0  0  0  0
  1  7  1  0  0  0  0
  1  2  2  0  0  0  0
 33 34  1  0  0  0  0
 34 42  1  0  0  0  0
 34 35  2  0  0  0  0
  8  9  1  0  0  0  0
  9 17  1  0  0  0  0
  9 10  2  0  0  0  0
 18 19  1  0  0  0  0
 19 32  1  0  0  0  0
 19 20  2  0  0  0  0
 22 23  1  0  0  0  0
 23 24  1  0  0  0  0
 23 25  2  0  0  0  0
 33 36  1  0  0  0  0
  8 11  1  0  0  0  0
 42 43  1  0  0  0  0
 21 22  1  0  0  0  0
 18 21  1  0  0  0  0
 32 33  1  0  0  0  0
  7  8  1  0  0  0  0
 17 18  1  0  0  0  0
  3  4  1  0  0  0  0
  3  5  1  0  0  0  0
  3  6  1  0  0  0  0
 36 39  1  0  0  0  0
 36 40  1  0  0  0  0
 36 41  1  0  0  0  0
 11 14  1  0  0  0  0
 11 15  1  0  0  0  0
 11 16  1  0  0  0  0
 43 45  1  0  0  0  0
 43 46  1  0  0  0  0
 43 47  1  0  0  0  0
 22 30  1  0  0  0  0
 22 31  1  0  0  0  0
 21 28  1  0  0  0  0
 21 29  1  0  0  0  0
 33 38  1  0  0  0  0
  8 13  1  0  0  0  0
 18 27  1  0  0  0  0
 42 44  1  0  0  0  0
  7 12  1  0  0  0  0
 32 37  1  0  0  0  0
 17 26  1  0  0  0  0
M  CHG  1  24  -1
M  END
$$$$

  -OEChem-05262214473D

 47 46  0     1  0  0  0  0  0999 V2000
    0.5093   -4.7265    3.0306 C   0  0  0  0  0  0  0  0  0  0  0  0
    1.2735   -4.4402    3.9448 O   0  0  0  0  0  0  0  0  0  0  0  0
   -0.4465   -5.8608    3.1982 C   0  0  0  0  0  0  0  0  0  0  0  0
   -0.0219   -6.8213    2.8645 H   0  0  0  0  0  0  0  0  0  0  0  0
   -0.7314   -6.0185    4.2509 H   0  0  0  0  0  0  0  0  0  0  0  0
   -1.3983   -5.7596    2.6527 H   0  0  0  0  0  0  0  0  0  0  0  0
    0.4252   -4.0886    1.8040 N   0  0  0  0  0  0  0  0  0  0  0  0
    1.2532   -2.9707    1.4349 C   0  0  2  0  0  0  0  0  0  0  0  0
    0.3395   -1.8293    1.0083 C   0  0  0  0  0  0  0  0  0  0  0  0
   -0.8136   -2.0027    0.6194 O   0  0  0  0  0  0  0  0  0  0  0  0
    2.2176   -3.3411    0.3189 C   0  0  0  0  0  0  0  0  0  0  0  0
   -0.2574   -4.4279    1.1287 H   0  0  0  0  0  0  0  0  0  0  0  0
    1.8087   -2.6785    2.3327 H   0  0  0  0  0  0  0  0  0  0  0  0
    1.6793   -3.6366   -0.5890 H   0  0  0  0  0  0  0  0  0  0  0  0
    2.8662   -2.4980    0.0589 H   0  0  0  0  0  0  0  0  0  0  0  0
    2.8538   -4.1816    0.6166 H   0  0  0  0  0  0  0  0  0  0  0  0
    0.9758   -0.5952    1.0708 N   0  0  0  0  0  0  0  0  0  0  0  0
    0.3258    0.6374    0.7059 C   0  0  2  0  0  0  0  0  0  0  0  0
    1.4106    1.6962    0.5395 C   0  0  0  0  0  0  0  0  0  0  0  0
    2.4745    1.4802   -0.0373 O   0  0  0  0  0  0  0  0  0  0  0  0
   -0.6962    1.0812    1.7594 C   0  0  0  0  0  0  0  0  0  0  0  0
   -1.9029    0.1499    1.8677 C   0  0  0  0  0  0  0  0  0  0  0  0
   -2.9527    0.5227    2.9198 C   0  0  0  0  0  0  0  0  0  0  0  0
   -2.6195    1.4861    3.6684 O   0  5  0  0  0  0  0  0  0  0  0  0
   -4.0187   -0.1524    2.9105 O   0  0  0  0  0  0  0  0  0  0  0  0
    1.9288   -0.5463    1.4242 H   0  0  0  0  0  0  0  0  0  0  0  0
   -0.1506    0.4656   -0.2654 H   0  0  0  0  0  0  0  0  0  0  0  0
   -1.0399    2.1003    1.5430 H   0  0  0  0  0  0  0  0  0  0  0  0
   -0.2069    1.1303    2.7415 H   0  0  0  0  0  0  0  0  0  0  0  0
   -2.3917    0.0556    0.8907 H   0  0  0  0  0  0  0  0  0  0  0  0
   -1.5434   -0.8523    2.1343 H   0  0  0  0  0  0  0  0  0  0  0  0
    1.0686    2.8941    1.1515 N   0  0  0  0  0  0  0  0  0  0  0  0
    1.9347    4.0502    1.1494 C   0  0  2  0  0  0  0  0  0  0  0  0
    1.4701    4.9879    2.2558 C   0  0  0  0  0  0  0  0  0  0  0  0
    0.3302    4.9702    2.7155 O   0  0  0  0  0  0  0  0  0  0  0  0
    1.9184    4.7514   -0.2000 C   0  0  0  0  0  0  0  0  0  0  0  0
    0.1587    2.9865    1.5934 H   0  0  0  0  0  0  0  0  0  0  0  0
    2.9441    3.6895    1.3754 H   0  0  0  0  0  0  0  0  0  0  0  0
    0.9152    5.1197   -0.4437 H   0  0  0  0  0  0  0  0  0  0  0  0
    2.5971    5.6106   -0.2089 H   0  0  0  0  0  0  0  0  0  0  0  0
    2.2242    4.0669   -0.9986 H   0  0  0  0  0  0  0  0  0  0  0  0
    2.4654    5.8759    2.6396 N   0  0  0  0  0  0  0  0  0  0  0  0
    2.2665    6.8748    3.6636 C   0  0  0  0  0  0  0  0  0  0  0  0
    3.3869    5.8062    2.2180 H   0  0  0  0  0  0  0  0  0  0  0  0
    1.9365    7.8158    3.1993 H   0  0  0  0  0  0  0  0  0  0  0  0
    1.4999    6.5266    4.3714 H   0  0  0  0  0  0  0  0  0  0  0  0
    3.2119    7.0427    4.2003 H   0  0  0  0  0  0  0  0  0  0  0  0
  1  3  1  0  0  0  0
  1  7  1  0  0  0  0
  1  2  2  0  0  0  0
 33 34  1  0  0  0  0
 34 42  1  0  0  0  0
 34 35  2  0  0  0  0
  8  9  1  0  0  0  0
  9 17  1  0  0  0  0
  9 10  2  0  0  0  0
 18 19  1  0  0  0  0
 19 32  1  0  0  0  0
 19 20  2  0  0  0  0
 22 23  1  0  0  0  0
 23 24  1  0  0  0  0
 23 25  2  0  0  0  0
 33 36  1  0  0  0  0
  8 11  1  0  0  0  0
 42 43  1  0  0  0  0
 21 22  1  0  0  0  0
 18 21  1  0  0  0  0
 32 33  1  0  0  0  0
  7  8  1  0  0  0  0
 17 18  1  0  0  0  0
  3  4  1  0  0  0  0
  3  5  1  0  0  0  0
  3  6  1  0  0  0  0
 36 39  1  0  0  0  0
 36 40  1  0  0  0  0
 36 41  1  0  0  0  0
 11 14  1  0  0  0  0
 11 15  1  0  0  0  0
 11 16  1  0  0  0  0
 43 45  1  0  0  0  0
 43 46  1  0  0  0  0
 43 47  1  0  0  0  0
 22 30  1  0  0  0  0
 22 31  1  0  0  0  0
 21 28  1  0  0  0  0
 21 29  1  0  0  0  0
 33 38  1  0  0  0  0
  8 13  1  0  0  0  0
 18 27  1  0  0  0  0
 42 44  1  0  0  0  0
  7 12  1  0  0  0  0
 32 37  1  0  0  0  0
 17 26  1  0  0  0  0
M  CHG  1  24  -1
M  END
$$$$

  -OEChem-05262214473D

 47 46  0     1  0  0  0  0  0999 V2000
    0.5093   -4.7265    3.0306 C   0  0  0  0  0  0  0  0  0  0  0  0
    1.2735   -4.4402    3.9448 O   0  0  0  0  0  0  0  0  0  0  0  0
   -0.4465   -5.8608    3.1982 C   0  0  0  0  0  0  0  0  0  0  0  0
   -0.0219   -6.8213    2.8645 H   0  0  0  0  0  0  0  0  0  0  0  0
   -0.7314   -6.0185    4.2509 H   0  0  0  0  0  0  0  0  0  0  0  0
   -1.3983   -5.7596    2.6527 H   0  0  0  0  0  0  0  0  0  0  0  0
    0.4252   -4.0886    1.8040 N   0  0  0  0  0  0  0  0  0  0  0  0
    1.2532   -2.9707    1.4349 C   0  0  2  0  0  0  0  0  0  0  0  0
    0.3395   -1.8293    1.0083 C   0  0  0  0  0  0  0  0  0  0  0  0
   -0.8136   -2.0027    0.6194 O   0  0  0  0  0  0  0  0  0  0  0  0
    2.2176   -3.3411    0.3189 C   0  0  0  0  0  0  0  0  0  0  0  0
   -0.2574   -4.4279    1.1287 H   0  0  0  0  0  0  0  0  0  0  0  0
    1.8087   -2.6785    2.3327 H   0  0  0  0  0  0  0  0  0  0  0  0
    1.6793   -3.6366   -0.5890 H   0  0  0  0  0  0  0  0  0  0  0  0
    2.8662   -2.4980    0.0589 H   0  0  0  0  0  0  0  0  0  0  0  0
    2.8538   -4.1816    0.6166 H   0  0  0  0  0  0  0  0  0  0  0  0
    0.9758   -0.5952    1.0708 N   0  0  0  0  0  0  0  0  0  0  0  0
    0.3258    0.6374    0.7059 C   0  0  2  0  0  0  0  0  0  0  0  0
    1.4106    1.6962    0.5395 C   0  0  0  0  0  0  0  0  0  0  0  0
    2.3447    1.5796   -0.2511 O   0  0  0  0  0  0  0  0  0  0  0  0
   -0.6962    1.0812    1.7594 C   0  0  0  0  0  0  0  0  0  0  0  0
   -1.9029    0.1499    1.8677 C   0  0  0  0  0  0  0  0  0  0  0  0
   -2.9527    0.5227    2.9198 C   0  0  0  0  0  0  0  0  0  0  0  0
   -2.6195    1.4861    3.6684 O   0  5  0  0  0  0  0  0  0  0  0  0
   -4.0187   -0.1524    2.9105 O   0  0  0  0  0  0  0  0  0  0  0  0
    1.9288   -0.5463    1.4242 H   0  0  0  0  0  0  0  0  0  0  0  0
   -0.1506    0.4656   -0.2654 H   0  0  0  0  0  0  0  0  0  0  0  0
   -1.0399    2.1003    1.5430 H   0  0  0  0  0  0  0  0  0  0  0  0
   -0.2069    1.1303    2.7415 H   0  0  0  0  0  0  0  0  0  0  0  0
   -2.3917    0.0556    0.8907 H   0  0  0  0  0  0  0  0  0  0  0  0
   -1.5434   -0.8523    2.1343 H   0  0  0  0  0  0  0  0  0  0  0  0
    1.2367    2.7626    1.4107 N   0  0  0  0  0  0  0  0  0  0  0  0
    2.1400    3.8888    1.4606 C   0  0  2  0  0  0  0  0  0  0  0  0
    1.9214    4.6088    2.7847 C   0  0  0  0  0  0  0  0  0  0  0  0
    0.8812    4.5186    3.4335 O   0  0  0  0  0  0  0  0  0  0  0  0
    1.9166    4.8297    0.2869 C   0  0  0  0  0  0  0  0  0  0  0  0
    0.4246    2.7812    2.0204 H   0  0  0  0  0  0  0  0  0  0  0  0
    3.1562    3.4808    1.4295 H   0  0  0  0  0  0  0  0  0  0  0  0
    0.9037    5.2485    0.3012 H   0  0  0  0  0  0  0  0  0  0  0  0
    2.6211    5.6677    0.3105 H   0  0  0  0  0  0  0  0  0  0  0  0
    2.0451    4.3030   -0.6648 H   0  0  0  0  0  0  0  0  0  0  0  0
    3.0079    5.3980    3.1352 N   0  0  0  0  0  0  0  0  0  0  0  0
    3.0387    6.1904    4.3423 C   0  0  0  0  0  0  0  0  0  0  0  0
    3.8361    5.3977    2.5471 H   0  0  0  0  0  0  0  0  0  0  0  0
    2.6744    7.2053    4.1247 H   0  0  0  0  0  0  0  0  0  0  0  0
    2.3946    5.7250    5.1029 H   0  0  0  0  0  0  0  0  0  0  0  0
    4.0708    6.2444    4.7191 H   0  0  0  0  0  0  0  0  0  0  0  0
  1  3  1  0  0  0  0
  1  7  1  0  0  0  0
  1  2  2  0  0  0  0
 33 34  1  0  0  0  0
 34 42  1  0  0  0  0
 34 35  2  0  0  0  0
  8  9  1  0  0  0  0
  9 17  1  0  0  0  0
  9 10  2  0  0  0  0
 18 19  1  0  0  0  0
 19 32  1  0  0  0  0
 19 20  2  0  0  0  0
 22 23  1  0  0  0  0
 23 24  1  0  0  0  0
 23 25  2  0  0  0  0
 33 36  1  0  0  0  0
  8 11  1  0  0  0  0
 42 43  1  0  0  0  0
 21 22  1  0  0  0  0
 18 21  1  0  0  0  0
 32 33  1  0  0  0  0
  7  8  1  0  0  0  0
 17 18  1  0  0  0  0
  3  4  1  0  0  0  0
  3  5  1  0  0  0  0
  3  6  1  0  0  0  0
 36 39  1  0  0  0  0
 36 40  1  0  0  0  0
 36 41  1  0  0  0  0
 11 14  1  0  0  0  0
 11 15  1  0  0  0  0
 11 16  1  0  0  0  0
 43 45  1  0  0  0  0
 43 46  1  0  0  0  0
 43 47  1  0  0  0  0
 22 30  1  0  0  0  0
 22 31  1  0  0  0  0
 21 28  1  0  0  0  0
 21 29  1  0  0  0  0
 33 38  1  0  0  0  0
  8 13  1  0  0  0  0
 18 27  1  0  0  0  0
 42 44  1  0  0  0  0
  7 12  1  0  0  0  0
 32 37  1  0  0  0  0
 17 26  1  0  0  0  0
M  CHG  1  24  -1
M  END
$$$$

  -OEChem-05262214473D

 47 46  0     1  0  0  0  0  0999 V2000
    0.5093   -4.7265    3.0306 C   0  0  0  0  0  0  0  0  0  0  0  0
    1.2735   -4.4402    3.9448 O   0  0  0  0  0  0  0  0  0  0  0  0
   -0.4465   -5.8608    3.1982 C   0  0  0  0  0  0  0  0  0  0  0  0
   -0.0219   -6.8213    2.8645 H   0  0  0  0  0  0  0  0  0  0  0  0
   -0.7314   -6.0185    4.2509 H   0  0  0  0  0  0  0  0  0  0  0  0
   -1.3983   -5.7596    2.6527 H   0  0  0  0  0  0  0  0  0  0  0  0
    0.4252   -4.0886    1.8040 N   0  0  0  0  0  0  0  0  0  0  0  0
    1.2532   -2.9707    1.4349 C   0  0  2  0  0  0  0  0  0  0  0  0
    0.3395   -1.8293    1.0083 C   0  0  0  0  0  0  0  0  0  0  0  0
   -0.8136   -2.0027    0.6194 O   0  0  0  0  0  0  0  0  0  0  0  0
    2.2176   -3.3411    0.3189 C   0  0  0  0  0  0  0  0  0  0  0  0
   -0.2574   -4.4279    1.1287 H   0  0  0  0  0  0  0  0  0  0  0  0
    1.8087   -2.6785    2.3327 H   0  0  0  0  0  0  0  0  0  0  0  0
    1.6793   -3.6366   -0.5890 H   0  0  0  0  0  0  0  0  0  0  0  0
    2.8662   -2.4980    0.0589 H   0  0  0  0  0  0  0  0  0  0  0  0
    2.8538   -4.1816    0.6166 H   0  0  0  0  0  0  0  0  0  0  0  0
    0.9758   -0.5952    1.0708 N   0  0  0  0  0  0  0  0  0  0  0  0
    0.3258    0.6374    0.7059 C   0  0  2  0  0  0  0  0  0  0  0  0
    1.4106    1.6962    0.5395 C   0  0  0  0  0  0  0  0  0  0  0  0
    2.1838    1.7185   -0.4160 O   0  0  0  0  0  0  0  0  0  0  0  0
   -0.6962    1.0812    1.7594 C   0  0  0  0  0  0  0  0  0  0  0  0
   -1.9029    0.1499    1.8677 C   0  0  0  0  0  0  0  0  0  0  0  0
   -2.9527    0.5227    2.9198 C   0  0  0  0  0  0  0  0  0  0  0  0
   -2.6195    1.4861    3.6684 O   0  5  0  0  0  0  0  0  0  0  0  0
   -4.0187   -0.1524    2.9105 O   0  0  0  0  0  0  0  0  0  0  0  0
    1.9288   -0.5463    1.4242 H   0  0  0  0  0  0  0  0  0  0  0  0
   -0.1506    0.4656   -0.2654 H   0  0  0  0  0  0  0  0  0  0  0  0
   -1.0399    2.1003    1.5430 H   0  0  0  0  0  0  0  0  0  0  0  0
   -0.2069    1.1303    2.7415 H   0  0  0  0  0  0  0  0  0  0  0  0
   -2.3917    0.0556    0.8907 H   0  0  0  0  0  0  0  0  0  0  0  0
   -1.5434   -0.8523    2.1343 H   0  0  0  0  0  0  0  0  0  0  0  0
    1.4419    2.5831    1.6066 N   0  0  0  0  0  0  0  0  0  0  0  0
    2.3896    3.6698    1.6945 C   0  0  2  0  0  0  0  0  0  0  0  0
    2.4416    4.1324    3.1446 C   0  0  0  0  0  0  0  0  0  0  0  0
    1.5298    3.9345    3.9449 O   0  0  0  0  0  0  0  0  0  0  0  0
    2.0046    4.8158    0.7719 C   0  0  0  0  0  0  0  0  0  0  0  0
    0.7523    2.4969    2.3473 H   0  0  0  0  0  0  0  0  0  0  0  0
    3.3648    3.2632    1.4051 H   0  0  0  0  0  0  0  0  0  0  0  0
    1.0302    5.2361    1.0464 H   0  0  0  0  0  0  0  0  0  0  0  0
    2.7392    5.6265    0.8184 H   0  0  0  0  0  0  0  0  0  0  0  0
    1.9387    4.4745   -0.2668 H   0  0  0  0  0  0  0  0  0  0  0  0
    3.6074    4.8298    3.4285 N   0  0  0  0  0  0  0  0  0  0  0  0
    3.8872    5.3826    4.7332 C   0  0  0  0  0  0  0  0  0  0  0  0
    4.3176    4.9299    2.7092 H   0  0  0  0  0  0  0  0  0  0  0  0
    3.5363    6.4243    4.7736 H   0  0  0  0  0  0  0  0  0  0  0  0
    3.3676    4.7907    5.5011 H   0  0  0  0  0  0  0  0  0  0  0  0
    4.9710    5.3534    4.9189 H   0  0  0  0  0  0  0  0  0  0  0  0
  1  3  1  0  0  0  0
  1  7  1  0  0  0  0
  1  2  2  0  0  0  0
 33 34  1  0  0  0  0
 34 42  1  0  0  0  0
 34 35  2  0  0  0  0
  8  9  1  0  0  0  0
  9 17  1  0  0  0  0
  9 10  2  0  0  0  0
 18 19  1  0  0  0  0
 19 32  1  0  0  0  0
 19 20  2  0  0  0  0
 22 23  1  0  0  0  0
 23 24  1  0  0  0  0
 23 25  2  0  0  0  0
 33 36  1  0  0  0  0
  8 11  1  0  0  0  0
 42 43  1  0  0  0  0
 21 22  1  0  0  0  0
 18 21  1  0  0  0  0
 32 33  1  0  0  0  0
  7  8  1  0  0  0  0
 17 18  1  0  0  0  0
  3  4  1  0  0  0  0
  3  5  1  0  0  0  0
  3  6  1  0  0  0  0
 36 39  1  0  0  0  0
 36 40  1  0  0  0  0
 36 41  1  0  0  0  0
 11 14  1  0  0  0  0
 11 15  1  0  0  0  0
 11 16  1  0  0  0  0
 43 45  1  0  0  0  0
 43 46  1  0  0  0  0
 43 47  1  0  0  0  0
 22 30  1  0  0  0  0
 22 31  1  0  0  0  0
 21 28  1  0  0  0  0
 21 29  1  0  0  0  0
 33 38  1  0  0  0  0
  8 13  1  0  0  0  0
 18 27  1  0  0  0  0
 42 44  1  0  0  0  0
  7 12  1  0  0  0  0
 32 37  1  0  0  0  0
 17 26  1  0  0  0  0
M  CHG  1  24  -1
M  END
$$$$

  -OEChem-05262214473D

 47 46  0     1  0  0  0  0  0999 V2000
    0.5093   -4.7265    3.0306 C   0  0  0  0  0  0  0  0  0  0  0  0
    1.2735   -4.4402    3.9448 O   0  0  0  0  0  0  0  0  0  0  0  0
   -0.4465   -5.8608    3.1982 C   0  0  0  0  0  0  0  0  0  0  0  0
   -0.0219   -6.8213    2.8645 H   0  0  0  0  0  0  0  0  0  0  0  0
   -0.7314   -6.0185    4.2509 H   0  0  0  0  0  0  0  0  0  0  0  0
   -1.3983   -5.7596    2.6527 H   0  0  0  0  0  0  0  0  0  0  0  0
    0.4252   -4.0886    1.8040 N   0  0  0  0  0  0  0  0  0  0  0  0
    1.2532   -2.9707    1.4349 C   0  0  2  0  0  0  0  0  0  0  0  0
    0.3395   -1.8293    1.0083 C   0  0  0  0  0  0  0  0  0  0  0  0
   -0.8136   -2.0027    0.6194 O   0  0  0  0  0  0  0  0  0  0  0  0
    2.2176   -3.3411    0.3189 C   0  0  0  0  0  0  0  0  0  0  0  0
   -0.2574   -4.4279    1.1287 H   0  0  0  0  0  0  0  0  0  0  0  0
    1.8087   -2.6785    2.3327 H   0  0  0  0  0  0  0  0  0  0  0  0
    1.6793   -3.6366   -0.5890 H   0  0  0  0  0  0  0  0  0  0  0  0
    2.8662   -2.4980    0.0589 H   0  0  0  0  0  0  0  0  0  0  0  0
    2.8538   -4.1816    0.6166 H   0  0  0  0  0  0  0  0  0  0  0  0
    0.9758   -0.5952    1.0708 N   0  0  0  0  0  0  0  0  0  0  0  0
    0.3258    0.6374    0.7059 C   0  0  2  0  0  0  0  0  0  0  0  0
    1.4106    1.6962    0.5395 C   0  0  0  0  0  0  0  0  0  0  0  0
    2.0026    1.8877   -0.5208 O   0  0  0  0  0  0  0  0  0  0  0  0
   -0.6962    1.0812    1.7594 C   0  0  0  0  0  0  0  0  0  0  0  0
   -1.9029    0.1499    1.8677 C   0  0  0  0  0  0  0  0  0  0  0  0
   -2.9527    0.5227    2.9198 C   0  0  0  0  0  0  0  0  0  0  0  0
   -2.6195    1.4861    3.6684 O   0  5  0  0  0  0  0  0  0  0  0  0
   -4.0187   -0.1524    2.9105 O   0  0  0  0  0  0  0  0  0  0  0  0
    1.9288   -0.5463    1.4242 H   0  0  0  0  0  0  0  0  0  0  0  0
   -0.1506    0.4656   -0.2654 H   0  0  0  0  0  0  0  0  0  0  0  0
   -1.0399    2.1003    1.5430 H   0  0  0  0  0  0  0  0  0  0  0  0
   -0.2069    1.1303    2.7415 H   0  0  0  0  0  0  0  0  0  0  0  0
   -2.3917    0.0556    0.8907 H   0  0  0  0  0  0  0  0  0  0  0  0
   -1.5434   -0.8523    2.1343 H   0  0  0  0  0  0  0  0  0  0  0  0
    1.6703    2.3679    1.7260 N   0  0  0  0  0  0  0  0  0  0  0  0
    2.6666    3.4082    1.8354 C   0  0  2  0  0  0  0  0  0  0  0  0
    2.9953    3.5913    3.3111 C   0  0  0  0  0  0  0  0  0  0  0  0
    2.2316    3.2579    4.2148 O   0  0  0  0  0  0  0  0  0  0  0  0
    2.1764    4.7106    1.2221 C   0  0  0  0  0  0  0  0  0  0  0  0
    1.1195    2.1528    2.5518 H   0  0  0  0  0  0  0  0  0  0  0  0
    3.5558    3.0516    1.3041 H   0  0  0  0  0  0  0  0  0  0  0  0
    1.2859    5.0833    1.7413 H   0  0  0  0  0  0  0  0  0  0  0  0
    2.9433    5.4899    1.2802 H   0  0  0  0  0  0  0  0  0  0  0  0
    1.9122    4.5700    0.1684 H   0  0  0  0  0  0  0  0  0  0  0  0
    4.2232    4.2101    3.4995 N   0  0  0  0  0  0  0  0  0  0  0  0
    4.7542    4.5063    4.8095 C   0  0  0  0  0  0  0  0  0  0  0  0
    4.7986    4.4346    2.6930 H   0  0  0  0  0  0  0  0  0  0  0  0
    4.4633    5.5261    5.1017 H   0  0  0  0  0  0  0  0  0  0  0  0
    4.3527    3.7875    5.5389 H   0  0  0  0  0  0  0  0  0  0  0  0
    5.8514    4.4307    4.7860 H   0  0  0  0  0  0  0  0  0  0  0  0
  1  3  1  0  0  0  0
  1  7  1  0  0  0  0
  1  2  2  0  0  0  0
 33 34  1  0  0  0  0
 34 42  1  0  0  0  0
 34 35  2  0  0  0  0
  8  9  1  0  0  0  0
  9 17  1  0  0  0  0
  9 10  2  0  0  0  0
 18 19  1  0  0  0  0
 19 32  1  0  0  0  0
 19 20  2  0  0  0  0
 22 23  1  0  0  0  0
 23 24  1  0  0  0  0
 23 25  2  0  0  0  0
 33 36  1  0  0  0  0
  8 11  1  0  0  0  0
 42 43  1  0  0  0  0
 21 22  1  0  0  0  0
 18 21  1  0  0  0  0
 32 33  1  0  0  0  0
  7  8  1  0  0  0  0
 17 18  1  0  0  0  0
  3  4  1  0  0  0  0
  3  5  1  0  0  0  0
  3  6  1  0  0  0  0
 36 39  1  0  0  0  0
 36 40  1  0  0  0  0
 36 41  1  0  0  0  0
 11 14  1  0  0  0  0
 11 15  1  0  0  0  0
 11 16  1  0  0  0  0
 43 45  1  0  0  0  0
 43 46  1  0  0  0  0
 43 47  1  0  0  0  0
 22 30  1  0  0  0  0
 22 31  1  0  0  0  0
 21 28  1  0  0  0  0
 21 29  1  0  0  0  0
 33 38  1  0  0  0  0
  8 13  1  0  0  0  0
 18 27  1  0  0  0  0
 42 44  1  0  0  0  0
  7 12  1  0  0  0  0
 32 37  1  0  0  0  0
 17 26  1  0  0  0  0
M  CHG  1  24  -1
M  END
$$$$

  -OEChem-05262214473D

 47 46  0     1  0  0  0  0  0999 V2000
    0.5093   -4.7265    3.0306 C   0  0  0  0  0  0  0  0  0  0  0  0
    1.2735   -4.4402    3.9448 O   0  0  0  0  0  0  0  0  0  0  0  0
   -0.4465   -5.8608    3.1982 C   0  0  0  0  0  0  0  0  0  0  0  0
   -0.0219   -6.8213    2.8645 H   0  0  0  0  0  0  0  0  0  0  0  0
   -0.7314   -6.0185    4.2509 H   0  0  0  0  0  0  0  0  0  0  0  0
   -1.3983   -5.7596    2.6527 H   0  0  0  0  0  0  0  0  0  0  0  0
    0.4252   -4.0886    1.8040 N   0  0  0  0  0  0  0  0  0  0  0  0
    1.2532   -2.9707    1.4349 C   0  0  2  0  0  0  0  0  0  0  0  0
    0.3395   -1.8293    1.0083 C   0  0  0  0  0  0  0  0  0  0  0  0
   -0.8136   -2.0027    0.6194 O   0  0  0  0  0  0  0  0  0  0  0  0
    2.2176   -3.3411    0.3189 C   0  0  0  0  0  0  0  0  0  0  0  0
   -0.2574   -4.4279    1.1287 H   0  0  0  0  0  0  0  0  0  0  0  0
    1.8087   -2.6785    2.3327 H   0  0  0  0  0  0  0  0  0  0  0  0
    1.6793   -3.6366   -0.5890 H   0  0  0  0  0  0  0  0  0  0  0  0
    2.8662   -2.4980    0.0589 H   0  0  0  0  0  0  0  0  0  0  0  0
    2.8538   -4.1816    0.6166 H   0  0  0  0  0  0  0  0  0  0  0  0
    0.9758   -0.5952    1.0708 N   0  0  0  0  0  0  0  0  0  0  0  0
    0.3258    0.6374    0.7059 C   0  0  2  0  0  0  0  0  0  0  0  0
    1.4106    1.6962    0.5395 C   0  0  0  0  0  0  0  0  0  0  0  0
    1.8135    2.0755   -0.5583 O   0  0  0  0  0  0  0  0  0  0  0  0
   -0.6962    1.0812    1.7594 C   0  0  0  0  0  0  0  0  0  0  0  0
   -1.9029    0.1499    1.8677 C   0  0  0  0  0  0  0  0  0  0  0  0
   -2.9527    0.5227    2.9198 C   0  0  0  0  0  0  0  0  0  0  0  0
   -2.6195    1.4861    3.6684 O   0  5  0  0  0  0  0  0  0  0  0  0
   -4.0187   -0.1524    2.9105 O   0  0  0  0  0  0  0  0  0  0  0  0
    1.9288   -0.5463    1.4242 H   0  0  0  0  0  0  0  0  0  0  0  0
   -0.1506    0.4656   -0.2654 H   0  0  0  0  0  0  0  0  0  0  0  0
   -1.0399    2.1003    1.5430 H   0  0  0  0  0  0  0  0  0  0  0  0
   -0.2069    1.1303    2.7415 H   0  0  0  0  0  0  0  0  0  0  0  0
   -2.3917    0.0556    0.8907 H   0  0  0  0  0  0  0  0  0  0  0  0
   -1.5434   -0.8523    2.1343 H   0  0  0  0  0  0  0  0  0  0  0  0
    1.9063    2.1316    1.7606 N   0  0  0  0  0  0  0  0  0  0  0  0
    2.9521    3.1217    1.8734 C   0  0  2  0  0  0  0  0  0  0  0  0
    3.5448    3.0223    3.2728 C   0  0  0  0  0  0  0  0  0  0  0  0
    2.9390    2.5348    4.2249 O   0  0  0  0  0  0  0  0  0  0  0  0
    2.4202    4.5212    1.6066 C   0  0  0  0  0  0  0  0  0  0  0  0
    1.5013    1.7724    2.6200 H   0  0  0  0  0  0  0  0  0  0  0  0
    3.7162    2.8605    1.1332 H   0  0  0  0  0  0  0  0  0  0  0  0
    1.6535    4.8006    2.3384 H   0  0  0  0  0  0  0  0  0  0  0  0
    3.2197    5.2672    1.6644 H   0  0  0  0  0  0  0  0  0  0  0  0
    1.9676    4.5829    0.6110 H   0  0  0  0  0  0  0  0  0  0  0  0
    4.8133    3.5810    3.3432 N   0  0  0  0  0  0  0  0  0  0  0  0
    5.5807    3.6214    4.5661 C   0  0  0  0  0  0  0  0  0  0  0  0
    5.2463    3.9456    2.4998 H   0  0  0  0  0  0  0  0  0  0  0  0
    5.3923    4.5720    5.0866 H   0  0  0  0  0  0  0  0  0  0  0  0
    5.2826    2.7836    5.2137 H   0  0  0  0  0  0  0  0  0  0  0  0
    6.6518    3.5389    4.3296 H   0  0  0  0  0  0  0  0  0  0  0  0
  1  3  1  0  0  0  0
  1  7  1  0  0  0  0
  1  2  2  0  0  0  0
 33 34  1  0  0  0  0
 34 42  1  0  0  0  0
 34 35  2  0  0  0  0
  8  9  1  0  0  0  0
  9 17  1  0  0  0  0
  9 10  2  0  0  0  0
 18 19  1  0  0  0  0
 19 32  1  0  0  0  0
 19 20  2  0  0  0  0
 22 23  1  0  0  0  0
 23 24  1  0  0  0  0
 23 25  2  0  0  0  0
 33 36  1  0  0  0  0
  8 11  1  0  0  0  0
 42 43  1  0  0  0  0
 21 22  1  0  0  0  0
 18 21  1  0  0  0  0
 32 33  1  0  0  0  0
  7  8  1  0  0  0  0
 17 18  1  0  0  0  0
  3  4  1  0  0  0  0
  3  5  1  0  0  0  0
  3  6  1  0  0  0  0
 36 39  1  0  0  0  0
 36 40  1  0  0  0  0
 36 41  1  0  0  0  0
 11 14  1  0  0  0  0
 11 15  1  0  0  0  0
 11 16  1  0  0  0  0
 43 45  1  0  0  0  0
 43 46  1  0  0  0  0
 43 47  1  0  0  0  0
 22 30  1  0  0  0  0
 22 31  1  0  0  0  0
 21 28  1  0  0  0  0
 21 29  1  0  0  0  0
 33 38  1  0  0  0  0
  8 13  1  0  0  0  0
 18 27  1  0  0  0  0
 42 44  1  0  0  0  0
  7 12  1  0  0  0  0
 32 37  1  0  0  0  0
 17 26  1  0  0  0  0
M  CHG  1  24  -1
M  END
$$$$

  -OEChem-05262214473D

 47 46  0     1  0  0  0  0  0999 V2000
    0.5093   -4.7265    3.0306 C   0  0  0  0  0  0  0  0  0  0  0  0
    1.2735   -4.4402    3.9448 O   0  0  0  0  0  0  0  0  0  0  0  0
   -0.4465   -5.8608    3.1982 C   0  0  0  0  0  0  0  0  0  0  0  0
   -0.0219   -6.8213    2.8645 H   0  0  0  0  0  0  0  0  0  0  0  0
   -0.7314   -6.0185    4.2509 H   0  0  0  0  0  0  0  0  0  0  0  0
   -1.3983   -5.7596    2.6527 H   0  0  0  0  0  0  0  0  0  0  0  0
    0.4252   -4.0886    1.8040 N   0  0  0  0  0  0  0  0  0  0  0  0
    1.2532   -2.9707    1.4349 C   0  0  2  0  0  0  0  0  0  0  0  0
    0.3395   -1.8293    1.0083 C   0  0  0  0  0  0  0  0  0  0  0  0
   -0.8136   -2.0027    0.6194 O   0  0  0  0  0  0  0  0  0  0  0  0
    2.2176   -3.3411    0.3189 C   0  0  0  0  0  0  0  0  0  0  0  0
   -0.2574   -4.4279    1.1287 H   0  0  0  0  0  0  0  0  0  0  0  0
    1.8087   -2.6785    2.3327 H   0  0  0  0  0  0  0  0  0  0  0  0
    1.6793   -3.6366   -0.5890 H   0  0  0  0  0  0  0  0  0  0  0  0
    2.8662   -2.4980    0.0589 H   0  0  0  0  0  0  0  0  0  0  0  0
    2.8538   -4.1816    0.6166 H   0  0  0  0  0  0  0  0  0  0  0  0
    0.9758   -0.5952    1.0708 N   0  0  0  0  0  0  0  0  0  0  0  0
    0.3258    0.6374    0.7059 C   0  0  2  0  0  0  0  0  0  0  0  0
    1.4106    1.6962    0.5395 C   0  0  0  0  0  0  0  0  0  0  0  0
    1.6295    2.2691   -0.5259 O   0  0  0  0  0  0  0  0  0  0  0  0
   -0.6962    1.0812    1.7594 C   0  0  0  0  0  0  0  0  0  0  0  0
   -1.9029    0.1499    1.8677 C   0  0  0  0  0  0  0  0  0  0  0  0
   -2.9527    0.5227    2.9198 C   0  0  0  0  0  0  0  0  0  0  0  0
   -2.6195    1.4861    3.6684 O   0  5  0  0  0  0  0  0  0  0  0  0
   -4.0187   -0.1524    2.9105 O   0  0  0  0  0  0  0  0  0  0  0  0
    1.9288   -0.5463    1.4242 H   0  0  0  0  0  0  0  0  0  0  0  0
   -0.1506    0.4656   -0.2654 H   0  0  0  0  0  0  0  0  0  0  0  0
   -1.0399    2.1003    1.5430 H   0  0  0  0  0  0  0  0  0  0  0  0
   -0.2069    1.1303    2.7415 H   0  0  0  0  0  0  0  0  0  0  0  0
   -2.3917    0.0556    0.8907 H   0  0  0  0  0  0  0  0  0  0  0  0
   -1.5434   -0.8523    2.1343 H   0  0  0  0  0  0  0  0  0  0  0  0
    2.1338    1.8903    1.7081 N   0  0  0  0  0  0  0  0  0  0  0  0
    3.2266    2.8299    1.8062 C   0  0  2  0  0  0  0  0  0  0  0  0
    4.0527    2.4642    3.0323 C   0  0  0  0  0  0  0  0  0  0  0  0
    3.6036    1.8145    3.9743 O   0  0  0  0  0  0  0  0  0  0  0  0
    2.7195    4.2606    1.8994 C   0  0  0  0  0  0  0  0  0  0  0  0
    1.8716    1.3816    2.5472 H   0  0  0  0  0  0  0  0  0  0  0  0
    3.8350    2.7028    0.9041 H   0  0  0  0  0  0  0  0  0  0  0  0
    2.1078    4.4072    2.7970 H   0  0  0  0  0  0  0  0  0  0  0  0
    3.5494    4.9735    1.9449 H   0  0  0  0  0  0  0  0  0  0  0  0
    2.1010    4.5122    1.0310 H   0  0  0  0  0  0  0  0  0  0  0  0
    5.3374    2.9855    2.9705 N   0  0  0  0  0  0  0  0  0  0  0  0
    6.3102    2.7881    4.0196 C   0  0  0  0  0  0  0  0  0  0  0  0
    5.6302    3.4961    2.1426 H   0  0  0  0  0  0  0  0  0  0  0  0
    6.2601    3.6269    4.7295 H   0  0  0  0  0  0  0  0  0  0  0  0
    6.0941    1.8476    4.5477 H   0  0  0  0  0  0  0  0  0  0  0  0
    7.3177    2.7390    3.5808 H   0  0  0  0  0  0  0  0  0  0  0  0
  1  3  1  0  0  0  0
  1  7  1  0  0  0  0
  1  2  2  0  0  0  0
 33 34  1  0  0  0  0
 34 42  1  0  0  0  0
 34 35  2  0  0  0  0
  8  9  1  0  0  0  0
  9 17  1  0  0  0  0
  9 10  2  0  0  0  0
 18 19  1  0  0  0  0
 19 32  1  0  0  0  0
 19 20  2  0  0  0  0
 22 23  1  0  0  0  0
 23 24  1  0  0  0  0
 23 25  2  0  0  0  0
 33 36  1  0  0  0  0
  8 11  1  0  0  0  0
 42 43  1  0  0  0  0
 21 22  1  0  0  0  0
 18 21  1  0  0  0  0
 32 33  1  0  0  0  0
  7  8  1  0  0  0  0
 17 18  1  0  0  0  0
  3  4  1  0  0  0  0
  3  5  1  0  0  0  0
  3  6  1  0  0  0  0
 36 39  1  0  0  0  0
 36 40  1  0  0  0  0
 36 41  1  0  0  0  0
 11 14  1  0  0  0  0
 11 15  1  0  0  0  0
 11 16  1  0  0  0  0
 43 45  1  0  0  0  0
 43 46  1  0  0  0  0
 43 47  1  0  0  0  0
 22 30  1  0  0  0  0
 22 31  1  0  0  0  0
 21 28  1  0  0  0  0
 21 29  1  0  0  0  0
 33 38  1  0  0  0  0
  8 13  1  0  0  0  0
 18 27  1  0  0  0  0
 42 44  1  0  0  0  0
  7 12  1  0  0  0  0
 32 37  1  0  0  0  0
 17 26  1  0  0  0  0
M  CHG  1  24  -1
M  END
$$$$

  -OEChem-05262214473D

 47 46  0     1  0  0  0  0  0999 V2000
    0.5093   -4.7265    3.0306 C   0  0  0  0  0  0  0  0  0  0  0  0
    1.2735   -4.4402    3.9448 O   0  0  0  0  0  0  0  0  0  0  0  0
   -0.4465   -5.8608    3.1982 C   0  0  0  0  0  0  0  0  0  0  0  0
   -0.0219   -6.8213    2.8645 H   0  0  0  0  0  0  0  0  0  0  0  0
   -0.7314   -6.0185    4.2509 H   0  0  0  0  0  0  0  0  0  0  0  0
   -1.3983   -5.7596    2.6527 H   0  0  0  0  0  0  0  0  0  0  0  0
    0.4252   -4.0886    1.8040 N   0  0  0  0  0  0  0  0  0  0  0  0
    1.2532   -2.9707    1.4349 C   0  0  2  0  0  0  0  0  0  0  0  0
    0.3395   -1.8293    1.0083 C   0  0  0  0  0  0  0  0  0  0  0  0
   -0.8136   -2.0027    0.6194 O   0  0  0  0  0  0  0  0  0  0  0  0
    2.2176   -3.3411    0.3189 C   0  0  0  0  0  0  0  0  0  0  0  0
   -0.2574   -4.4279    1.1287 H   0  0  0  0  0  0  0  0  0  0  0  0
    1.8087   -2.6785    2.3327 H   0  0  0  0  0  0  0  0  0  0  0  0
    1.6793   -3.6366   -0.5890 H   0  0  0  0  0  0  0  0  0  0  0  0
    2.8662   -2.4980    0.0589 H   0  0  0  0  0  0  0  0  0  0  0  0
    2.8538   -4.1816    0.6166 H   0  0  0  0  0  0  0  0  0  0  0  0
    0.9758   -0.5952    1.0708 N   0  0  0  0  0  0  0  0  0  0  0  0
    0.3258    0.6374    0.7059 C   0  0  2  0  0  0  0  0  0  0  0  0
    1.4106    1.6962    0.5395 C   0  0  0  0  0  0  0  0  0  0  0  0
    1.4630    2.4554   -0.4260 O   0  0  0  0  0  0  0  0  0  0  0  0
   -0.6962    1.0812    1.7594 C   0  0  0  0  0  0  0  0  0  0  0  0
   -1.9029    0.1499    1.8677 C   0  0  0  0  0  0  0  0  0  0  0  0
   -2.9527    0.5227    2.9198 C   0  0  0  0  0  0  0  0  0  0  0  0
   -2.6195    1.4861    3.6684 O   0  5  0  0  0  0  0  0  0  0  0  0
   -4.0187   -0.1524    2.9105 O   0  0  0  0  0  0  0  0  0  0  0  0
    1.9288   -0.5463    1.4242 H   0  0  0  0  0  0  0  0  0  0  0  0
   -0.1506    0.4656   -0.2654 H   0  0  0  0  0  0  0  0  0  0  0  0
   -1.0399    2.1003    1.5430 H   0  0  0  0  0  0  0  0  0  0  0  0
   -0.2069    1.1303    2.7415 H   0  0  0  0  0  0  0  0  0  0  0  0
   -2.3917    0.0556    0.8907 H   0  0  0  0  0  0  0  0  0  0  0  0
   -1.5434   -0.8523    2.1343 H   0  0  0  0  0  0  0  0  0  0  0  0
    2.3373    1.6604    1.5721 N   0  0  0  0  0  0  0  0  0  0  0  0
    3.4714    2.5527    1.6382 C   0  0  2  0  0  0  0  0  0  0  0  0
    4.4842    1.9551    2.6060 C   0  0  0  0  0  0  0  0  0  0  0  0
    4.1802    1.1462    3.4802 O   0  0  0  0  0  0  0  0  0  0  0  0
    3.0538    3.9465    2.0804 C   0  0  0  0  0  0  0  0  0  0  0  0
    2.2052    1.0070    2.3384 H   0  0  0  0  0  0  0  0  0  0  0  0
    3.9041    2.5893    0.6324 H   0  0  0  0  0  0  0  0  0  0  0  0
    2.6180    3.9299    3.0860 H   0  0  0  0  0  0  0  0  0  0  0  0
    3.9099    4.6289    2.1024 H   0  0  0  0  0  0  0  0  0  0  0  0
    2.3034    4.3628    1.3997 H   0  0  0  0  0  0  0  0  0  0  0  0
    5.7599    2.4641    2.4066 N   0  0  0  0  0  0  0  0  0  0  0  0
    6.8932    2.0632    3.2072 C   0  0  0  0  0  0  0  0  0  0  0  0
    5.9241    3.1169    1.6459 H   0  0  0  0  0  0  0  0  0  0  0  0
    7.0073    2.7552    4.0545 H   0  0  0  0  0  0  0  0  0  0  0  0
    6.7317    1.0432    3.5861 H   0  0  0  0  0  0  0  0  0  0  0  0
    7.8038    2.0854    2.5905 H   0  0  0  0  0  0  0  0  0  0  0  0
  1  3  1  0  0  0  0
  1  7  1  0  0  0  0
  1  2  2  0  0  0  0
 33 34  1  0  0  0  0
 34 42  1  0  0  0  0
 34 35  2  0  0  0  0
  8  9  1  0  0  0  0
  9 17  1  0  0  0  0
  9 10  2  0  0  0  0
 18 19  1  0  0  0  0
 19 32  1  0  0  0  0
 19 20  2  0  0  0  0
 22 23  1  0  0  0  0
 23 24  1  0  0  0  0
 23 25  2  0  0  0  0
 33 36  1  0  0  0  0
  8 11  1  0  0  0  0
 42 43  1  0  0  0  0
 21 22  1  0  0  0  0
 18 21  1  0  0  0  0
 32 33  1  0  0  0  0
  7  8  1  0  0  0  0
 17 18  1  0  0  0  0
  3  4  1  0  0  0  0
  3  5  1  0  0  0  0
  3  6  1  0  0  0  0
 36 39  1  0  0  0  0
 36 40  1  0  0  0  0
 36 41  1  0  0  0  0
 11 14  1  0  0  0  0
 11 15  1  0  0  0  0
 11 16  1  0  0  0  0
 43 45  1  0  0  0  0
 43 46  1  0  0  0  0
 43 47  1  0  0  0  0
 22 30  1  0  0  0  0
 22 31  1  0  0  0  0
 21 28  1  0  0  0  0
 21 29  1  0  0  0  0
 33 38  1  0  0  0  0
  8 13  1  0  0  0  0
 18 27  1  0  0  0  0
 42 44  1  0  0  0  0
  7 12  1  0  0  0  0
 32 37  1  0  0  0  0
 17 26  1  0  0  0  0
M  CHG  1  24  -1
M  END
$$$$

  -OEChem-05262214473D

 47 46  0     1  0  0  0  0  0999 V2000
    0.5093   -4.7265    3.0306 C   0  0  0  0  0  0  0  0  0  0  0  0
    1.2735   -4.4402    3.9448 O   0  0  0  0  0  0  0  0  0  0  0  0
   -0.4465   -5.8608    3.1982 C   0  0  0  0  0  0  0  0  0  0  0  0
   -0.0219   -6.8213    2.8645 H   0  0  0  0  0  0  0  0  0  0  0  0
   -0.7314   -6.0185    4.2509 H   0  0  0  0  0  0  0  0  0  0  0  0
   -1.3983   -5.7596    2.6527 H   0  0  0  0  0  0  0  0  0  0  0  0
    0.4252   -4.0886    1.8040 N   0  0  0  0  0  0  0  0  0  0  0  0
    1.2532   -2.9707    1.4349 C   0  0  2  0  0  0  0  0  0  0  0  0
    0.3395   -1.8293    1.0083 C   0  0  0  0  0  0  0  0  0  0  0  0
   -0.8136   -2.0027    0.6194 O   0  0  0  0  0  0  0  0  0  0  0  0
    2.2176   -3.3411    0.3189 C   0  0  0  0  0  0  0  0  0  0  0  0
   -0.2574   -4.4279    1.1287 H   0  0  0  0  0  0  0  0  0  0  0  0
    1.8087   -2.6785    2.3327 H   0  0  0  0  0  0  0  0  0  0  0  0
    1.6793   -3.6366   -0.5890 H   0  0  0  0  0  0  0  0  0  0  0  0
    2.8662   -2.4980    0.0589 H   0  0  0  0  0  0  0  0  0  0  0  0
    2.8538   -4.1816    0.6166 H   0  0  0  0  0  0  0  0  0  0  0  0
    0.9758   -0.5952    1.0708 N   0  0  0  0  0  0  0  0  0  0  0  0
    0.3258    0.6374    0.7059 C   0  0  2  0  0  0  0  0  0  0  0  0
    1.4106    1.6962    0.5395 C   0  0  0  0  0  0  0  0  0  0  0  0
    1.3254    2.6217   -0.2652 O   0  0  0  0  0  0  0  0  0  0  0  0
   -0.6962    1.0812    1.7594 C   0  0  0  0  0  0  0  0  0  0  0  0
   -1.9029    0.1499    1.8677 C   0  0  0  0  0  0  0  0  0  0  0  0
   -2.9527    0.5227    2.9198 C   0  0  0  0  0  0  0  0  0  0  0  0
   -2.6195    1.4861    3.6684 O   0  5  0  0  0  0  0  0  0  0  0  0
   -4.0187   -0.1524    2.9105 O   0  0  0  0  0  0  0  0  0  0  0  0
    1.9288   -0.5463    1.4242 H   0  0  0  0  0  0  0  0  0  0  0  0
   -0.1506    0.4656   -0.2654 H   0  0  0  0  0  0  0  0  0  0  0  0
   -1.0399    2.1003    1.5430 H   0  0  0  0  0  0  0  0  0  0  0  0
   -0.2069    1.1303    2.7415 H   0  0  0  0  0  0  0  0  0  0  0  0
   -2.3917    0.0556    0.8907 H   0  0  0  0  0  0  0  0  0  0  0  0
   -1.5434   -0.8523    2.1343 H   0  0  0  0  0  0  0  0  0  0  0  0
    2.5029    1.4577    1.3618 N   0  0  0  0  0  0  0  0  0  0  0  0
    3.6699    2.3089    1.3808 C   0  0  2  0  0  0  0  0  0  0  0  0
    4.8100    1.5297    2.0230 C   0  0  0  0  0  0  0  0  0  0  0  0
    4.6294    0.5753    2.7763 O   0  0  0  0  0  0  0  0  0  0  0  0
    3.4004    3.6004    2.1373 C   0  0  0  0  0  0  0  0  0  0  0  0
    2.4792    0.6743    2.0079 H   0  0  0  0  0  0  0  0  0  0  0  0
    3.9188    2.5277    0.3367 H   0  0  0  0  0  0  0  0  0  0  0  0
    3.1493    3.4013    3.1855 H   0  0  0  0  0  0  0  0  0  0  0  0
    4.2768    4.2568    2.1264 H   0  0  0  0  0  0  0  0  0  0  0  0
    2.5608    4.1450    1.6920 H   0  0  0  0  0  0  0  0  0  0  0  0
    6.0519    2.0523    1.6900 N   0  0  0  0  0  0  0  0  0  0  0  0
    7.2897    1.4961    2.1842 C   0  0  0  0  0  0  0  0  0  0  0  0
    6.1081    2.8337    1.0435 H   0  0  0  0  0  0  0  0  0  0  0  0
    7.5832    2.0164    3.1078 H   0  0  0  0  0  0  0  0  0  0  0  0
    7.1522    0.4252    2.3947 H   0  0  0  0  0  0  0  0  0  0  0  0
    8.0768    1.6226    1.4263 H   0  0  0  0  0  0  0  0  0  0  0  0
  1  3  1  0  0  0  0
  1  7  1  0  0  0  0
  1  2  2  0  0  0  0
 33 34  1  0  0  0  0
 34 42  1  0  0  0  0
 34 35  2  0  0  0  0
  8  9  1  0  0  0  0
  9 17  1  0  0  0  0
  9 10  2  0  0  0  0
 18 19  1  0  0  0  0
 19 32  1  0  0  0  0
 19 20  2  0  0  0  0
 22 23  1  0  0  0  0
 23 24  1  0  0  0  0
 23 25  2  0  0  0  0
 33 36  1  0  0  0  0
  8 11  1  0  0  0  0
 42 43  1  0  0  0  0
 21 22  1  0  0  0  0
 18 21  1  0  0  0  0
 32 33  1  0  0  0  0
  7  8  1  0  0  0  0
 17 18  1  0  0  0  0
  3  4  1  0  0  0  0
  3  5  1  0  0  0  0
  3  6  1  0  0  0  0
 36 39  1  0  0  0  0
 36 40  1  0  0  0  0
 36 41  1  0  0  0  0
 11 14  1  0  0  0  0
 11 15  1  0  0  0  0
 11 16  1  0  0  0  0
 43 45  1  0  0  0  0
 43 46  1  0  0  0  0
 43 47  1  0  0  0  0
 22 30  1  0  0  0  0
 22 31  1  0  0  0  0
 21 28  1  0  0  0  0
 21 29  1  0  0  0  0
 33 38  1  0  0  0  0
  8 13  1  0  0  0  0
 18 27  1  0  0  0  0
 42 44  1  0  0  0  0
  7 12  1  0  0  0  0
 32 37  1  0  0  0  0
 17 26  1  0  0  0  0
M  CHG  1  24  -1
M  END
$$$$

  -OEChem-05262214473D

 47 46  0     1  0  0  0  0  0999 V2000
    0.5093   -4.7265    3.0306 C   0  0  0  0  0  0  0  0  0  0  0  0
    1.2735   -4.4402    3.9448 O   0  0  0  0  0  0  0  0  0  0  0  0
   -0.4465   -5.8608    3.1982 C   0  0  0  0  0  0  0  0  0  0  0  0
   -0.0219   -6.8213    2.8645 H   0  0  0  0  0  0  0  0  0  0  0  0
   -0.7314   -6.0185    4.2509 H   0  0  0  0  0  0  0  0  0  0  0  0
   -1.3983   -5.7596    2.6527 H   0  0  0  0  0  0  0  0  0  0  0  0
    0.4252   -4.0886    1.8040 N   0  0  0  0  0  0  0  0  0  0  0  0
    1.2532   -2.9707    1.4349 C   0  0  2  0  0  0  0  0  0  0  0  0
    0.3395   -1.8293    1.0083 C   0  0  0  0  0  0  0  0  0  0  0  0
   -0.8136   -2.0027    0.6194 O   0  0  0  0  0  0  0  0  0  0  0  0
    2.2176   -3.3411    0.3189 C   0  0  0  0  0  0  0  0  0  0  0  0
   -0.2574   -4.4279    1.1287 H   0  0  0  0  0  0  0  0  0  0  0  0
    1.8087   -2.6785    2.3327 H   0  0  0  0  0  0  0  0  0  0  0  0
    1.6793   -3.6366   -0.5890 H   0  0  0  0  0  0  0  0  0  0  0  0
    2.8662   -2.4980    0.0589 H   0  0  0  0  0  0  0  0  0  0  0  0
    2.8538   -4.1816    0.6166 H   0  0  0  0  0  0  0  0  0  0  0  0
    0.9758   -0.5952    1.0708 N   0  0  0  0  0  0  0  0  0  0  0  0
    0.3258    0.6374    0.7059 C   0  0  2  0  0  0  0  0  0  0  0  0
    1.4106    1.6962    0.5395 C   0  0  0  0  0  0  0  0  0  0  0  0
    1.2260    2.7565   -0.0546 O   0  0  0  0  0  0  0  0  0  0  0  0
   -0.6962    1.0812    1.7594 C   0  0  0  0  0  0  0  0  0  0  0  0
   -1.9029    0.1499    1.8677 C   0  0  0  0  0  0  0  0  0  0  0  0
   -2.9527    0.5227    2.9198 C   0  0  0  0  0  0  0  0  0  0  0  0
   -2.6195    1.4861    3.6684 O   0  5  0  0  0  0  0  0  0  0  0  0
   -4.0187   -0.1524    2.9105 O   0  0  0  0  0  0  0  0  0  0  0  0
    1.9288   -0.5463    1.4242 H   0  0  0  0  0  0  0  0  0  0  0  0
   -0.1506    0.4656   -0.2654 H   0  0  0  0  0  0  0  0  0  0  0  0
   -1.0399    2.1003    1.5430 H   0  0  0  0  0  0  0  0  0  0  0  0
   -0.2069    1.1303    2.7415 H   0  0  0  0  0  0  0  0  0  0  0  0
   -2.3917    0.0556    0.8907 H   0  0  0  0  0  0  0  0  0  0  0  0
   -1.5434   -0.8523    2.1343 H   0  0  0  0  0  0  0  0  0  0  0  0
    2.6194    1.2959    1.0916 N   0  0  0  0  0  0  0  0  0  0  0  0
    3.8084    2.1153    1.0517 C   0  0  2  0  0  0  0  0  0  0  0  0
    5.0080    1.2169    1.3229 C   0  0  0  0  0  0  0  0  0  0  0  0
    4.9208    0.1407    1.9106 O   0  0  0  0  0  0  0  0  0  0  0  0
    3.7357    3.2458    2.0663 C   0  0  0  0  0  0  0  0  0  0  0  0
    2.6752    0.4060    1.5780 H   0  0  0  0  0  0  0  0  0  0  0  0
    3.8782    2.5222    0.0371 H   0  0  0  0  0  0  0  0  0  0  0  0
    3.6654    2.8574    3.0889 H   0  0  0  0  0  0  0  0  0  0  0  0
    4.6250    3.8827    2.0151 H   0  0  0  0  0  0  0  0  0  0  0  0
    2.8559    3.8735    1.8880 H   0  0  0  0  0  0  0  0  0  0  0  0
    6.1935    1.7783    0.8696 N   0  0  0  0  0  0  0  0  0  0  0  0
    7.4730    1.1254    1.0204 C   0  0  0  0  0  0  0  0  0  0  0  0
    6.1695    2.6659    0.3764 H   0  0  0  0  0  0  0  0  0  0  0  0
    7.9485    1.4608    1.9539 H   0  0  0  0  0  0  0  0  0  0  0  0
    7.3267    0.0357    1.0545 H   0  0  0  0  0  0  0  0  0  0  0  0
    8.1183    1.3823    0.1675 H   0  0  0  0  0  0  0  0  0  0  0  0
  1  3  1  0  0  0  0
  1  7  1  0  0  0  0
  1  2  2  0  0  0  0
 33 34  1  0  0  0  0
 34 42  1  0  0  0  0
 34 35  2  0  0  0  0
  8  9  1  0  0  0  0
  9 17  1  0  0  0  0
  9 10  2  0  0  0  0
 18 19  1  0  0  0  0
 19 32  1  0  0  0  0
 19 20  2  0  0  0  0
 22 23  1  0  0  0  0
 23 24  1  0  0  0  0
 23 25  2  0  0  0  0
 33 36  1  0  0  0  0
  8 11  1  0  0  0  0
 42 43  1  0  0  0  0
 21 22  1  0  0  0  0
 18 21  1  0  0  0  0
 32 33  1  0  0  0  0
  7  8  1  0  0  0  0
 17 18  1  0  0  0  0
  3  4  1  0  0  0  0
  3  5  1  0  0  0  0
  3  6  1  0  0  0  0
 36 39  1  0  0  0  0
 36 40  1  0  0  0  0
 36 41  1  0  0  0  0
 11 14  1  0  0  0  0
 11 15  1  0  0  0  0
 11 16  1  0  0  0  0
 43 45  1  0  0  0  0
 43 46  1  0  0  0  0
 43 47  1  0  0  0  0
 22 30  1  0  0  0  0
 22 31  1  0  0  0  0
 21 28  1  0  0  0  0
 21 29  1  0  0  0  0
 33 38  1  0  0  0  0
  8 13  1  0  0  0  0
 18 27  1  0  0  0  0
 42 44  1  0  0  0  0
  7 12  1  0  0  0  0
 32 37  1  0  0  0  0
 17 26  1  0  0  0  0
M  CHG  1  24  -1
M  END
$$$$

  -OEChem-05262214473D

 47 46  0     1  0  0  0  0  0999 V2000
    0.5093   -4.7265    3.0306 C   0  0  0  0  0  0  0  0  0  0  0  0
    1.2735   -4.4402    3.9448 O   0  0  0  0  0  0  0  0  0  0  0  0
   -0.4465   -5.8608    3.1982 C   0  0  0  0  0  0  0  0  0  0  0  0
   -0.0219   -6.8213    2.8645 H   0  0  0  0  0  0  0  0  0  0  0  0
   -0.7314   -6.0185    4.2509 H   0  0  0  0  0  0  0  0  0  0  0  0
   -1.3983   -5.7596    2.6527 H   0  0  0  0  0  0  0  0  0  0  0  0
    0.4252   -4.0886    1.8040 N   0  0  0  0  0  0  0  0  0  0  0  0
    1.2532   -2.9707    1.4349 C   0  0  2  0  0  0  0  0  0  0  0  0
    0.3395   -1.8293    1.0083 C   0  0  0  0  0  0  0  0  0  0  0  0
   -0.8136   -2.0027    0.6194 O   0  0  0  0  0  0  0  0  0  0  0  0
    2.2176   -3.3411    0.3189 C   0  0  0  0  0  0  0  0  0  0  0  0
   -0.2574   -4.4279    1.1287 H   0  0  0  0  0  0  0  0  0  0  0  0
    1.8087   -2.6785    2.3327 H   0  0  0  0  0  0  0  0  0  0  0  0
    1.6793   -3.6366   -0.5890 H   0  0  0  0  0  0  0  0  0  0  0  0
    2.8662   -2.4980    0.0589 H   0  0  0  0  0  0  0  0  0  0  0  0
    2.8538   -4.1816    0.6166 H   0  0  0  0  0  0  0  0  0  0  0  0
    0.9758   -0.5952    1.0708 N   0  0  0  0  0  0  0  0  0  0  0  0
    0.3258    0.6374    0.7059 C   0  0  2  0  0  0  0  0  0  0  0  0
    1.4106    1.6962    0.5395 C   0  0  0  0  0  0  0  0  0  0  0  0
    1.1717    2.8509    0.1915 O   0  0  0  0  0  0  0  0  0  0  0  0
   -0.6962    1.0812    1.7594 C   0  0  0  0  0  0  0  0  0  0  0  0
   -1.9029    0.1499    1.8677 C   0  0  0  0  0  0  0  0  0  0  0  0
   -2.9527    0.5227    2.9198 C   0  0  0  0  0  0  0  0  0  0  0  0
   -2.6195    1.4861    3.6684 O   0  5  0  0  0  0  0  0  0  0  0  0
   -4.0187   -0.1524    2.9105 O   0  0  0  0  0  0  0  0  0  0  0  0
    1.9288   -0.5463    1.4242 H   0  0  0  0  0  0  0  0  0  0  0  0
   -0.1506    0.4656   -0.2654 H   0  0  0  0  0  0  0  0  0  0  0  0
   -1.0399    2.1003    1.5430 H   0  0  0  0  0  0  0  0  0  0  0  0
   -0.2069    1.1303    2.7415 H   0  0  0  0  0  0  0  0  0  0  0  0
   -2.3917    0.0556    0.8907 H   0  0  0  0  0  0  0  0  0  0  0  0
   -1.5434   -0.8523    2.1343 H   0  0  0  0  0  0  0  0  0  0  0  0
    2.6788    1.1861    0.7800 N   0  0  0  0  0  0  0  0  0  0  0  0
    3.8777    1.9849    0.6733 C   0  0  2  0  0  0  0  0  0  0  0  0
    5.0645    1.0380    0.5535 C   0  0  0  0  0  0  0  0  0  0  0  0
    5.0343   -0.1279    0.9419 O   0  0  0  0  0  0  0  0  0  0  0  0
    4.0367    2.9068    1.8722 C   0  0  0  0  0  0  0  0  0  0  0  0
    2.7796    0.2204    1.0783 H   0  0  0  0  0  0  0  0  0  0  0  0
    3.7849    2.5733   -0.2460 H   0  0  0  0  0  0  0  0  0  0  0  0
    4.1312    2.3352    2.8027 H   0  0  0  0  0  0  0  0  0  0  0  0
    4.9307    3.5319    1.7762 H   0  0  0  0  0  0  0  0  0  0  0  0
    3.1685    3.5668    1.9742 H   0  0  0  0  0  0  0  0  0  0  0  0
    6.1751    1.6606    0.0012 N   0  0  0  0  0  0  0  0  0  0  0  0
    7.4304    0.9765   -0.2049 C   0  0  0  0  0  0  0  0  0  0  0  0
    6.1043    2.6249   -0.3099 H   0  0  0  0  0  0  0  0  0  0  0  0
    8.0783    1.1263    0.6713 H   0  0  0  0  0  0  0  0  0  0  0  0
    7.2435   -0.0986   -0.3431 H   0  0  0  0  0  0  0  0  0  0  0  0
    7.9254    1.3807   -1.1002 H   0  0  0  0  0  0  0  0  0  0  0  0
  1  3  1  0  0  0  0
  1  7  1  0  0  0  0
  1  2  2  0  0  0  0
 33 34  1  0  0  0  0
 34 42  1  0  0  0  0
 34 35  2  0  0  0  0
  8  9  1  0  0  0  0
  9 17  1  0  0  0  0
  9 10  2  0  0  0  0
 18 19  1  0  0  0  0
 19 32  1  0  0  0  0
 19 20  2  0  0  0  0
 22 23  1  0  0  0  0
 23 24  1  0  0  0  0
 23 25  2  0  0  0  0
 33 36  1  0  0  0  0
  8 11  1  0  0  0  0
 42 43  1  0  0  0  0
 21 22  1  0  0  0  0
 18 21  1  0  0  0  0
 32 33  1  0  0  0  0
  7  8  1  0  0  0  0
 17 18  1  0  0  0  0
  3  4  1  0  0  0  0
  3  5  1  0  0  0  0
  3  6  1  0  0  0  0
 36 39  1  0  0  0  0
 36 40  1  0  0  0  0
 36 41  1  0  0  0  0
 11 14  1  0  0  0  0
 11 15  1  0  0  0  0
 11 16  1  0  0  0  0
 43 45  1  0  0  0  0
 43 46  1  0  0  0  0
 43 47  1  0  0  0  0
 22 30  1  0  0  0  0
 22 31  1  0  0  0  0
 21 28  1  0  0  0  0
 21 29  1  0  0  0  0
 33 38  1  0  0  0  0
  8 13  1  0  0  0  0
 18 27  1  0  0  0  0
 42 44  1  0  0  0  0
  7 12  1  0  0  0  0
 32 37  1  0  0  0  0
 17 26  1  0  0  0  0
M  CHG  1  24  -1
M  END
$$$$

  -OEChem-05262214473D

 47 46  0     1  0  0  0  0  0999 V2000
    0.5093   -4.7265    3.0306 C   0  0  0  0  0  0  0  0  0  0  0  0
    1.2735   -4.4402    3.9448 O   0  0  0  0  0  0  0  0  0  0  0  0
   -0.4465   -5.8608    3.1982 C   0  0  0  0  0  0  0  0  0  0  0  0
   -0.0219   -6.8213    2.8645 H   0  0  0  0  0  0  0  0  0  0  0  0
   -0.7314   -6.0185    4.2509 H   0  0  0  0  0  0  0  0  0  0  0  0
   -1.3983   -5.7596    2.6527 H   0  0  0  0  0  0  0  0  0  0  0  0
    0.4252   -4.0886    1.8040 N   0  0  0  0  0  0  0  0  0  0  0  0
    1.2532   -2.9707    1.4349 C   0  0  2  0  0  0  0  0  0  0  0  0
    0.3395   -1.8293    1.0083 C   0  0  0  0  0  0  0  0  0  0  0  0
   -0.8136   -2.0027    0.6194 O   0  0  0  0  0  0  0  0  0  0  0  0
    2.2176   -3.3411    0.3189 C   0  0  0  0  0  0  0  0  0  0  0  0
   -0.2574   -4.4279    1.1287 H   0  0  0  0  0  0  0  0  0  0  0  0
    1.8087   -2.6785    2.3327 H   0  0  0  0  0  0  0  0  0  0  0  0
    1.6793   -3.6366   -0.5890 H   0  0  0  0  0  0  0  0  0  0  0  0
    2.8662   -2.4980    0.0589 H   0  0  0  0  0  0  0  0  0  0  0  0
    2.8538   -4.1816    0.6166 H   0  0  0  0  0  0  0  0  0  0  0  0
    0.9758   -0.5952    1.0708 N   0  0  0  0  0  0  0  0  0  0  0  0
    0.3258    0.6374    0.7059 C   0  0  2  0  0  0  0  0  0  0  0  0
    1.4106    1.6962    0.5395 C   0  0  0  0  0  0  0  0  0  0  0  0
    1.1662    2.8982    0.4564 O   0  0  0  0  0  0  0  0  0  0  0  0
   -0.6962    1.0812    1.7594 C   0  0  0  0  0  0  0  0  0  0  0  0
   -1.9029    0.1499    1.8677 C   0  0  0  0  0  0  0  0  0  0  0  0
   -2.9527    0.5227    2.9198 C   0  0  0  0  0  0  0  0  0  0  0  0
   -2.6195    1.4861    3.6684 O   0  5  0  0  0  0  0  0  0  0  0  0
   -4.0187   -0.1524    2.9105 O   0  0  0  0  0  0  0  0  0  0  0  0
    1.9288   -0.5463    1.4242 H   0  0  0  0  0  0  0  0  0  0  0  0
   -0.1506    0.4656   -0.2654 H   0  0  0  0  0  0  0  0  0  0  0  0
   -1.0399    2.1003    1.5430 H   0  0  0  0  0  0  0  0  0  0  0  0
   -0.2069    1.1303    2.7415 H   0  0  0  0  0  0  0  0  0  0  0  0
   -2.3917    0.0556    0.8907 H   0  0  0  0  0  0  0  0  0  0  0  0
   -1.5434   -0.8523    2.1343 H   0  0  0  0  0  0  0  0  0  0  0  0
    2.6770    1.1357    0.4480 N   0  0  0  0  0  0  0  0  0  0  0  0
    3.8728    1.9266    0.2713 C   0  0  2  0  0  0  0  0  0  0  0  0
    4.9758    1.0053   -0.2328 C   0  0  0  0  0  0  0  0  0  0  0  0
    4.9624   -0.2122   -0.0635 O   0  0  0  0  0  0  0  0  0  0  0  0
    4.2831    2.6067    1.5682 C   0  0  0  0  0  0  0  0  0  0  0  0
    2.7855    0.1303    0.5426 H   0  0  0  0  0  0  0  0  0  0  0  0
    3.6454    2.6774   -0.4933 H   0  0  0  0  0  0  0  0  0  0  0  0
    4.5149    1.8704    2.3464 H   0  0  0  0  0  0  0  0  0  0  0  0
    5.1731    3.2284    1.4259 H   0  0  0  0  0  0  0  0  0  0  0  0
    3.4773    3.2459    1.9449 H   0  0  0  0  0  0  0  0  0  0  0  0
    5.9980    1.7073   -0.8560 N   0  0  0  0  0  0  0  0  0  0  0  0
    7.1648    1.0595   -1.4082 C   0  0  0  0  0  0  0  0  0  0  0  0
    5.9167    2.7135   -0.9686 H   0  0  0  0  0  0  0  0  0  0  0  0
    7.9637    1.0356   -0.6524 H   0  0  0  0  0  0  0  0  0  0  0  0
    6.9081    0.0312   -1.7028 H   0  0  0  0  0  0  0  0  0  0  0  0
    7.5112    1.6180   -2.2902 H   0  0  0  0  0  0  0  0  0  0  0  0
  1  3  1  0  0  0  0
  1  7  1  0  0  0  0
  1  2  2  0  0  0  0
 33 34  1  0  0  0  0
 34 42  1  0  0  0  0
 34 35  2  0  0  0  0
  8  9  1  0  0  0  0
  9 17  1  0  0  0  0
  9 10  2  0  0  0  0
 18 19  1  0  0  0  0
 19 32  1  0  0  0  0
 19 20  2  0  0  0  0
 22 23  1  0  0  0  0
 23 24  1  0  0  0  0
 23 25  2  0  0  0  0
 33 36  1  0  0  0  0
  8 11  1  0  0  0  0
 42 43  1  0  0  0  0
 21 22  1  0  0  0  0
 18 21  1  0  0  0  0
 32 33  1  0  0  0  0
  7  8  1  0  0  0  0
 17 18  1  0  0  0  0
  3  4  1  0  0  0  0
  3  5  1  0  0  0  0
  3  6  1  0  0  0  0
 36 39  1  0  0  0  0
 36 40  1  0  0  0  0
 36 41  1  0  0  0  0
 11 14  1  0  0  0  0
 11 15  1  0  0  0  0
 11 16  1  0  0  0  0
 43 45  1  0  0  0  0
 43 46  1  0  0  0  0
 43 47  1  0  0  0  0
 22 30  1  0  0  0  0
 22 31  1  0  0  0  0
 21 28  1  0  0  0  0
 21 29  1  0  0  0  0
 33 38  1  0  0  0  0
  8 13  1  0  0  0  0
 18 27  1  0  0  0  0
 42 44  1  0  0  0  0
  7 12  1  0  0  0  0
 32 37  1  0  0  0  0
 17 26  1  0  0  0  0
M  CHG  1  24  -1
M  END
$$$$

  -OEChem-05262214473D

 47 46  0     1  0  0  0  0  0999 V2000
    0.5093   -4.7265    3.0306 C   0  0  0  0  0  0  0  0  0  0  0  0
    1.2735   -4.4402    3.9448 O   0  0  0  0  0  0  0  0  0  0  0  0
   -0.4465   -5.8608    3.1982 C   0  0  0  0  0  0  0  0  0  0  0  0
   -0.0219   -6.8213    2.8645 H   0  0  0  0  0  0  0  0  0  0  0  0
   -0.7314   -6.0185    4.2509 H   0  0  0  0  0  0  0  0  0  0  0  0
   -1.3983   -5.7596    2.6527 H   0  0  0  0  0  0  0  0  0  0  0  0
    0.4252   -4.0886    1.8040 N   0  0  0  0  0  0  0  0  0  0  0  0
    1.2532   -2.9707    1.4349 C   0  0  2  0  0  0  0  0  0  0  0  0
    0.3395   -1.8293    1.0083 C   0  0  0  0  0  0  0  0  0  0  0  0
   -0.8136   -2.0027    0.6194 O   0  0  0  0  0  0  0  0  0  0  0  0
    2.2176   -3.3411    0.3189 C   0  0  0  0  0  0  0  0  0  0  0  0
   -0.2574   -4.4279    1.1287 H   0  0  0  0  0  0  0  0  0  0  0  0
    1.8087   -2.6785    2.3327 H   0  0  0  0  0  0  0  0  0  0  0  0
    1.6793   -3.6366   -0.5890 H   0  0  0  0  0  0  0  0  0  0  0  0
    2.8662   -2.4980    0.0589 H   0  0  0  0  0  0  0  0  0  0  0  0
    2.8538   -4.1816    0.6166 H   0  0  0  0  0  0  0  0  0  0  0  0
    0.9758   -0.5952    1.0708 N   0  0  0  0  0  0  0  0  0  0  0  0
    0.3258    0.6374    0.7059 C   0  0  2  0  0  0  0  0  0  0  0  0
    1.4106    1.6962    0.5395 C   0  0  0  0  0  0  0  0  0  0  0  0
    1.2098    2.8953    0.7219 O   0  0  0  0  0  0  0  0  0  0  0  0
   -0.6962    1.0812    1.7594 C   0  0  0  0  0  0  0  0  0  0  0  0
   -1.9029    0.1499    1.8677 C   0  0  0  0  0  0  0  0  0  0  0  0
   -2.9527    0.5227    2.9198 C   0  0  0  0  0  0  0  0  0  0  0  0
   -2.6195    1.4861    3.6684 O   0  5  0  0  0  0  0  0  0  0  0  0
   -4.0187   -0.1524    2.9105 O   0  0  0  0  0  0  0  0  0  0  0  0
    1.9288   -0.5463    1.4242 H   0  0  0  0  0  0  0  0  0  0  0  0
   -0.1506    0.4656   -0.2654 H   0  0  0  0  0  0  0  0  0  0  0  0
   -1.0399    2.1003    1.5430 H   0  0  0  0  0  0  0  0  0  0  0  0
   -0.2069    1.1303    2.7415 H   0  0  0  0  0  0  0  0  0  0  0  0
   -2.3917    0.0556    0.8907 H   0  0  0  0  0  0  0  0  0  0  0  0
   -1.5434   -0.8523    2.1343 H   0  0  0  0  0  0  0  0  0  0  0  0
    2.6142    1.1482    0.1184 N   0  0  0  0  0  0  0  0  0  0  0  0
    3.7943    1.9445   -0.1268 C   0  0  2  0  0  0  0  0  0  0  0  0
    4.7479    1.1210   -0.9823 C   0  0  0  0  0  0  0  0  0  0  0  0
    4.7098   -0.1065   -1.0373 O   0  0  0  0  0  0  0  0  0  0  0  0
    4.4579    2.3658    1.1750 C   0  0  0  0  0  0  0  0  0  0  0  0
    2.6923    0.1416    0.0075 H   0  0  0  0  0  0  0  0  0  0  0  0
    3.4691    2.8273   -0.6880 H   0  0  0  0  0  0  0  0  0  0  0  0
    4.7904    1.4945    1.7511 H   0  0  0  0  0  0  0  0  0  0  0  0
    5.3358    2.9930    0.9880 H   0  0  0  0  0  0  0  0  0  0  0  0
    3.7612    2.9326    1.8020 H   0  0  0  0  0  0  0  0  0  0  0  0
    5.6742    1.9153   -1.6435 N   0  0  0  0  0  0  0  0  0  0  0  0
    6.6944    1.3686   -2.5075 C   0  0  0  0  0  0  0  0  0  0  0  0
    5.6197    2.9257   -1.5549 H   0  0  0  0  0  0  0  0  0  0  0  0
    7.6126    1.1950   -1.9272 H   0  0  0  0  0  0  0  0  0  0  0  0
    6.3435    0.4164   -2.9321 H   0  0  0  0  0  0  0  0  0  0  0  0
    6.9039    2.0780   -3.3216 H   0  0  0  0  0  0  0  0  0  0  0  0
  1  3  1  0  0  0  0
  1  7  1  0  0  0  0
  1  2  2  0  0  0  0
 33 34  1  0  0  0  0
 34 42  1  0  0  0  0
 34 35  2  0  0  0  0
  8  9  1  0  0  0  0
  9 17  1  0  0  0  0
  9 10  2  0  0  0  0
 18 19  1  0  0  0  0
 19 32  1  0  0  0  0
 19 20  2  0  0  0  0
 22 23  1  0  0  0  0
 23 24  1  0  0  0  0
 23 25  2  0  0  0  0
 33 36  1  0  0  0  0
  8 11  1  0  0  0  0
 42 43  1  0  0  0  0
 21 22  1  0  0  0  0
 18 21  1  0  0  0  0
 32 33  1  0  0  0  0
  7  8  1  0  0  0  0
 17 18  1  0  0  0  0
  3  4  1  0  0  0  0
  3  5  1  0  0  0  0
  3  6  1  0  0  0  0
 36 39  1  0  0  0  0
 36 40  1  0  0  0  0
 36 41  1  0  0  0  0
 11 14  1  0  0  0  0
 11 15  1  0  0  0  0
 11 16  1  0  0  0  0
 43 45  1  0  0  0  0
 43 46  1  0  0  0  0
 43 47  1  0  0  0  0
 22 30  1  0  0  0  0
 22 31  1  0  0  0  0
 21 28  1  0  0  0  0
 21 29  1  0  0  0  0
 33 38  1  0  0  0  0
  8 13  1  0  0  0  0
 18 27  1  0  0  0  0
 42 44  1  0  0  0  0
  7 12  1  0  0  0  0
 32 37  1  0  0  0  0
 17 26  1  0  0  0  0
M  CHG  1  24  -1
M  END
$$$$

  -OEChem-05262214473D

 47 46  0     1  0  0  0  0  0999 V2000
    0.5093   -4.7265    3.0306 C   0  0  0  0  0  0  0  0  0  0  0  0
    1.2735   -4.4402    3.9448 O   0  0  0  0  0  0  0  0  0  0  0  0
   -0.4465   -5.8608    3.1982 C   0  0  0  0  0  0  0  0  0  0  0  0
   -0.0219   -6.8213    2.8645 H   0  0  0  0  0  0  0  0  0  0  0  0
   -0.7314   -6.0185    4.2509 H   0  0  0  0  0  0  0  0  0  0  0  0
   -1.3983   -5.7596    2.6527 H   0  0  0  0  0  0  0  0  0  0  0  0
    0.4252   -4.0886    1.8040 N   0  0  0  0  0  0  0  0  0  0  0  0
    1.2532   -2.9707    1.4349 C   0  0  2  0  0  0  0  0  0  0  0  0
    0.3395   -1.8293    1.0083 C   0  0  0  0  0  0  0  0  0  0  0  0
   -0.8136   -2.0027    0.6194 O   0  0  0  0  0  0  0  0  0  0  0  0
    2.2176   -3.3411    0.3189 C   0  0  0  0  0  0  0  0  0  0  0  0
   -0.2574   -4.4279    1.1287 H   0  0  0  0  0  0  0  0  0  0  0  0
    1.8087   -2.6785    2.3327 H   0  0  0  0  0  0  0  0  0  0  0  0
    1.6793   -3.6366   -0.5890 H   0  0  0  0  0  0  0  0  0  0  0  0
    2.8662   -2.4980    0.0589 H   0  0  0  0  0  0  0  0  0  0  0  0
    2.8538   -4.1816    0.6166 H   0  0  0  0  0  0  0  0  0  0  0  0
    0.9758   -0.5952    1.0708 N   0  0  0  0  0  0  0  0  0  0  0  0
    0.3258    0.6374    0.7059 C   0  0  2  0  0  0  0  0  0  0  0  0
    1.4106    1.6962    0.5395 C   0  0  0  0  0  0  0  0  0  0  0  0
    1.2995    2.8423    0.9700 O   0  0  0  0  0  0  0  0  0  0  0  0
   -0.6962    1.0812    1.7594 C   0  0  0  0  0  0  0  0  0  0  0  0
   -1.9029    0.1499    1.8677 C   0  0  0  0  0  0  0  0  0  0  0  0
   -2.9527    0.5227    2.9198 C   0  0  0  0  0  0  0  0  0  0  0  0
   -2.6195    1.4861    3.6684 O   0  5  0  0  0  0  0  0  0  0  0  0
   -4.0187   -0.1524    2.9105 O   0  0  0  0  0  0  0  0  0  0  0  0
    1.9288   -0.5463    1.4242 H   0  0  0  0  0  0  0  0  0  0  0  0
   -0.1506    0.4656   -0.2654 H   0  0  0  0  0  0  0  0  0  0  0  0
   -1.0399    2.1003    1.5430 H   0  0  0  0  0  0  0  0  0  0  0  0
   -0.2069    1.1303    2.7415 H   0  0  0  0  0  0  0  0  0  0  0  0
   -2.3917    0.0556    0.8907 H   0  0  0  0  0  0  0  0  0  0  0  0
   -1.5434   -0.8523    2.1343 H   0  0  0  0  0  0  0  0  0  0  0  0
    2.4947    1.2228   -0.1864 N   0  0  0  0  0  0  0  0  0  0  0  0
    3.6474    2.0373   -0.4940 C   0  0  2  0  0  0  0  0  0  0  0  0
    4.3964    1.3771   -1.6441 C   0  0  0  0  0  0  0  0  0  0  0  0
    4.2938    0.1820   -1.9131 O   0  0  0  0  0  0  0  0  0  0  0  0
    4.5493    2.2005    0.7195 C   0  0  0  0  0  0  0  0  0  0  0  0
    2.5064    0.2537   -0.4905 H   0  0  0  0  0  0  0  0  0  0  0  0
    3.2681    3.0130   -0.8167 H   0  0  0  0  0  0  0  0  0  0  0  0
    4.9390    1.2333    1.0573 H   0  0  0  0  0  0  0  0  0  0  0  0
    5.4076    2.8415    0.4926 H   0  0  0  0  0  0  0  0  0  0  0  0
    4.0009    2.6482    1.5553 H   0  0  0  0  0  0  0  0  0  0  0  0
    5.2258    2.2703   -2.3078 N   0  0  0  0  0  0  0  0  0  0  0  0
    6.0512    1.8829   -3.4279 C   0  0  0  0  0  0  0  0  0  0  0  0
    5.2335    3.2469   -2.0287 H   0  0  0  0  0  0  0  0  0  0  0  0
    7.0489    1.5935   -3.0661 H   0  0  0  0  0  0  0  0  0  0  0  0
    5.5881    1.0308   -3.9470 H   0  0  0  0  0  0  0  0  0  0  0  0
    6.1450    2.7294   -4.1241 H   0  0  0  0  0  0  0  0  0  0  0  0
  1  3  1  0  0  0  0
  1  7  1  0  0  0  0
  1  2  2  0  0  0  0
 33 34  1  0  0  0  0
 34 42  1  0  0  0  0
 34 35  2  0  0  0  0
  8  9  1  0  0  0  0
  9 17  1  0  0  0  0
  9 10  2  0  0  0  0
 18 19  1  0  0  0  0
 19 32  1  0  0  0  0
 19 20  2  0  0  0  0
 22 23  1  0  0  0  0
 23 24  1  0  0  0  0
 23 25  2  0  0  0  0
 33 36  1  0  0  0  0
  8 11  1  0  0  0  0
 42 43  1  0  0  0  0
 21 22  1  0  0  0  0
 18 21  1  0  0  0  0
 32 33  1  0  0  0  0
  7  8  1  0  0  0  0
 17 18  1  0  0  0  0
  3  4  1  0  0  0  0
  3  5  1  0  0  0  0
  3  6  1  0  0  0  0
 36 39  1  0  0  0  0
 36 40  1  0  0  0  0
 36 41  1  0  0  0  0
 11 14  1  0  0  0  0
 11 15  1  0  0  0  0
 11 16  1  0  0  0  0
 43 45  1  0  0  0  0
 43 46  1  0  0  0  0
 43 47  1  0  0  0  0
 22 30  1  0  0  0  0
 22 31  1  0  0  0  0
 21 28  1  0  0  0  0
 21 29  1  0  0  0  0
 33 38  1  0  0  0  0
  8 13  1  0  0  0  0
 18 27  1  0  0  0  0
 42 44  1  0  0  0  0
  7 12  1  0  0  0  0
 32 37  1  0  0  0  0
 17 26  1  0  0  0  0
M  CHG  1  24  -1
M  END
$$$$

  -OEChem-05262214473D

 47 46  0     1  0  0  0  0  0999 V2000
    0.5093   -4.7265    3.0306 C   0  0  0  0  0  0  0  0  0  0  0  0
    1.2735   -4.4402    3.9448 O   0  0  0  0  0  0  0  0  0  0  0  0
   -0.4465   -5.8608    3.1982 C   0  0  0  0  0  0  0  0  0  0  0  0
   -0.0219   -6.8213    2.8645 H   0  0  0  0  0  0  0  0  0  0  0  0
   -0.7314   -6.0185    4.2509 H   0  0  0  0  0  0  0  0  0  0  0  0
   -1.3983   -5.7596    2.6527 H   0  0  0  0  0  0  0  0  0  0  0  0
    0.4252   -4.0886    1.8040 N   0  0  0  0  0  0  0  0  0  0  0  0
    1.2532   -2.9707    1.4349 C   0  0  2  0  0  0  0  0  0  0  0  0
    0.3395   -1.8293    1.0083 C   0  0  0  0  0  0  0  0  0  0  0  0
   -0.8136   -2.0027    0.6194 O   0  0  0  0  0  0  0  0  0  0  0  0
    2.2176   -3.3411    0.3189 C   0  0  0  0  0  0  0  0  0  0  0  0
   -0.2574   -4.4279    1.1287 H   0  0  0  0  0  0  0  0  0  0  0  0
    1.8087   -2.6785    2.3327 H   0  0  0  0  0  0  0  0  0  0  0  0
    1.6793   -3.6366   -0.5890 H   0  0  0  0  0  0  0  0  0  0  0  0
    2.8662   -2.4980    0.0589 H   0  0  0  0  0  0  0  0  0  0  0  0
    2.8538   -4.1816    0.6166 H   0  0  0  0  0  0  0  0  0  0  0  0
    0.9758   -0.5952    1.0708 N   0  0  0  0  0  0  0  0  0  0  0  0
    0.3258    0.6374    0.7059 C   0  0  2  0  0  0  0  0  0  0  0  0
    1.4106    1.6962    0.5395 C   0  0  0  0  0  0  0  0  0  0  0  0
    1.4292    2.7430    1.1838 O   0  0  0  0  0  0  0  0  0  0  0  0
   -0.6962    1.0812    1.7594 C   0  0  0  0  0  0  0  0  0  0  0  0
   -1.9029    0.1499    1.8677 C   0  0  0  0  0  0  0  0  0  0  0  0
   -2.9527    0.5227    2.9198 C   0  0  0  0  0  0  0  0  0  0  0  0
   -2.6195    1.4861    3.6684 O   0  5  0  0  0  0  0  0  0  0  0  0
   -4.0187   -0.1524    2.9105 O   0  0  0  0  0  0  0  0  0  0  0  0
    1.9288   -0.5463    1.4242 H   0  0  0  0  0  0  0  0  0  0  0  0
   -0.1506    0.4656   -0.2654 H   0  0  0  0  0  0  0  0  0  0  0  0
   -1.0399    2.1003    1.5430 H   0  0  0  0  0  0  0  0  0  0  0  0
   -0.2069    1.1303    2.7415 H   0  0  0  0  0  0  0  0  0  0  0  0
   -2.3917    0.0556    0.8907 H   0  0  0  0  0  0  0  0  0  0  0  0
   -1.5434   -0.8523    2.1343 H   0  0  0  0  0  0  0  0  0  0  0  0
    2.3266    1.3543   -0.4456 N   0  0  0  0  0  0  0  0  0  0  0  0
    3.4421    2.1987   -0.8052 C   0  0  2  0  0  0  0  0  0  0  0  0
    3.9451    1.7563   -2.1730 C   0  0  0  0  0  0  0  0  0  0  0  0
    3.7428    0.6337   -2.6312 O   0  0  0  0  0  0  0  0  0  0  0  0
    4.5511    2.1222    0.2326 C   0  0  0  0  0  0  0  0  0  0  0  0
    2.2406    0.4590   -0.9175 H   0  0  0  0  0  0  0  0  0  0  0  0
    3.0561    3.2218   -0.8708 H   0  0  0  0  0  0  0  0  0  0  0  0
    4.9504    1.1045    0.3124 H   0  0  0  0  0  0  0  0  0  0  0  0
    5.3836    2.7845   -0.0268 H   0  0  0  0  0  0  0  0  0  0  0  0
    4.1801    2.4122    1.2216 H   0  0  0  0  0  0  0  0  0  0  0  0
    4.6833    2.7481   -2.8034 N   0  0  0  0  0  0  0  0  0  0  0  0
    5.2790    2.5673   -4.1066 C   0  0  0  0  0  0  0  0  0  0  0  0
    4.7843    3.6554   -2.3579 H   0  0  0  0  0  0  0  0  0  0  0  0
    6.3109    2.2041   -3.9915 H   0  0  0  0  0  0  0  0  0  0  0  0
    4.6934    1.8324   -4.6785 H   0  0  0  0  0  0  0  0  0  0  0  0
    5.2862    3.5277   -4.6428 H   0  0  0  0  0  0  0  0  0  0  0  0
  1  3  1  0  0  0  0
  1  7  1  0  0  0  0
  1  2  2  0  0  0  0
 33 34  1  0  0  0  0
 34 42  1  0  0  0  0
 34 35  2  0  0  0  0
  8  9  1  0  0  0  0
  9 17  1  0  0  0  0
  9 10  2  0  0  0  0
 18 19  1  0  0  0  0
 19 32  1  0  0  0  0
 19 20  2  0  0  0  0
 22 23  1  0  0  0  0
 23 24  1  0  0  0  0
 23 25  2  0  0  0  0
 33 36  1  0  0  0  0
  8 11  1  0  0  0  0
 42 43  1  0  0  0  0
 21 22  1  0  0  0  0
 18 21  1  0  0  0  0
 32 33  1  0  0  0  0
  7  8  1  0  0  0  0
 17 18  1  0  0  0  0
  3  4  1  0  0  0  0
  3  5  1  0  0  0  0
  3  6  1  0  0  0  0
 36 39  1  0  0  0  0
 36 40  1  0  0  0  0
 36 41  1  0  0  0  0
 11 14  1  0  0  0  0
 11 15  1  0  0  0  0
 11 16  1  0  0  0  0
 43 45  1  0  0  0  0
 43 46  1  0  0  0  0
 43 47  1  0  0  0  0
 22 30  1  0  0  0  0
 22 31  1  0  0  0  0
 21 28  1  0  0  0  0
 21 29  1  0  0  0  0
 33 38  1  0  0  0  0
  8 13  1  0  0  0  0
 18 27  1  0  0  0  0
 42 44  1  0  0  0  0
  7 12  1  0  0  0  0
 32 37  1  0  0  0  0
 17 26  1  0  0  0  0
M  CHG  1  24  -1
M  END
$$$$

  -OEChem-05262214473D

 47 46  0     1  0  0  0  0  0999 V2000
    0.5093   -4.7265    3.0306 C   0  0  0  0  0  0  0  0  0  0  0  0
    1.2735   -4.4402    3.9448 O   0  0  0  0  0  0  0  0  0  0  0  0
   -0.4465   -5.8608    3.1982 C   0  0  0  0  0  0  0  0  0  0  0  0
   -0.0219   -6.8213    2.8645 H   0  0  0  0  0  0  0  0  0  0  0  0
   -0.7314   -6.0185    4.2509 H   0  0  0  0  0  0  0  0  0  0  0  0
   -1.3983   -5.7596    2.6527 H   0  0  0  0  0  0  0  0  0  0  0  0
    0.4252   -4.0886    1.8040 N   0  0  0  0  0  0  0  0  0  0  0  0
    1.2532   -2.9707    1.4349 C   0  0  2  0  0  0  0  0  0  0  0  0
    0.3395   -1.8293    1.0083 C   0  0  0  0  0  0  0  0  0  0  0  0
   -0.8136   -2.0027    0.6194 O   0  0  0  0  0  0  0  0  0  0  0  0
    2.2176   -3.3411    0.3189 C   0  0  0  0  0  0  0  0  0  0  0  0
   -0.2574   -4.4279    1.1287 H   0  0  0  0  0  0  0  0  0  0  0  0
    1.8087   -2.6785    2.3327 H   0  0  0  0  0  0  0  0  0  0  0  0
    1.6793   -3.6366   -0.5890 H   0  0  0  0  0  0  0  0  0  0  0  0
    2.8662   -2.4980    0.0589 H   0  0  0  0  0  0  0  0  0  0  0  0
    2.8538   -4.1816    0.6166 H   0  0  0  0  0  0  0  0  0  0  0  0
    0.9758   -0.5952    1.0708 N   0  0  0  0  0  0  0  0  0  0  0  0
    0.3258    0.6374    0.7059 C   0  0  2  0  0  0  0  0  0  0  0  0
    1.4106    1.6962    0.5395 C   0  0  0  0  0  0  0  0  0  0  0  0
    1.5902    2.6040    1.3487 O   0  0  0  0  0  0  0  0  0  0  0  0
   -0.6962    1.0812    1.7594 C   0  0  0  0  0  0  0  0  0  0  0  0
   -1.9029    0.1499    1.8677 C   0  0  0  0  0  0  0  0  0  0  0  0
   -2.9527    0.5227    2.9198 C   0  0  0  0  0  0  0  0  0  0  0  0
   -2.6195    1.4861    3.6684 O   0  5  0  0  0  0  0  0  0  0  0  0
   -4.0187   -0.1524    2.9105 O   0  0  0  0  0  0  0  0  0  0  0  0
    1.9288   -0.5463    1.4242 H   0  0  0  0  0  0  0  0  0  0  0  0
   -0.1506    0.4656   -0.2654 H   0  0  0  0  0  0  0  0  0  0  0  0
   -1.0399    2.1003    1.5430 H   0  0  0  0  0  0  0  0  0  0  0  0
   -0.2069    1.1303    2.7415 H   0  0  0  0  0  0  0  0  0  0  0  0
   -2.3917    0.0556    0.8907 H   0  0  0  0  0  0  0  0  0  0  0  0
   -1.5434   -0.8523    2.1343 H   0  0  0  0  0  0  0  0  0  0  0  0
    2.1213    1.5338   -0.6415 N   0  0  0  0  0  0  0  0  0  0  0  0
    3.1925    2.4177   -1.0392 C   0  0  2  0  0  0  0  0  0  0  0  0
    3.4249    2.2327   -2.5329 C   0  0  0  0  0  0  0  0  0  0  0  0
    3.0942    1.2178   -3.1426 O   0  0  0  0  0  0  0  0  0  0  0  0
    4.4631    2.1361   -0.2524 C   0  0  0  0  0  0  0  0  0  0  0  0
    1.9129    0.7433   -1.2444 H   0  0  0  0  0  0  0  0  0  0  0  0
    2.8474    3.4393   -0.8464 H   0  0  0  0  0  0  0  0  0  0  0  0
    4.8239    1.1169   -0.4328 H   0  0  0  0  0  0  0  0  0  0  0  0
    5.2655    2.8256   -0.5347 H   0  0  0  0  0  0  0  0  0  0  0  0
    4.2865    2.2406    0.8235 H   0  0  0  0  0  0  0  0  0  0  0  0
    4.0837    3.3163   -3.0967 N   0  0  0  0  0  0  0  0  0  0  0  0
    4.4305    3.3751   -4.4975 C   0  0  0  0  0  0  0  0  0  0  0  0
    4.3028    4.1232   -2.5199 H   0  0  0  0  0  0  0  0  0  0  0  0
    5.4491    2.9851   -4.6403 H   0  0  0  0  0  0  0  0  0  0  0  0
    3.7204    2.7667   -5.0768 H   0  0  0  0  0  0  0  0  0  0  0  0
    4.3859    4.4186   -4.8426 H   0  0  0  0  0  0  0  0  0  0  0  0
  1  3  1  0  0  0  0
  1  7  1  0  0  0  0
  1  2  2  0  0  0  0
 33 34  1  0  0  0  0
 34 42  1  0  0  0  0
 34 35  2  0  0  0  0
  8  9  1  0  0  0  0
  9 17  1  0  0  0  0
  9 10  2  0  0  0  0
 18 19  1  0  0  0  0
 19 32  1  0  0  0  0
 19 20  2  0  0  0  0
 22 23  1  0  0  0  0
 23 24  1  0  0  0  0
 23 25  2  0  0  0  0
 33 36  1  0  0  0  0
  8 11  1  0  0  0  0
 42 43  1  0  0  0  0
 21 22  1  0  0  0  0
 18 21  1  0  0  0  0
 32 33  1  0  0  0  0
  7  8  1  0  0  0  0
 17 18  1  0  0  0  0
  3  4  1  0  0  0  0
  3  5  1  0  0  0  0
  3  6  1  0  0  0  0
 36 39  1  0  0  0  0
 36 40  1  0  0  0  0
 36 41  1  0  0  0  0
 11 14  1  0  0  0  0
 11 15  1  0  0  0  0
 11 16  1  0  0  0  0
 43 45  1  0  0  0  0
 43 46  1  0  0  0  0
 43 47  1  0  0  0  0
 22 30  1  0  0  0  0
 22 31  1  0  0  0  0
 21 28  1  0  0  0  0
 21 29  1  0  0  0  0
 33 38  1  0  0  0  0
  8 13  1  0  0  0  0
 18 27  1  0  0  0  0
 42 44  1  0  0  0  0
  7 12  1  0  0  0  0
 32 37  1  0  0  0  0
 17 26  1  0  0  0  0
M  CHG  1  24  -1
M  END
$$$$

  -OEChem-05262214473D

 47 46  0     1  0  0  0  0  0999 V2000
    0.5093   -4.7265    3.0306 C   0  0  0  0  0  0  0  0  0  0  0  0
    1.2735   -4.4402    3.9448 O   0  0  0  0  0  0  0  0  0  0  0  0
   -0.4465   -5.8608    3.1982 C   0  0  0  0  0  0  0  0  0  0  0  0
   -0.0219   -6.8213    2.8645 H   0  0  0  0  0  0  0  0  0  0  0  0
   -0.7314   -6.0185    4.2509 H   0  0  0  0  0  0  0  0  0  0  0  0
   -1.3983   -5.7596    2.6527 H   0  0  0  0  0  0  0  0  0  0  0  0
    0.4252   -4.0886    1.8040 N   0  0  0  0  0  0  0  0  0  0  0  0
    1.2532   -2.9707    1.4349 C   0  0  2  0  0  0  0  0  0  0  0  0
    0.3395   -1.8293    1.0083 C   0  0  0  0  0  0  0  0  0  0  0  0
   -0.8136   -2.0027    0.6194 O   0  0  0  0  0  0  0  0  0  0  0  0
    2.2176   -3.3411    0.3189 C   0  0  0  0  0  0  0  0  0  0  0  0
   -0.2574   -4.4279    1.1287 H   0  0  0  0  0  0  0  0  0  0  0  0
    1.8087   -2.6785    2.3327 H   0  0  0  0  0  0  0  0  0  0  0  0
    1.6793   -3.6366   -0.5890 H   0  0  0  0  0  0  0  0  0  0  0  0
    2.8662   -2.4980    0.0589 H   0  0  0  0  0  0  0  0  0  0  0  0
    2.8538   -4.1816    0.6166 H   0  0  0  0  0  0  0  0  0  0  0  0
    0.9758   -0.5952    1.0708 N   0  0  0  0  0  0  0  0  0  0  0  0
    0.3258    0.6374    0.7059 C   0  0  2  0  0  0  0  0  0  0  0  0
    1.4106    1.6962    0.5395 C   0  0  0  0  0  0  0  0  0  0  0  0
    1.7714    2.4349    1.4535 O   0  0  0  0  0  0  0  0  0  0  0  0
   -0.6962    1.0812    1.7594 C   0  0  0  0  0  0  0  0  0  0  0  0
   -1.9029    0.1499    1.8677 C   0  0  0  0  0  0  0  0  0  0  0  0
   -2.9527    0.5227    2.9198 C   0  0  0  0  0  0  0  0  0  0  0  0
   -2.6195    1.4861    3.6684 O   0  5  0  0  0  0  0  0  0  0  0  0
   -4.0187   -0.1524    2.9105 O   0  0  0  0  0  0  0  0  0  0  0  0
    1.9288   -0.5463    1.4242 H   0  0  0  0  0  0  0  0  0  0  0  0
   -0.1506    0.4656   -0.2654 H   0  0  0  0  0  0  0  0  0  0  0  0
   -1.0399    2.1003    1.5430 H   0  0  0  0  0  0  0  0  0  0  0  0
   -0.2069    1.1303    2.7415 H   0  0  0  0  0  0  0  0  0  0  0  0
   -2.3917    0.0556    0.8907 H   0  0  0  0  0  0  0  0  0  0  0  0
   -1.5434   -0.8523    2.1343 H   0  0  0  0  0  0  0  0  0  0  0  0
    1.8929    1.7490   -0.7609 N   0  0  0  0  0  0  0  0  0  0  0  0
    2.9155    2.6793   -1.1800 C   0  0  2  0  0  0  0  0  0  0  0  0
    2.8711    2.7738   -2.6994 C   0  0  0  0  0  0  0  0  0  0  0  0
    2.3924    1.8944   -3.4125 O   0  0  0  0  0  0  0  0  0  0  0  0
    4.2913    2.2414   -0.7025 C   0  0  0  0  0  0  0  0  0  0  0  0
    1.5456    1.0875   -1.4489 H   0  0  0  0  0  0  0  0  0  0  0  0
    2.6564    3.6509   -0.7454 H   0  0  0  0  0  0  0  0  0  0  0  0
    4.5682    1.2697   -1.1277 H   0  0  0  0  0  0  0  0  0  0  0  0
    5.0614    2.9622   -0.9965 H   0  0  0  0  0  0  0  0  0  0  0  0
    4.3129    2.1451    0.3884 H   0  0  0  0  0  0  0  0  0  0  0  0
    3.4679    3.9360   -3.1677 N   0  0  0  0  0  0  0  0  0  0  0  0
    3.5635    4.2514   -4.5739 C   0  0  0  0  0  0  0  0  0  0  0  0
    3.8218    4.6185   -2.5038 H   0  0  0  0  0  0  0  0  0  0  0  0
    4.5220    3.8832   -4.9684 H   0  0  0  0  0  0  0  0  0  0  0  0
    2.7354    3.7699   -5.1146 H   0  0  0  0  0  0  0  0  0  0  0  0
    3.5056    5.3414   -4.7098 H   0  0  0  0  0  0  0  0  0  0  0  0
  1  3  1  0  0  0  0
  1  7  1  0  0  0  0
  1  2  2  0  0  0  0
 33 34  1  0  0  0  0
 34 42  1  0  0  0  0
 34 35  2  0  0  0  0
  8  9  1  0  0  0  0
  9 17  1  0  0  0  0
  9 10  2  0  0  0  0
 18 19  1  0  0  0  0
 19 32  1  0  0  0  0
 19 20  2  0  0  0  0
 22 23  1  0  0  0  0
 23 24  1  0  0  0  0
 23 25  2  0  0  0  0
 33 36  1  0  0  0  0
  8 11  1  0  0  0  0
 42 43  1  0  0  0  0
 21 22  1  0  0  0  0
 18 21  1  0  0  0  0
 32 33  1  0  0  0  0
  7  8  1  0  0  0  0
 17 18  1  0  0  0  0
  3  4  1  0  0  0  0
  3  5  1  0  0  0  0
  3  6  1  0  0  0  0
 36 39  1  0  0  0  0
 36 40  1  0  0  0  0
 36 41  1  0  0  0  0
 11 14  1  0  0  0  0
 11 15  1  0  0  0  0
 11 16  1  0  0  0  0
 43 45  1  0  0  0  0
 43 46  1  0  0  0  0
 43 47  1  0  0  0  0
 22 30  1  0  0  0  0
 22 31  1  0  0  0  0
 21 28  1  0  0  0  0
 21 29  1  0  0  0  0
 33 38  1  0  0  0  0
  8 13  1  0  0  0  0
 18 27  1  0  0  0  0
 42 44  1  0  0  0  0
  7 12  1  0  0  0  0
 32 37  1  0  0  0  0
 17 26  1  0  0  0  0
M  CHG  1  24  -1
M  END
$$$$

  -OEChem-05262214473D

 47 46  0     1  0  0  0  0  0999 V2000
    0.5093   -4.7265    3.0306 C   0  0  0  0  0  0  0  0  0  0  0  0
    1.2735   -4.4402    3.9448 O   0  0  0  0  0  0  0  0  0  0  0  0
   -0.4465   -5.8608    3.1982 C   0  0  0  0  0  0  0  0  0  0  0  0
   -0.0219   -6.8213    2.8645 H   0  0  0  0  0  0  0  0  0  0  0  0
   -0.7314   -6.0185    4.2509 H   0  0  0  0  0  0  0  0  0  0  0  0
   -1.3983   -5.7596    2.6527 H   0  0  0  0  0  0  0  0  0  0  0  0
    0.4252   -4.0886    1.8040 N   0  0  0  0  0  0  0  0  0  0  0  0
    1.2532   -2.9707    1.4349 C   0  0  2  0  0  0  0  0  0  0  0  0
    0.3395   -1.8293    1.0083 C   0  0  0  0  0  0  0  0  0  0  0  0
   -0.8136   -2.0027    0.6194 O   0  0  0  0  0  0  0  0  0  0  0  0
    2.2176   -3.3411    0.3189 C   0  0  0  0  0  0  0  0  0  0  0  0
   -0.2574   -4.4279    1.1287 H   0  0  0  0  0  0  0  0  0  0  0  0
    1.8087   -2.6785    2.3327 H   0  0  0  0  0  0  0  0  0  0  0  0
    1.6793   -3.6366   -0.5890 H   0  0  0  0  0  0  0  0  0  0  0  0
    2.8662   -2.4980    0.0589 H   0  0  0  0  0  0  0  0  0  0  0  0
    2.8538   -4.1816    0.6166 H   0  0  0  0  0  0  0  0  0  0  0  0
    0.9758   -0.5952    1.0708 N   0  0  0  0  0  0  0  0  0  0  0  0
    0.3258    0.6374    0.7059 C   0  0  2  0  0  0  0  0  0  0  0  0
    1.4106    1.6962    0.5395 C   0  0  0  0  0  0  0  0  0  0  0  0
    1.9605    2.2471    1.4910 O   0  0  0  0  0  0  0  0  0  0  0  0
   -0.6962    1.0812    1.7594 C   0  0  0  0  0  0  0  0  0  0  0  0
   -1.9029    0.1499    1.8677 C   0  0  0  0  0  0  0  0  0  0  0  0
   -2.9527    0.5227    2.9198 C   0  0  0  0  0  0  0  0  0  0  0  0
   -2.6195    1.4861    3.6684 O   0  5  0  0  0  0  0  0  0  0  0  0
   -4.0187   -0.1524    2.9105 O   0  0  0  0  0  0  0  0  0  0  0  0
    1.9288   -0.5463    1.4242 H   0  0  0  0  0  0  0  0  0  0  0  0
   -0.1506    0.4656   -0.2654 H   0  0  0  0  0  0  0  0  0  0  0  0
   -1.0399    2.1003    1.5430 H   0  0  0  0  0  0  0  0  0  0  0  0
   -0.2069    1.1303    2.7415 H   0  0  0  0  0  0  0  0  0  0  0  0
   -2.3917    0.0556    0.8907 H   0  0  0  0  0  0  0  0  0  0  0  0
   -1.5434   -0.8523    2.1343 H   0  0  0  0  0  0  0  0  0  0  0  0
    1.6570    1.9853   -0.7955 N   0  0  0  0  0  0  0  0  0  0  0  0
    2.6300    2.9658   -1.2181 C   0  0  2  0  0  0  0  0  0  0  0  0
    2.3216    3.3428   -2.6611 C   0  0  0  0  0  0  0  0  0  0  0  0
    1.6850    2.6175   -3.4225 O   0  0  0  0  0  0  0  0  0  0  0  0
    4.0475    2.4307   -1.0871 C   0  0  0  0  0  0  0  0  0  0  0  0
    1.1638    1.4679   -1.5171 H   0  0  0  0  0  0  0  0  0  0  0  0
    2.4961    3.8421   -0.5745 H   0  0  0  0  0  0  0  0  0  0  0  0
    4.2006    1.5524   -1.7248 H   0  0  0  0  0  0  0  0  0  0  0  0
    4.7850    3.1850   -1.3807 H   0  0  0  0  0  0  0  0  0  0  0  0
    4.2575    2.1323   -0.0543 H   0  0  0  0  0  0  0  0  0  0  0  0
    2.8779    4.5651   -3.0114 N   0  0  0  0  0  0  0  0  0  0  0  0
    2.7371    5.1363   -4.3305 C   0  0  0  0  0  0  0  0  0  0  0  0
    3.3741    5.1075   -2.3105 H   0  0  0  0  0  0  0  0  0  0  0  0
    3.5930    4.8374   -4.9534 H   0  0  0  0  0  0  0  0  0  0  0  0
    1.8054    4.7738   -4.7894 H   0  0  0  0  0  0  0  0  0  0  0  0
    2.7052    6.2331   -4.2534 H   0  0  0  0  0  0  0  0  0  0  0  0
  1  3  1  0  0  0  0
  1  7  1  0  0  0  0
  1  2  2  0  0  0  0
 33 34  1  0  0  0  0
 34 42  1  0  0  0  0
 34 35  2  0  0  0  0
  8  9  1  0  0  0  0
  9 17  1  0  0  0  0
  9 10  2  0  0  0  0
 18 19  1  0  0  0  0
 19 32  1  0  0  0  0
 19 20  2  0  0  0  0
 22 23  1  0  0  0  0
 23 24  1  0  0  0  0
 23 25  2  0  0  0  0
 33 36  1  0  0  0  0
  8 11  1  0  0  0  0
 42 43  1  0  0  0  0
 21 22  1  0  0  0  0
 18 21  1  0  0  0  0
 32 33  1  0  0  0  0
  7  8  1  0  0  0  0
 17 18  1  0  0  0  0
  3  4  1  0  0  0  0
  3  5  1  0  0  0  0
  3  6  1  0  0  0  0
 36 39  1  0  0  0  0
 36 40  1  0  0  0  0
 36 41  1  0  0  0  0
 11 14  1  0  0  0  0
 11 15  1  0  0  0  0
 11 16  1  0  0  0  0
 43 45  1  0  0  0  0
 43 46  1  0  0  0  0
 43 47  1  0  0  0  0
 22 30  1  0  0  0  0
 22 31  1  0  0  0  0
 21 28  1  0  0  0  0
 21 29  1  0  0  0  0
 33 38  1  0  0  0  0
  8 13  1  0  0  0  0
 18 27  1  0  0  0  0
 42 44  1  0  0  0  0
  7 12  1  0  0  0  0
 32 37  1  0  0  0  0
 17 26  1  0  0  0  0
M  CHG  1  24  -1
M  END
$$$$

  -OEChem-05262214473D

 47 46  0     1  0  0  0  0  0999 V2000
    0.5093   -4.7265    3.0306 C   0  0  0  0  0  0  0  0  0  0  0  0
    1.2735   -4.4402    3.9448 O   0  0  0  0  0  0  0  0  0  0  0  0
   -0.4465   -5.8608    3.1982 C   0  0  0  0  0  0  0  0  0  0  0  0
   -0.0219   -6.8213    2.8645 H   0  0  0  0  0  0  0  0  0  0  0  0
   -0.7314   -6.0185    4.2509 H   0  0  0  0  0  0  0  0  0  0  0  0
   -1.3983   -5.7596    2.6527 H   0  0  0  0  0  0  0  0  0  0  0  0
    0.4252   -4.0886    1.8040 N   0  0  0  0  0  0  0  0  0  0  0  0
    1.2532   -2.9707    1.4349 C   0  0  2  0  0  0  0  0  0  0  0  0
    0.3395   -1.8293    1.0083 C   0  0  0  0  0  0  0  0  0  0  0  0
   -0.8136   -2.0027    0.6194 O   0  0  0  0  0  0  0  0  0  0  0  0
    2.2176   -3.3411    0.3189 C   0  0  0  0  0  0  0  0  0  0  0  0
   -0.2574   -4.4279    1.1287 H   0  0  0  0  0  0  0  0  0  0  0  0
    1.8087   -2.6785    2.3327 H   0  0  0  0  0  0  0  0  0  0  0  0
    1.6793   -3.6366   -0.5890 H   0  0  0  0  0  0  0  0  0  0  0  0
    2.8662   -2.4980    0.0589 H   0  0  0  0  0  0  0  0  0  0  0  0
    2.8538   -4.1816    0.6166 H   0  0  0  0  0  0  0  0  0  0  0  0
    0.9758   -0.5952    1.0708 N   0  0  0  0  0  0  0  0  0  0  0  0
    0.3258    0.6374    0.7059 C   0  0  2  0  0  0  0  0  0  0  0  0
    1.4106    1.6962    0.5395 C   0  0  0  0  0  0  0  0  0  0  0  0
    2.1445    2.0534    1.4587 O   0  0  0  0  0  0  0  0  0  0  0  0
   -0.6962    1.0812    1.7594 C   0  0  0  0  0  0  0  0  0  0  0  0
   -1.9029    0.1499    1.8677 C   0  0  0  0  0  0  0  0  0  0  0  0
   -2.9527    0.5227    2.9198 C   0  0  0  0  0  0  0  0  0  0  0  0
   -2.6195    1.4861    3.6684 O   0  5  0  0  0  0  0  0  0  0  0  0
   -4.0187   -0.1524    2.9105 O   0  0  0  0  0  0  0  0  0  0  0  0
    1.9288   -0.5463    1.4242 H   0  0  0  0  0  0  0  0  0  0  0  0
   -0.1506    0.4656   -0.2654 H   0  0  0  0  0  0  0  0  0  0  0  0
   -1.0399    2.1003    1.5430 H   0  0  0  0  0  0  0  0  0  0  0  0
   -0.2069    1.1303    2.7415 H   0  0  0  0  0  0  0  0  0  0  0  0
   -2.3917    0.0556    0.8907 H   0  0  0  0  0  0  0  0  0  0  0  0
   -1.5434   -0.8523    2.1343 H   0  0  0  0  0  0  0  0  0  0  0  0
    1.4295    2.2266   -0.7430 N   0  0  0  0  0  0  0  0  0  0  0  0
    2.3555    3.2576   -1.1508 C   0  0  2  0  0  0  0  0  0  0  0  0
    1.8138    3.9008   -2.4206 C   0  0  0  0  0  0  0  0  0  0  0  0
    1.0204    3.3377   -3.1719 O   0  0  0  0  0  0  0  0  0  0  0  0
    3.7482    2.6913   -1.3798 C   0  0  0  0  0  0  0  0  0  0  0  0
    0.7935    1.8587   -1.4443 H   0  0  0  0  0  0  0  0  0  0  0  0
    2.3773    3.9998   -0.3454 H   0  0  0  0  0  0  0  0  0  0  0  0
    3.7463    1.9458   -2.1834 H   0  0  0  0  0  0  0  0  0  0  0  0
    4.4553    3.4786   -1.6612 H   0  0  0  0  0  0  0  0  0  0  0  0
    4.1241    2.2029   -0.4743 H   0  0  0  0  0  0  0  0  0  0  0  0
    2.3538    5.1606   -2.6387 N   0  0  0  0  0  0  0  0  0  0  0  0
    2.0075    5.9696   -3.7839 C   0  0  0  0  0  0  0  0  0  0  0  0
    2.9902    5.5570   -1.9534 H   0  0  0  0  0  0  0  0  0  0  0  0
    2.7253    5.7825   -4.5962 H   0  0  0  0  0  0  0  0  0  0  0  0
    0.9940    5.7098   -4.1233 H   0  0  0  0  0  0  0  0  0  0  0  0
    2.0392    7.0331   -3.5045 H   0  0  0  0  0  0  0  0  0  0  0  0
  1  3  1  0  0  0  0
  1  7  1  0  0  0  0
  1  2  2  0  0  0  0
 33 34  1  0  0  0  0
 34 42  1  0  0  0  0
 34 35  2  0  0  0  0
  8  9  1  0  0  0  0
  9 17  1  0  0  0  0
  9 10  2  0  0  0  0
 18 19  1  0  0  0  0
 19 32  1  0  0  0  0
 19 20  2  0  0  0  0
 22 23  1  0  0  0  0
 23 24  1  0  0  0  0
 23 25  2  0  0  0  0
 33 36  1  0  0  0  0
  8 11  1  0  0  0  0
 42 43  1  0  0  0  0
 21 22  1  0  0  0  0
 18 21  1  0  0  0  0
 32 33  1  0  0  0  0
  7  8  1  0  0  0  0
 17 18  1  0  0  0  0
  3  4  1  0  0  0  0
  3  5  1  0  0  0  0
  3  6  1  0  0  0  0
 36 39  1  0  0  0  0
 36 40  1  0  0  0  0
 36 41  1  0  0  0  0
 11 14  1  0  0  0  0
 11 15  1  0  0  0  0
 11 16  1  0  0  0  0
 43 45  1  0  0  0  0
 43 46  1  0  0  0  0
 43 47  1  0  0  0  0
 22 30  1  0  0  0  0
 22 31  1  0  0  0  0
 21 28  1  0  0  0  0
 21 29  1  0  0  0  0
 33 38  1  0  0  0  0
  8 13  1  0  0  0  0
 18 27  1  0  0  0  0
 42 44  1  0  0  0  0
  7 12  1  0  0  0  0
 32 37  1  0  0  0  0
 17 26  1  0  0  0  0
M  CHG  1  24  -1
M  END
$$$$

  -OEChem-05262214473D

 47 46  0     1  0  0  0  0  0999 V2000
    0.5093   -4.7265    3.0306 C   0  0  0  0  0  0  0  0  0  0  0  0
    1.2735   -4.4402    3.9448 O   0  0  0  0  0  0  0  0  0  0  0  0
   -0.4465   -5.8608    3.1982 C   0  0  0  0  0  0  0  0  0  0  0  0
   -0.0219   -6.8213    2.8645 H   0  0  0  0  0  0  0  0  0  0  0  0
   -0.7314   -6.0185    4.2509 H   0  0  0  0  0  0  0  0  0  0  0  0
   -1.3983   -5.7596    2.6527 H   0  0  0  0  0  0  0  0  0  0  0  0
    0.4252   -4.0886    1.8040 N   0  0  0  0  0  0  0  0  0  0  0  0
    1.2532   -2.9707    1.4349 C   0  0  2  0  0  0  0  0  0  0  0  0
    0.3395   -1.8293    1.0083 C   0  0  0  0  0  0  0  0  0  0  0  0
   -0.8136   -2.0027    0.6194 O   0  0  0  0  0  0  0  0  0  0  0  0
    2.2176   -3.3411    0.3189 C   0  0  0  0  0  0  0  0  0  0  0  0
   -0.2574   -4.4279    1.1287 H   0  0  0  0  0  0  0  0  0  0  0  0
    1.8087   -2.6785    2.3327 H   0  0  0  0  0  0  0  0  0  0  0  0
    1.6793   -3.6366   -0.5890 H   0  0  0  0  0  0  0  0  0  0  0  0
    2.8662   -2.4980    0.0589 H   0  0  0  0  0  0  0  0  0  0  0  0
    2.8538   -4.1816    0.6166 H   0  0  0  0  0  0  0  0  0  0  0  0
    0.9758   -0.5952    1.0708 N   0  0  0  0  0  0  0  0  0  0  0  0
    0.3258    0.6374    0.7059 C   0  0  2  0  0  0  0  0  0  0  0  0
    1.4106    1.6962    0.5395 C   0  0  0  0  0  0  0  0  0  0  0  0
    2.3110    1.8671    1.3588 O   0  0  0  0  0  0  0  0  0  0  0  0
   -0.6962    1.0812    1.7594 C   0  0  0  0  0  0  0  0  0  0  0  0
   -1.9029    0.1499    1.8677 C   0  0  0  0  0  0  0  0  0  0  0  0
   -2.9527    0.5227    2.9198 C   0  0  0  0  0  0  0  0  0  0  0  0
   -2.6195    1.4861    3.6684 O   0  5  0  0  0  0  0  0  0  0  0  0
   -4.0187   -0.1524    2.9105 O   0  0  0  0  0  0  0  0  0  0  0  0
    1.9288   -0.5463    1.4242 H   0  0  0  0  0  0  0  0  0  0  0  0
   -0.1506    0.4656   -0.2654 H   0  0  0  0  0  0  0  0  0  0  0  0
   -1.0399    2.1003    1.5430 H   0  0  0  0  0  0  0  0  0  0  0  0
   -0.2069    1.1303    2.7415 H   0  0  0  0  0  0  0  0  0  0  0  0
   -2.3917    0.0556    0.8907 H   0  0  0  0  0  0  0  0  0  0  0  0
   -1.5434   -0.8523    2.1343 H   0  0  0  0  0  0  0  0  0  0  0  0
    1.2260    2.4565   -0.6070 N   0  0  0  0  0  0  0  0  0  0  0  0
    2.1107    3.5348   -0.9828 C   0  0  2  0  0  0  0  0  0  0  0  0
    1.3823    4.4099   -1.9943 C   0  0  0  0  0  0  0  0  0  0  0  0
    0.4438    4.0061   -2.6779 O   0  0  0  0  0  0  0  0  0  0  0  0
    3.4139    3.0054   -1.5609 C   0  0  0  0  0  0  0  0  0  0  0  0
    0.4600    2.2332   -1.2355 H   0  0  0  0  0  0  0  0  0  0  0  0
    2.3082    4.1133   -0.0737 H   0  0  0  0  0  0  0  0  0  0  0  0
    3.2361    2.4231   -2.4723 H   0  0  0  0  0  0  0  0  0  0  0  0
    4.0948    3.8233   -1.8187 H   0  0  0  0  0  0  0  0  0  0  0  0
    3.9218    2.3523   -0.8430 H   0  0  0  0  0  0  0  0  0  0  0  0
    1.9313    5.6820   -2.0748 N   0  0  0  0  0  0  0  0  0  0  0  0
    1.4246    6.6945   -2.9715 C   0  0  0  0  0  0  0  0  0  0  0  0
    2.6962    5.9362   -1.4567 H   0  0  0  0  0  0  0  0  0  0  0  0
    1.9780    6.6541   -3.9213 H   0  0  0  0  0  0  0  0  0  0  0  0
    0.3563    6.5142   -3.1618 H   0  0  0  0  0  0  0  0  0  0  0  0
    1.5532    7.6867   -2.5143 H   0  0  0  0  0  0  0  0  0  0  0  0
  1  3  1  0  0  0  0
  1  7  1  0  0  0  0
  1  2  2  0  0  0  0
 33 34  1  0  0  0  0
 34 42  1  0  0  0  0
 34 35  2  0  0  0  0
  8  9  1  0  0  0  0
  9 17  1  0  0  0  0
  9 10  2  0  0  0  0
 18 19  1  0  0  0  0
 19 32  1  0  0  0  0
 19 20  2  0  0  0  0
 22 23  1  0  0  0  0
 23 24  1  0  0  0  0
 23 25  2  0  0  0  0
 33 36  1  0  0  0  0
  8 11  1  0  0  0  0
 42 43  1  0  0  0  0
 21 22  1  0  0  0  0
 18 21  1  0  0  0  0
 32 33  1  0  0  0  0
  7  8  1  0  0  0  0
 17 18  1  0  0  0  0
  3  4  1  0  0  0  0
  3  5  1  0  0  0  0
  3  6  1  0  0  0  0
 36 39  1  0  0  0  0
 36 40  1  0  0  0  0
 36 41  1  0  0  0  0
 11 14  1  0  0  0  0
 11 15  1  0  0  0  0
 11 16  1  0  0  0  0
 43 45  1  0  0  0  0
 43 46  1  0  0  0  0
 43 47  1  0  0  0  0
 22 30  1  0  0  0  0
 22 31  1  0  0  0  0
 21 28  1  0  0  0  0
 21 29  1  0  0  0  0
 33 38  1  0  0  0  0
  8 13  1  0  0  0  0
 18 27  1  0  0  0  0
 42 44  1  0  0  0  0
  7 12  1  0  0  0  0
 32 37  1  0  0  0  0
 17 26  1  0  0  0  0
M  CHG  1  24  -1
M  END
$$$$

  -OEChem-05262214473D

 47 46  0     1  0  0  0  0  0999 V2000
    0.5093   -4.7265    3.0306 C   0  0  0  0  0  0  0  0  0  0  0  0
    1.2735   -4.4402    3.9448 O   0  0  0  0  0  0  0  0  0  0  0  0
   -0.4465   -5.8608    3.1982 C   0  0  0  0  0  0  0  0  0  0  0  0
   -0.0219   -6.8213    2.8645 H   0  0  0  0  0  0  0  0  0  0  0  0
   -0.7314   -6.0185    4.2509 H   0  0  0  0  0  0  0  0  0  0  0  0
   -1.3983   -5.7596    2.6527 H   0  0  0  0  0  0  0  0  0  0  0  0
    0.4252   -4.0886    1.8040 N   0  0  0  0  0  0  0  0  0  0  0  0
    1.2532   -2.9707    1.4349 C   0  0  2  0  0  0  0  0  0  0  0  0
    0.3395   -1.8293    1.0083 C   0  0  0  0  0  0  0  0  0  0  0  0
   -0.8136   -2.0027    0.6194 O   0  0  0  0  0  0  0  0  0  0  0  0
    2.2176   -3.3411    0.3189 C   0  0  0  0  0  0  0  0  0  0  0  0
   -0.2574   -4.4279    1.1287 H   0  0  0  0  0  0  0  0  0  0  0  0
    1.8087   -2.6785    2.3327 H   0  0  0  0  0  0  0  0  0  0  0  0
    1.6793   -3.6366   -0.5890 H   0  0  0  0  0  0  0  0  0  0  0  0
    2.8662   -2.4980    0.0589 H   0  0  0  0  0  0  0  0  0  0  0  0
    2.8538   -4.1816    0.6166 H   0  0  0  0  0  0  0  0  0  0  0  0
    0.9758   -0.5952    1.0708 N   0  0  0  0  0  0  0  0  0  0  0  0
    0.3258    0.6374    0.7059 C   0  0  2  0  0  0  0  0  0  0  0  0
    1.4106    1.6962    0.5395 C   0  0  0  0  0  0  0  0  0  0  0  0
    2.4486    1.7009    1.1980 O   0  0  0  0  0  0  0  0  0  0  0  0
   -0.6962    1.0812    1.7594 C   0  0  0  0  0  0  0  0  0  0  0  0
   -1.9029    0.1499    1.8677 C   0  0  0  0  0  0  0  0  0  0  0  0
   -2.9527    0.5227    2.9198 C   0  0  0  0  0  0  0  0  0  0  0  0
   -2.6195    1.4861    3.6684 O   0  5  0  0  0  0  0  0  0  0  0  0
   -4.0187   -0.1524    2.9105 O   0  0  0  0  0  0  0  0  0  0  0  0
    1.9288   -0.5463    1.4242 H   0  0  0  0  0  0  0  0  0  0  0  0
   -0.1506    0.4656   -0.2654 H   0  0  0  0  0  0  0  0  0  0  0  0
   -1.0399    2.1003    1.5430 H   0  0  0  0  0  0  0  0  0  0  0  0
   -0.2069    1.1303    2.7415 H   0  0  0  0  0  0  0  0  0  0  0  0
   -2.3917    0.0556    0.8907 H   0  0  0  0  0  0  0  0  0  0  0  0
   -1.5434   -0.8523    2.1343 H   0  0  0  0  0  0  0  0  0  0  0  0
    1.0604    2.6592   -0.3967 N   0  0  0  0  0  0  0  0  0  0  0  0
    1.9122    3.7785   -0.7255 C   0  0  2  0  0  0  0  0  0  0  0  0
    1.0565    4.8354   -1.4112 C   0  0  0  0  0  0  0  0  0  0  0  0
   -0.0054    4.5770   -1.9740 O   0  0  0  0  0  0  0  0  0  0  0  0
    3.0673    3.3515   -1.6178 C   0  0  0  0  0  0  0  0  0  0  0  0
    0.1859    2.5659   -0.9050 H   0  0  0  0  0  0  0  0  0  0  0  0
    2.2934    4.1749    0.2220 H   0  0  0  0  0  0  0  0  0  0  0  0
    2.7049    2.9517   -2.5719 H   0  0  0  0  0  0  0  0  0  0  0  0
    3.7279    4.1953   -1.8427 H   0  0  0  0  0  0  0  0  0  0  0  0
    3.6643    2.5701   -1.1353 H   0  0  0  0  0  0  0  0  0  0  0  0
    1.6393    6.0938   -1.3582 N   0  0  0  0  0  0  0  0  0  0  0  0
    1.0280    7.2616   -1.9485 C   0  0  0  0  0  0  0  0  0  0  0  0
    2.5122    6.2194   -0.8543 H   0  0  0  0  0  0  0  0  0  0  0  0
    1.4021    7.3929   -2.9746 H   0  0  0  0  0  0  0  0  0  0  0  0
   -0.0642    7.1322   -1.9704 H   0  0  0  0  0  0  0  0  0  0  0  0
    1.2801    8.1494   -1.3500 H   0  0  0  0  0  0  0  0  0  0  0  0
  1  3  1  0  0  0  0
  1  7  1  0  0  0  0
  1  2  2  0  0  0  0
 33 34  1  0  0  0  0
 34 42  1  0  0  0  0
 34 35  2  0  0  0  0
  8  9  1  0  0  0  0
  9 17  1  0  0  0  0
  9 10  2  0  0  0  0
 18 19  1  0  0  0  0
 19 32  1  0  0  0  0
 19 20  2  0  0  0  0
 22 23  1  0  0  0  0
 23 24  1  0  0  0  0
 23 25  2  0  0  0  0
 33 36  1  0  0  0  0
  8 11  1  0  0  0  0
 42 43  1  0  0  0  0
 21 22  1  0  0  0  0
 18 21  1  0  0  0  0
 32 33  1  0  0  0  0
  7  8  1  0  0  0  0
 17 18  1  0  0  0  0
  3  4  1  0  0  0  0
  3  5  1  0  0  0  0
  3  6  1  0  0  0  0
 36 39  1  0  0  0  0
 36 40  1  0  0  0  0
 36 41  1  0  0  0  0
 11 14  1  0  0  0  0
 11 15  1  0  0  0  0
 11 16  1  0  0  0  0
 43 45  1  0  0  0  0
 43 46  1  0  0  0  0
 43 47  1  0  0  0  0
 22 30  1  0  0  0  0
 22 31  1  0  0  0  0
 21 28  1  0  0  0  0
 21 29  1  0  0  0  0
 33 38  1  0  0  0  0
  8 13  1  0  0  0  0
 18 27  1  0  0  0  0
 42 44  1  0  0  0  0
  7 12  1  0  0  0  0
 32 37  1  0  0  0  0
 17 26  1  0  0  0  0
M  CHG  1  24  -1
M  END
$$$$

  -OEChem-05262214473D

 47 46  0     1  0  0  0  0  0999 V2000
    0.5093   -4.7265    3.0306 C   0  0  0  0  0  0  0  0  0  0  0  0
    1.2735   -4.4402    3.9448 O   0  0  0  0  0  0  0  0  0  0  0  0
   -0.4465   -5.8608    3.1982 C   0  0  0  0  0  0  0  0  0  0  0  0
   -0.0219   -6.8213    2.8645 H   0  0  0  0  0  0  0  0  0  0  0  0
   -0.7314   -6.0185    4.2509 H   0  0  0  0  0  0  0  0  0  0  0  0
   -1.3983   -5.7596    2.6527 H   0  0  0  0  0  0  0  0  0  0  0  0
    0.4252   -4.0886    1.8040 N   0  0  0  0  0  0  0  0  0  0  0  0
    1.2532   -2.9707    1.4349 C   0  0  2  0  0  0  0  0  0  0  0  0
    0.3395   -1.8293    1.0083 C   0  0  0  0  0  0  0  0  0  0  0  0
   -0.8136   -2.0027    0.6194 O   0  0  0  0  0  0  0  0  0  0  0  0
    2.2176   -3.3411    0.3189 C   0  0  0  0  0  0  0  0  0  0  0  0
   -0.2574   -4.4279    1.1287 H   0  0  0  0  0  0  0  0  0  0  0  0
    1.8087   -2.6785    2.3327 H   0  0  0  0  0  0  0  0  0  0  0  0
    1.6793   -3.6366   -0.5890 H   0  0  0  0  0  0  0  0  0  0  0  0
    2.8662   -2.4980    0.0589 H   0  0  0  0  0  0  0  0  0  0  0  0
    2.8538   -4.1816    0.6166 H   0  0  0  0  0  0  0  0  0  0  0  0
    0.9758   -0.5952    1.0708 N   0  0  0  0  0  0  0  0  0  0  0  0
    0.3258    0.6374    0.7059 C   0  0  2  0  0  0  0  0  0  0  0  0
    1.4106    1.6962    0.5395 C   0  0  0  0  0  0  0  0  0  0  0  0
    2.5480    1.5660    0.9874 O   0  0  0  0  0  0  0  0  0  0  0  0
   -0.6962    1.0812    1.7594 C   0  0  0  0  0  0  0  0  0  0  0  0
   -1.9029    0.1499    1.8677 C   0  0  0  0  0  0  0  0  0  0  0  0
   -2.9527    0.5227    2.9198 C   0  0  0  0  0  0  0  0  0  0  0  0
   -2.6195    1.4861    3.6684 O   0  5  0  0  0  0  0  0  0  0  0  0
   -4.0187   -0.1524    2.9105 O   0  0  0  0  0  0  0  0  0  0  0  0
    1.9288   -0.5463    1.4242 H   0  0  0  0  0  0  0  0  0  0  0  0
   -0.1506    0.4656   -0.2654 H   0  0  0  0  0  0  0  0  0  0  0  0
   -1.0399    2.1003    1.5430 H   0  0  0  0  0  0  0  0  0  0  0  0
   -0.2069    1.1303    2.7415 H   0  0  0  0  0  0  0  0  0  0  0  0
   -2.3917    0.0556    0.8907 H   0  0  0  0  0  0  0  0  0  0  0  0
   -1.5434   -0.8523    2.1343 H   0  0  0  0  0  0  0  0  0  0  0  0
    0.9439    2.8210   -0.1265 N   0  0  0  0  0  0  0  0  0  0  0  0
    1.7737    3.9722   -0.3964 C   0  0  2  0  0  0  0  0  0  0  0  0
    0.8585    5.1482   -0.7111 C   0  0  0  0  0  0  0  0  0  0  0  0
   -0.2968    5.0116   -1.1082 O   0  0  0  0  0  0  0  0  0  0  0  0
    2.7320    3.7061   -1.5468 C   0  0  0  0  0  0  0  0  0  0  0  0
   -0.0100    2.8342   -0.4752 H   0  0  0  0  0  0  0  0  0  0  0  0
    2.3341    4.1803    0.5216 H   0  0  0  0  0  0  0  0  0  0  0  0
    2.1888    3.4956   -2.4753 H   0  0  0  0  0  0  0  0  0  0  0  0
    3.3798    4.5695   -1.7314 H   0  0  0  0  0  0  0  0  0  0  0  0
    3.3692    2.8417   -1.3313 H   0  0  0  0  0  0  0  0  0  0  0  0
    1.4977    6.3679   -0.5378 N   0  0  0  0  0  0  0  0  0  0  0  0
    0.8447    7.6323   -0.7847 C   0  0  0  0  0  0  0  0  0  0  0  0
    2.4508    6.3872   -0.1872 H   0  0  0  0  0  0  0  0  0  0  0  0
    1.0368    7.9485   -1.8206 H   0  0  0  0  0  0  0  0  0  0  0  0
   -0.2387    7.5217   -0.6302 H   0  0  0  0  0  0  0  0  0  0  0  0
    1.2386    8.3898   -0.0912 H   0  0  0  0  0  0  0  0  0  0  0  0
  1  3  1  0  0  0  0
  1  7  1  0  0  0  0
  1  2  2  0  0  0  0
 33 34  1  0  0  0  0
 34 42  1  0  0  0  0
 34 35  2  0  0  0  0
  8  9  1  0  0  0  0
  9 17  1  0  0  0  0
  9 10  2  0  0  0  0
 18 19  1  0  0  0  0
 19 32  1  0  0  0  0
 19 20  2  0  0  0  0
 22 23  1  0  0  0  0
 23 24  1  0  0  0  0
 23 25  2  0  0  0  0
 33 36  1  0  0  0  0
  8 11  1  0  0  0  0
 42 43  1  0  0  0  0
 21 22  1  0  0  0  0
 18 21  1  0  0  0  0
 32 33  1  0  0  0  0
  7  8  1  0  0  0  0
 17 18  1  0  0  0  0
  3  4  1  0  0  0  0
  3  5  1  0  0  0  0
  3  6  1  0  0  0  0
 36 39  1  0  0  0  0
 36 40  1  0  0  0  0
 36 41  1  0  0  0  0
 11 14  1  0  0  0  0
 11 15  1  0  0  0  0
 11 16  1  0  0  0  0
 43 45  1  0  0  0  0
 43 46  1  0  0  0  0
 43 47  1  0  0  0  0
 22 30  1  0  0  0  0
 22 31  1  0  0  0  0
 21 28  1  0  0  0  0
 21 29  1  0  0  0  0
 33 38  1  0  0  0  0
  8 13  1  0  0  0  0
 18 27  1  0  0  0  0
 42 44  1  0  0  0  0
  7 12  1  0  0  0  0
 32 37  1  0  0  0  0
 17 26  1  0  0  0  0
M  CHG  1  24  -1
M  END
$$$$

  -OEChem-05262214473D

 47 46  0     1  0  0  0  0  0999 V2000
    0.5093   -4.7265    3.0306 C   0  0  0  0  0  0  0  0  0  0  0  0
    1.2735   -4.4402    3.9448 O   0  0  0  0  0  0  0  0  0  0  0  0
   -0.4465   -5.8608    3.1982 C   0  0  0  0  0  0  0  0  0  0  0  0
   -0.0219   -6.8213    2.8645 H   0  0  0  0  0  0  0  0  0  0  0  0
   -0.7314   -6.0185    4.2509 H   0  0  0  0  0  0  0  0  0  0  0  0
   -1.3983   -5.7596    2.6527 H   0  0  0  0  0  0  0  0  0  0  0  0
    0.4252   -4.0886    1.8040 N   0  0  0  0  0  0  0  0  0  0  0  0
    1.2532   -2.9707    1.4349 C   0  0  2  0  0  0  0  0  0  0  0  0
    0.3395   -1.8293    1.0083 C   0  0  0  0  0  0  0  0  0  0  0  0
   -0.8136   -2.0027    0.6194 O   0  0  0  0  0  0  0  0  0  0  0  0
    2.2176   -3.3411    0.3189 C   0  0  0  0  0  0  0  0  0  0  0  0
   -0.2574   -4.4279    1.1287 H   0  0  0  0  0  0  0  0  0  0  0  0
    1.8087   -2.6785    2.3327 H   0  0  0  0  0  0  0  0  0  0  0  0
    1.6793   -3.6366   -0.5890 H   0  0  0  0  0  0  0  0  0  0  0  0
    2.8662   -2.4980    0.0589 H   0  0  0  0  0  0  0  0  0  0  0  0
    2.8538   -4.1816    0.6166 H   0  0  0  0  0  0  0  0  0  0  0  0
    0.9758   -0.5952    1.0708 N   0  0  0  0  0  0  0  0  0  0  0  0
    0.3258    0.6374    0.7059 C   0  0  2  0  0  0  0  0  0  0  0  0
    1.3991    1.5830    0.1773 C   0  0  0  0  0  0  0  0  0  0  0  0
    2.5922    1.2887    0.1412 O   0  0  0  0  0  0  0  0  0  0  0  0
   -0.4078    1.2729    1.8931 C   0  0  0  0  0  0  0  0  0  0  0  0
   -1.6061    0.4569    2.3761 C   0  0  0  0  0  0  0  0  0  0  0  0
   -2.3708    1.0240    3.5767 C   0  0  0  0  0  0  0  0  0  0  0  0
   -1.8275    2.0343    4.1093 O   0  5  0  0  0  0  0  0  0  0  0  0
   -3.4454    0.4381    3.8835 O   0  0  0  0  0  0  0  0  0  0  0  0
    1.9288   -0.5463    1.4242 H   0  0  0  0  0  0  0  0  0  0  0  0
   -0.3656    0.3984   -0.1094 H   0  0  0  0  0  0  0  0  0  0  0  0
   -0.7375    2.2861    1.6317 H   0  0  0  0  0  0  0  0  0  0  0  0
    0.2921    1.3904    2.7312 H   0  0  0  0  0  0  0  0  0  0  0  0
   -2.3068    0.2951    1.5483 H   0  0  0  0  0  0  0  0  0  0  0  0
   -1.2489   -0.5352    2.6804 H   0  0  0  0  0  0  0  0  0  0  0  0
    0.8722    2.8089   -0.2046 N   0  0  0  0  0  0  0  0  0  0  0  0
    1.6856    3.8833   -0.7252 C   0  0  2  0  0  0  0  0  0  0  0  0
    0.8889    5.1759   -0.6071 C   0  0  0  0  0  0  0  0  0  0  0  0
   -0.3376    5.2032   -0.5290 O   0  0  0  0  0  0  0  0  0  0  0  0
    2.0885    3.6230   -2.1683 C   0  0  0  0  0  0  0  0  0  0  0  0
   -0.1312    2.9582   -0.1537 H   0  0  0  0  0  0  0  0  0  0  0  0
    2.5756    3.9427   -0.0893 H   0  0  0  0  0  0  0  0  0  0  0  0
    1.2098    3.5602   -2.8205 H   0  0  0  0  0  0  0  0  0  0  0  0
    2.7285    4.4243   -2.5522 H   0  0  0  0  0  0  0  0  0  0  0  0
    2.6356    2.6781   -2.2558 H   0  0  0  0  0  0  0  0  0  0  0  0
    1.7057    6.2974   -0.6426 N   0  0  0  0  0  0  0  0  0  0  0  0
    1.1868    7.6427   -0.5604 C   0  0  0  0  0  0  0  0  0  0  0  0
    2.7135    6.1802   -0.6900 H   0  0  0  0  0  0  0  0  0  0  0  0
    1.0117    8.0314   -1.5744 H   0  0  0  0  0  0  0  0  0  0  0  0
    0.2393    7.6366   -0.0015 H   0  0  0  0  0  0  0  0  0  0  0  0
    1.9140    8.2850   -0.0421 H   0  0  0  0  0  0  0  0  0  0  0  0
  1  3  1  0  0  0  0
  1  7  1  0  0  0  0
  1  2  2  0  0  0  0
 33 34  1  0  0  0  0
 34 42  1  0  0  0  0
 34 35  2  0  0  0  0
  8  9  1  0  0  0  0
  9 17  1  0  0  0  0
  9 10  2  0  0  0  0
 18 19  1  0  0  0  0
 19 32  1  0  0  0  0
 19 20  2  0  0  0  0
 22 23  1  0  0  0  0
 23 24  1  0  0  0  0
 23 25  2  0  0  0  0
 33 36  1  0  0  0  0
  8 11  1  0  0  0  0
 42 43  1  0  0  0  0
 21 22  1  0  0  0  0
 18 21  1  0  0  0  0
 32 33  1  0  0  0  0
  7  8  1  0  0  0  0
 17 18  1  0  0  0  0
  3  4  1  0  0  0  0
  3  5  1  0  0  0  0
  3  6  1  0  0  0  0
 36 39  1  0  0  0  0
 36 40  1  0  0  0  0
 36 41  1  0  0  0  0
 11 14  1  0  0  0  0
 11 15  1  0  0  0  0
 11 16  1  0  0  0  0
 43 45  1  0  0  0  0
 43 46  1  0  0  0  0
 43 47  1  0  0  0  0
 22 30  1  0  0  0  0
 22 31  1  0  0  0  0
 21 28  1  0  0  0  0
 21 29  1  0  0  0  0
 33 38  1  0  0  0  0
  8 13  1  0  0  0  0
 18 27  1  0  0  0  0
 42 44  1  0  0  0  0
  7 12  1  0  0  0  0
 32 37  1  0  0  0  0
 17 26  1  0  0  0  0
M  CHG  1  24  -1
M  END
$$$$

  -OEChem-05262214473D

 47 46  0     1  0  0  0  0  0999 V2000
    0.5093   -4.7265    3.0306 C   0  0  0  0  0  0  0  0  0  0  0  0
    1.2735   -4.4402    3.9448 O   0  0  0  0  0  0  0  0  0  0  0  0
   -0.4465   -5.8608    3.1982 C   0  0  0  0  0  0  0  0  0  0  0  0
   -0.0219   -6.8213    2.8645 H   0  0  0  0  0  0  0  0  0  0  0  0
   -0.7314   -6.0185    4.2509 H   0  0  0  0  0  0  0  0  0  0  0  0
   -1.3983   -5.7596    2.6527 H   0  0  0  0  0  0  0  0  0  0  0  0
    0.4252   -4.0886    1.8040 N   0  0  0  0  0  0  0  0  0  0  0  0
    1.2532   -2.9707    1.4349 C   0  0  2  0  0  0  0  0  0  0  0  0
    0.3395   -1.8293    1.0083 C   0  0  0  0  0  0  0  0  0  0  0  0
   -0.8136   -2.0027    0.6194 O   0  0  0  0  0  0  0  0  0  0  0  0
    2.2176   -3.3411    0.3189 C   0  0  0  0  0  0  0  0  0  0  0  0
   -0.2574   -4.4279    1.1287 H   0  0  0  0  0  0  0  0  0  0  0  0
    1.8087   -2.6785    2.3327 H   0  0  0  0  0  0  0  0  0  0  0  0
    1.6793   -3.6366   -0.5890 H   0  0  0  0  0  0  0  0  0  0  0  0
    2.8662   -2.4980    0.0589 H   0  0  0  0  0  0  0  0  0  0  0  0
    2.8538   -4.1816    0.6166 H   0  0  0  0  0  0  0  0  0  0  0  0
    0.9758   -0.5952    1.0708 N   0  0  0  0  0  0  0  0  0  0  0  0
    0.3258    0.6374    0.7059 C   0  0  2  0  0  0  0  0  0  0  0  0
    1.3991    1.5830    0.1773 C   0  0  0  0  0  0  0  0  0  0  0  0
    2.5354    1.2124   -0.1105 O   0  0  0  0  0  0  0  0  0  0  0  0
   -0.4078    1.2729    1.8931 C   0  0  0  0  0  0  0  0  0  0  0  0
   -1.6061    0.4569    2.3761 C   0  0  0  0  0  0  0  0  0  0  0  0
   -2.3708    1.0240    3.5767 C   0  0  0  0  0  0  0  0  0  0  0  0
   -1.8275    2.0343    4.1093 O   0  5  0  0  0  0  0  0  0  0  0  0
   -3.4454    0.4381    3.8835 O   0  0  0  0  0  0  0  0  0  0  0  0
    1.9288   -0.5463    1.4242 H   0  0  0  0  0  0  0  0  0  0  0  0
   -0.3656    0.3984   -0.1094 H   0  0  0  0  0  0  0  0  0  0  0  0
   -0.7375    2.2861    1.6317 H   0  0  0  0  0  0  0  0  0  0  0  0
    0.2921    1.3904    2.7312 H   0  0  0  0  0  0  0  0  0  0  0  0
   -2.3068    0.2951    1.5483 H   0  0  0  0  0  0  0  0  0  0  0  0
   -1.2489   -0.5352    2.6804 H   0  0  0  0  0  0  0  0  0  0  0  0
    0.9514    2.8950    0.1101 N   0  0  0  0  0  0  0  0  0  0  0  0
    1.7839    3.9846   -0.3443 C   0  0  2  0  0  0  0  0  0  0  0  0
    1.1541    5.2874    0.1307 C   0  0  0  0  0  0  0  0  0  0  0  0
   -0.0365    5.3911    0.4182 O   0  0  0  0  0  0  0  0  0  0  0  0
    1.9331    3.9730   -1.8576 C   0  0  0  0  0  0  0  0  0  0  0  0
   -0.0114    3.1066    0.3549 H   0  0  0  0  0  0  0  0  0  0  0  0
    2.7616    3.8557    0.1327 H   0  0  0  0  0  0  0  0  0  0  0  0
    0.9637    4.1009   -2.3530 H   0  0  0  0  0  0  0  0  0  0  0  0
    2.5875    4.7824   -2.1980 H   0  0  0  0  0  0  0  0  0  0  0  0
    2.3586    3.0236   -2.2001 H   0  0  0  0  0  0  0  0  0  0  0  0
    2.0687    6.3309    0.1545 N   0  0  0  0  0  0  0  0  0  0  0  0
    1.7119    7.6713    0.5571 C   0  0  0  0  0  0  0  0  0  0  0  0
    3.0398    6.1498   -0.0820 H   0  0  0  0  0  0  0  0  0  0  0  0
    1.4262    8.2571   -0.3290 H   0  0  0  0  0  0  0  0  0  0  0  0
    0.8652    7.6303    1.2580 H   0  0  0  0  0  0  0  0  0  0  0  0
    2.5727    8.1475    1.0493 H   0  0  0  0  0  0  0  0  0  0  0  0
  1  3  1  0  0  0  0
  1  7  1  0  0  0  0
  1  2  2  0  0  0  0
 33 34  1  0  0  0  0
 34 42  1  0  0  0  0
 34 35  2  0  0  0  0
  8  9  1  0  0  0  0
  9 17  1  0  0  0  0
  9 10  2  0  0  0  0
 18 19  1  0  0  0  0
 19 32  1  0  0  0  0
 19 20  2  0  0  0  0
 22 23  1  0  0  0  0
 23 24  1  0  0  0  0
 23 25  2  0  0  0  0
 33 36  1  0  0  0  0
  8 11  1  0  0  0  0
 42 43  1  0  0  0  0
 21 22  1  0  0  0  0
 18 21  1  0  0  0  0
 32 33  1  0  0  0  0
  7  8  1  0  0  0  0
 17 18  1  0  0  0  0
  3  4  1  0  0  0  0
  3  5  1  0  0  0  0
  3  6  1  0  0  0  0
 36 39  1  0  0  0  0
 36 40  1  0  0  0  0
 36 41  1  0  0  0  0
 11 14  1  0  0  0  0
 11 15  1  0  0  0  0
 11 16  1  0  0  0  0
 43 45  1  0  0  0  0
 43 46  1  0  0  0  0
 43 47  1  0  0  0  0
 22 30  1  0  0  0  0
 22 31  1  0  0  0  0
 21 28  1  0  0  0  0
 21 29  1  0  0  0  0
 33 38  1  0  0  0  0
  8 13  1  0  0  0  0
 18 27  1  0  0  0  0
 42 44  1  0  0  0  0
  7 12  1  0  0  0  0
 32 37  1  0  0  0  0
 17 26  1  0  0  0  0
M  CHG  1  24  -1
M  END
$$$$

  -OEChem-05262214473D

 47 46  0     1  0  0  0  0  0999 V2000
    0.5093   -4.7265    3.0306 C   0  0  0  0  0  0  0  0  0  0  0  0
    1.2735   -4.4402    3.9448 O   0  0  0  0  0  0  0  0  0  0  0  0
   -0.4465   -5.8608    3.1982 C   0  0  0  0  0  0  0  0  0  0  0  0
   -0.0219   -6.8213    2.8645 H   0  0  0  0  0  0  0  0  0  0  0  0
   -0.7314   -6.0185    4.2509 H   0  0  0  0  0  0  0  0  0  0  0  0
   -1.3983   -5.7596    2.6527 H   0  0  0  0  0  0  0  0  0  0  0  0
    0.4252   -4.0886    1.8040 N   0  0  0  0  0  0  0  0  0  0  0  0
    1.2532   -2.9707    1.4349 C   0  0  2  0  0  0  0  0  0  0  0  0
    0.3395   -1.8293    1.0083 C   0  0  0  0  0  0  0  0  0  0  0  0
   -0.8136   -2.0027    0.6194 O   0  0  0  0  0  0  0  0  0  0  0  0
    2.2176   -3.3411    0.3189 C   0  0  0  0  0  0  0  0  0  0  0  0
   -0.2574   -4.4279    1.1287 H   0  0  0  0  0  0  0  0  0  0  0  0
    1.8087   -2.6785    2.3327 H   0  0  0  0  0  0  0  0  0  0  0  0
    1.6793   -3.6366   -0.5890 H   0  0  0  0  0  0  0  0  0  0  0  0
    2.8662   -2.4980    0.0589 H   0  0  0  0  0  0  0  0  0  0  0  0
    2.8538   -4.1816    0.6166 H   0  0  0  0  0  0  0  0  0  0  0  0
    0.9758   -0.5952    1.0708 N   0  0  0  0  0  0  0  0  0  0  0  0
    0.3258    0.6374    0.7059 C   0  0  2  0  0  0  0  0  0  0  0  0
    1.3991    1.5830    0.1773 C   0  0  0  0  0  0  0  0  0  0  0  0
    2.4333    1.1897   -0.3585 O   0  0  0  0  0  0  0  0  0  0  0  0
   -0.4078    1.2729    1.8931 C   0  0  0  0  0  0  0  0  0  0  0  0
   -1.6061    0.4569    2.3761 C   0  0  0  0  0  0  0  0  0  0  0  0
   -2.3708    1.0240    3.5767 C   0  0  0  0  0  0  0  0  0  0  0  0
   -1.8275    2.0343    4.1093 O   0  5  0  0  0  0  0  0  0  0  0  0
   -3.4454    0.4381    3.8835 O   0  0  0  0  0  0  0  0  0  0  0  0
    1.9288   -0.5463    1.4242 H   0  0  0  0  0  0  0  0  0  0  0  0
   -0.3656    0.3984   -0.1094 H   0  0  0  0  0  0  0  0  0  0  0  0
   -0.7375    2.2861    1.6317 H   0  0  0  0  0  0  0  0  0  0  0  0
    0.2921    1.3904    2.7312 H   0  0  0  0  0  0  0  0  0  0  0  0
   -2.3068    0.2951    1.5483 H   0  0  0  0  0  0  0  0  0  0  0  0
   -1.2489   -0.5352    2.6804 H   0  0  0  0  0  0  0  0  0  0  0  0
    1.0861    2.9137    0.4171 N   0  0  0  0  0  0  0  0  0  0  0  0
    1.9491    4.0042    0.0263 C   0  0  2  0  0  0  0  0  0  0  0  0
    1.5387    5.2368    0.8211 C   0  0  0  0  0  0  0  0  0  0  0  0
    0.4231    5.3730    1.3192 O   0  0  0  0  0  0  0  0  0  0  0  0
    1.8643    4.2685   -1.4689 C   0  0  0  0  0  0  0  0  0  0  0  0
    0.1992    3.1465    0.8541 H   0  0  0  0  0  0  0  0  0  0  0  0
    2.9691    3.7145    0.3014 H   0  0  0  0  0  0  0  0  0  0  0  0
    0.8495    4.5602   -1.7634 H   0  0  0  0  0  0  0  0  0  0  0  0
    2.5402    5.0764   -1.7680 H   0  0  0  0  0  0  0  0  0  0  0  0
    2.1311    3.3720   -2.0389 H   0  0  0  0  0  0  0  0  0  0  0  0
    2.5503    6.1856    0.8723 N   0  0  0  0  0  0  0  0  0  0  0  0
    2.4011    7.4482    1.5574 C   0  0  0  0  0  0  0  0  0  0  0  0
    3.4498    5.9803    0.4473 H   0  0  0  0  0  0  0  0  0  0  0  0
    2.0467    8.2110    0.8485 H   0  0  0  0  0  0  0  0  0  0  0  0
    1.6713    7.3386    2.3731 H   0  0  0  0  0  0  0  0  0  0  0  0
    3.3718    7.7567    1.9729 H   0  0  0  0  0  0  0  0  0  0  0  0
  1  3  1  0  0  0  0
  1  7  1  0  0  0  0
  1  2  2  0  0  0  0
 33 34  1  0  0  0  0
 34 42  1  0  0  0  0
 34 35  2  0  0  0  0
  8  9  1  0  0  0  0
  9 17  1  0  0  0  0
  9 10  2  0  0  0  0
 18 19  1  0  0  0  0
 19 32  1  0  0  0  0
 19 20  2  0  0  0  0
 22 23  1  0  0  0  0
 23 24  1  0  0  0  0
 23 25  2  0  0  0  0
 33 36  1  0  0  0  0
  8 11  1  0  0  0  0
 42 43  1  0  0  0  0
 21 22  1  0  0  0  0
 18 21  1  0  0  0  0
 32 33  1  0  0  0  0
  7  8  1  0  0  0  0
 17 18  1  0  0  0  0
  3  4  1  0  0  0  0
  3  5  1  0  0  0  0
  3  6  1  0  0  0  0
 36 39  1  0  0  0  0
 36 40  1  0  0  0  0
 36 41  1  0  0  0  0
 11 14  1  0  0  0  0
 11 15  1  0  0  0  0
 11 16  1  0  0  0  0
 43 45  1  0  0  0  0
 43 46  1  0  0  0  0
 43 47  1  0  0  0  0
 22 30  1  0  0  0  0
 22 31  1  0  0  0  0
 21 28  1  0  0  0  0
 21 29  1  0  0  0  0
 33 38  1  0  0  0  0
  8 13  1  0  0  0  0
 18 27  1  0  0  0  0
 42 44  1  0  0  0  0
  7 12  1  0  0  0  0
 32 37  1  0  0  0  0
 17 26  1  0  0  0  0
M  CHG  1  24  -1
M  END
$$$$

  -OEChem-05262214473D

 47 46  0     1  0  0  0  0  0999 V2000
    0.5093   -4.7265    3.0306 C   0  0  0  0  0  0  0  0  0  0  0  0
    1.2735   -4.4402    3.9448 O   0  0  0  0  0  0  0  0  0  0  0  0
   -0.4465   -5.8608    3.1982 C   0  0  0  0  0  0  0  0  0  0  0  0
   -0.0219   -6.8213    2.8645 H   0  0  0  0  0  0  0  0  0  0  0  0
   -0.7314   -6.0185    4.2509 H   0  0  0  0  0  0  0  0  0  0  0  0
   -1.3983   -5.7596    2.6527 H   0  0  0  0  0  0  0  0  0  0  0  0
    0.4252   -4.0886    1.8040 N   0  0  0  0  0  0  0  0  0  0  0  0
    1.2532   -2.9707    1.4349 C   0  0  2  0  0  0  0  0  0  0  0  0
    0.3395   -1.8293    1.0083 C   0  0  0  0  0  0  0  0  0  0  0  0
   -0.8136   -2.0027    0.6194 O   0  0  0  0  0  0  0  0  0  0  0  0
    2.2176   -3.3411    0.3189 C   0  0  0  0  0  0  0  0  0  0  0  0
   -0.2574   -4.4279    1.1287 H   0  0  0  0  0  0  0  0  0  0  0  0
    1.8087   -2.6785    2.3327 H   0  0  0  0  0  0  0  0  0  0  0  0
    1.6793   -3.6366   -0.5890 H   0  0  0  0  0  0  0  0  0  0  0  0
    2.8662   -2.4980    0.0589 H   0  0  0  0  0  0  0  0  0  0  0  0
    2.8538   -4.1816    0.6166 H   0  0  0  0  0  0  0  0  0  0  0  0
    0.9758   -0.5952    1.0708 N   0  0  0  0  0  0  0  0  0  0  0  0
    0.3258    0.6374    0.7059 C   0  0  2  0  0  0  0  0  0  0  0  0
    1.3991    1.5830    0.1773 C   0  0  0  0  0  0  0  0  0  0  0  0
    2.2929    1.2221   -0.5857 O   0  0  0  0  0  0  0  0  0  0  0  0
   -0.4078    1.2729    1.8931 C   0  0  0  0  0  0  0  0  0  0  0  0
   -1.6061    0.4569    2.3761 C   0  0  0  0  0  0  0  0  0  0  0  0
   -2.3708    1.0240    3.5767 C   0  0  0  0  0  0  0  0  0  0  0  0
   -1.8275    2.0343    4.1093 O   0  5  0  0  0  0  0  0  0  0  0  0
   -3.4454    0.4381    3.8835 O   0  0  0  0  0  0  0  0  0  0  0  0
    1.9288   -0.5463    1.4242 H   0  0  0  0  0  0  0  0  0  0  0  0
   -0.3656    0.3984   -0.1094 H   0  0  0  0  0  0  0  0  0  0  0  0
   -0.7375    2.2861    1.6317 H   0  0  0  0  0  0  0  0  0  0  0  0
    0.2921    1.3904    2.7312 H   0  0  0  0  0  0  0  0  0  0  0  0
   -2.3068    0.2951    1.5483 H   0  0  0  0  0  0  0  0  0  0  0  0
   -1.2489   -0.5352    2.6804 H   0  0  0  0  0  0  0  0  0  0  0  0
    1.2671    2.8638    0.6954 N   0  0  0  0  0  0  0  0  0  0  0  0
    2.1699    3.9409    0.3613 C   0  0  2  0  0  0  0  0  0  0  0  0
    2.0164    5.0277    1.4171 C   0  0  0  0  0  0  0  0  0  0  0  0
    1.0100    5.1502    2.1123 O   0  0  0  0  0  0  0  0  0  0  0  0
    1.8867    4.4893   -1.0285 C   0  0  0  0  0  0  0  0  0  0  0  0
    0.4864    3.0753    1.3097 H   0  0  0  0  0  0  0  0  0  0  0  0
    3.1839    3.5288    0.4054 H   0  0  0  0  0  0  0  0  0  0  0  0
    0.8750    4.9066   -1.0919 H   0  0  0  0  0  0  0  0  0  0  0  0
    2.5900    5.2863   -1.2915 H   0  0  0  0  0  0  0  0  0  0  0  0
    1.9684    3.6997   -1.7832 H   0  0  0  0  0  0  0  0  0  0  0  0
    3.1177    5.8712    1.4618 N   0  0  0  0  0  0  0  0  0  0  0  0
    3.2073    6.9887    2.3724 C   0  0  0  0  0  0  0  0  0  0  0  0
    3.9155    5.6834    0.8619 H   0  0  0  0  0  0  0  0  0  0  0  0
    2.8309    7.8963    1.8779 H   0  0  0  0  0  0  0  0  0  0  0  0
    2.6027    6.7815    3.2676 H   0  0  0  0  0  0  0  0  0  0  0  0
    4.2568    7.1394    2.6655 H   0  0  0  0  0  0  0  0  0  0  0  0
  1  3  1  0  0  0  0
  1  7  1  0  0  0  0
  1  2  2  0  0  0  0
 33 34  1  0  0  0  0
 34 42  1  0  0  0  0
 34 35  2  0  0  0  0
  8  9  1  0  0  0  0
  9 17  1  0  0  0  0
  9 10  2  0  0  0  0
 18 19  1  0  0  0  0
 19 32  1  0  0  0  0
 19 20  2  0  0  0  0
 22 23  1  0  0  0  0
 23 24  1  0  0  0  0
 23 25  2  0  0  0  0
 33 36  1  0  0  0  0
  8 11  1  0  0  0  0
 42 43  1  0  0  0  0
 21 22  1  0  0  0  0
 18 21  1  0  0  0  0
 32 33  1  0  0  0  0
  7  8  1  0  0  0  0
 17 18  1  0  0  0  0
  3  4  1  0  0  0  0
  3  5  1  0  0  0  0
  3  6  1  0  0  0  0
 36 39  1  0  0  0  0
 36 40  1  0  0  0  0
 36 41  1  0  0  0  0
 11 14  1  0  0  0  0
 11 15  1  0  0  0  0
 11 16  1  0  0  0  0
 43 45  1  0  0  0  0
 43 46  1  0  0  0  0
 43 47  1  0  0  0  0
 22 30  1  0  0  0  0
 22 31  1  0  0  0  0
 21 28  1  0  0  0  0
 21 29  1  0  0  0  0
 33 38  1  0  0  0  0
  8 13  1  0  0  0  0
 18 27  1  0  0  0  0
 42 44  1  0  0  0  0
  7 12  1  0  0  0  0
 32 37  1  0  0  0  0
 17 26  1  0  0  0  0
M  CHG  1  24  -1
M  END
$$$$

  -OEChem-05262214473D

 47 46  0     1  0  0  0  0  0999 V2000
    0.5093   -4.7265    3.0306 C   0  0  0  0  0  0  0  0  0  0  0  0
    1.2735   -4.4402    3.9448 O   0  0  0  0  0  0  0  0  0  0  0  0
   -0.4465   -5.8608    3.1982 C   0  0  0  0  0  0  0  0  0  0  0  0
   -0.0219   -6.8213    2.8645 H   0  0  0  0  0  0  0  0  0  0  0  0
   -0.7314   -6.0185    4.2509 H   0  0  0  0  0  0  0  0  0  0  0  0
   -1.3983   -5.7596    2.6527 H   0  0  0  0  0  0  0  0  0  0  0  0
    0.4252   -4.0886    1.8040 N   0  0  0  0  0  0  0  0  0  0  0  0
    1.2532   -2.9707    1.4349 C   0  0  2  0  0  0  0  0  0  0  0  0
    0.3395   -1.8293    1.0083 C   0  0  0  0  0  0  0  0  0  0  0  0
   -0.8136   -2.0027    0.6194 O   0  0  0  0  0  0  0  0  0  0  0  0
    2.2176   -3.3411    0.3189 C   0  0  0  0  0  0  0  0  0  0  0  0
   -0.2574   -4.4279    1.1287 H   0  0  0  0  0  0  0  0  0  0  0  0
    1.8087   -2.6785    2.3327 H   0  0  0  0  0  0  0  0  0  0  0  0
    1.6793   -3.6366   -0.5890 H   0  0  0  0  0  0  0  0  0  0  0  0
    2.8662   -2.4980    0.0589 H   0  0  0  0  0  0  0  0  0  0  0  0
    2.8538   -4.1816    0.6166 H   0  0  0  0  0  0  0  0  0  0  0  0
    0.9758   -0.5952    1.0708 N   0  0  0  0  0  0  0  0  0  0  0  0
    0.3258    0.6374    0.7059 C   0  0  2  0  0  0  0  0  0  0  0  0
    1.3991    1.5830    0.1773 C   0  0  0  0  0  0  0  0  0  0  0  0
    2.1237    1.3073   -0.7768 O   0  0  0  0  0  0  0  0  0  0  0  0
   -0.4078    1.2729    1.8931 C   0  0  0  0  0  0  0  0  0  0  0  0
   -1.6061    0.4569    2.3761 C   0  0  0  0  0  0  0  0  0  0  0  0
   -2.3708    1.0240    3.5767 C   0  0  0  0  0  0  0  0  0  0  0  0
   -1.8275    2.0343    4.1093 O   0  5  0  0  0  0  0  0  0  0  0  0
   -3.4454    0.4381    3.8835 O   0  0  0  0  0  0  0  0  0  0  0  0
    1.9288   -0.5463    1.4242 H   0  0  0  0  0  0  0  0  0  0  0  0
   -0.3656    0.3984   -0.1094 H   0  0  0  0  0  0  0  0  0  0  0  0
   -0.7375    2.2861    1.6317 H   0  0  0  0  0  0  0  0  0  0  0  0
    0.2921    1.3904    2.7312 H   0  0  0  0  0  0  0  0  0  0  0  0
   -2.3068    0.2951    1.5483 H   0  0  0  0  0  0  0  0  0  0  0  0
   -1.2489   -0.5352    2.6804 H   0  0  0  0  0  0  0  0  0  0  0  0
    1.4822    2.7486    0.9261 N   0  0  0  0  0  0  0  0  0  0  0  0
    2.4313    3.7989    0.6380 C   0  0  2  0  0  0  0  0  0  0  0  0
    2.5547    4.6743    1.8781 C   0  0  0  0  0  0  0  0  0  0  0  0
    1.6843    4.7378    2.7437 O   0  0  0  0  0  0  0  0  0  0  0  0
    1.9988    4.6204   -0.5665 C   0  0  0  0  0  0  0  0  0  0  0  0
    0.8305    2.8977    1.6907 H   0  0  0  0  0  0  0  0  0  0  0  0
    3.3915    3.3112    0.4375 H   0  0  0  0  0  0  0  0  0  0  0  0
    1.0385    5.1166   -0.3843 H   0  0  0  0  0  0  0  0  0  0  0  0
    2.7333    5.3978   -0.8010 H   0  0  0  0  0  0  0  0  0  0  0  0
    1.8816    3.9842   -1.4504 H   0  0  0  0  0  0  0  0  0  0  0  0
    3.7321    5.4092    1.8830 N   0  0  0  0  0  0  0  0  0  0  0  0
    4.0756    6.3240    2.9465 C   0  0  0  0  0  0  0  0  0  0  0  0
    4.4053    5.2794    1.1335 H   0  0  0  0  0  0  0  0  0  0  0  0
    3.7254    7.3345    2.6891 H   0  0  0  0  0  0  0  0  0  0  0  0
    3.5960    5.9968    3.8807 H   0  0  0  0  0  0  0  0  0  0  0  0
    5.1674    6.3375    3.0800 H   0  0  0  0  0  0  0  0  0  0  0  0
  1  3  1  0  0  0  0
  1  7  1  0  0  0  0
  1  2  2  0  0  0  0
 33 34  1  0  0  0  0
 34 42  1  0  0  0  0
 34 35  2  0  0  0  0
  8  9  1  0  0  0  0
  9 17  1  0  0  0  0
  9 10  2  0  0  0  0
 18 19  1  0  0  0  0
 19 32  1  0  0  0  0
 19 20  2  0  0  0  0
 22 23  1  0  0  0  0
 23 24  1  0  0  0  0
 23 25  2  0  0  0  0
 33 36  1  0  0  0  0
  8 11  1  0  0  0  0
 42 43  1  0  0  0  0
 21 22  1  0  0  0  0
 18 21  1  0  0  0  0
 32 33  1  0  0  0  0
  7  8  1  0  0  0  0
 17 18  1  0  0  0  0
  3  4  1  0  0  0  0
  3  5  1  0  0  0  0
  3  6  1  0  0  0  0
 36 39  1  0  0  0  0
 36 40  1  0  0  0  0
 36 41  1  0  0  0  0
 11 14  1  0  0  0  0
 11 15  1  0  0  0  0
 11 16  1  0  0  0  0
 43 45  1  0  0  0  0
 43 46  1  0  0  0  0
 43 47  1  0  0  0  0
 22 30  1  0  0  0  0
 22 31  1  0  0  0  0
 21 28  1  0  0  0  0
 21 29  1  0  0  0  0
 33 38  1  0  0  0  0
  8 13  1  0  0  0  0
 18 27  1  0  0  0  0
 42 44  1  0  0  0  0
  7 12  1  0  0  0  0
 32 37  1  0  0  0  0
 17 26  1  0  0  0  0
M  CHG  1  24  -1
M  END
$$$$

  -OEChem-05262214473D

 47 46  0     1  0  0  0  0  0999 V2000
    0.5093   -4.7265    3.0306 C   0  0  0  0  0  0  0  0  0  0  0  0
    1.2735   -4.4402    3.9448 O   0  0  0  0  0  0  0  0  0  0  0  0
   -0.4465   -5.8608    3.1982 C   0  0  0  0  0  0  0  0  0  0  0  0
   -0.0219   -6.8213    2.8645 H   0  0  0  0  0  0  0  0  0  0  0  0
   -0.7314   -6.0185    4.2509 H   0  0  0  0  0  0  0  0  0  0  0  0
   -1.3983   -5.7596    2.6527 H   0  0  0  0  0  0  0  0  0  0  0  0
    0.4252   -4.0886    1.8040 N   0  0  0  0  0  0  0  0  0  0  0  0
    1.2532   -2.9707    1.4349 C   0  0  2  0  0  0  0  0  0  0  0  0
    0.3395   -1.8293    1.0083 C   0  0  0  0  0  0  0  0  0  0  0  0
   -0.8136   -2.0027    0.6194 O   0  0  0  0  0  0  0  0  0  0  0  0
    2.2176   -3.3411    0.3189 C   0  0  0  0  0  0  0  0  0  0  0  0
   -0.2574   -4.4279    1.1287 H   0  0  0  0  0  0  0  0  0  0  0  0
    1.8087   -2.6785    2.3327 H   0  0  0  0  0  0  0  0  0  0  0  0
    1.6793   -3.6366   -0.5890 H   0  0  0  0  0  0  0  0  0  0  0  0
    2.8662   -2.4980    0.0589 H   0  0  0  0  0  0  0  0  0  0  0  0
    2.8538   -4.1816    0.6166 H   0  0  0  0  0  0  0  0  0  0  0  0
    0.9758   -0.5952    1.0708 N   0  0  0  0  0  0  0  0  0  0  0  0
    0.3258    0.6374    0.7059 C   0  0  2  0  0  0  0  0  0  0  0  0
    1.3991    1.5830    0.1773 C   0  0  0  0  0  0  0  0  0  0  0  0
    1.9372    1.4396   -0.9187 O   0  0  0  0  0  0  0  0  0  0  0  0
   -0.4078    1.2729    1.8931 C   0  0  0  0  0  0  0  0  0  0  0  0
   -1.6061    0.4569    2.3761 C   0  0  0  0  0  0  0  0  0  0  0  0
   -2.3708    1.0240    3.5767 C   0  0  0  0  0  0  0  0  0  0  0  0
   -1.8275    2.0343    4.1093 O   0  5  0  0  0  0  0  0  0  0  0  0
   -3.4454    0.4381    3.8835 O   0  0  0  0  0  0  0  0  0  0  0  0
    1.9288   -0.5463    1.4242 H   0  0  0  0  0  0  0  0  0  0  0  0
   -0.3656    0.3984   -0.1094 H   0  0  0  0  0  0  0  0  0  0  0  0
   -0.7375    2.2861    1.6317 H   0  0  0  0  0  0  0  0  0  0  0  0
    0.2921    1.3904    2.7312 H   0  0  0  0  0  0  0  0  0  0  0  0
   -2.3068    0.2951    1.5483 H   0  0  0  0  0  0  0  0  0  0  0  0
   -1.2489   -0.5352    2.6804 H   0  0  0  0  0  0  0  0  0  0  0  0
    1.7166    2.5761    1.0934 N   0  0  0  0  0  0  0  0  0  0  0  0
    2.7154    3.5878    0.8374 C   0  0  2  0  0  0  0  0  0  0  0  0
    3.1170    4.2007    2.1725 C   0  0  0  0  0  0  0  0  0  0  0  0
    2.3999    4.1640    3.1702 O   0  0  0  0  0  0  0  0  0  0  0  0
    2.1929    4.6527   -0.1144 C   0  0  0  0  0  0  0  0  0  0  0  0
    1.2081    2.6259    1.9712 H   0  0  0  0  0  0  0  0  0  0  0  0
    3.5775    3.0765    0.3955 H   0  0  0  0  0  0  0  0  0  0  0  0
    1.3289    5.1759    0.3112 H   0  0  0  0  0  0  0  0  0  0  0  0
    2.9605    5.4033   -0.3298 H   0  0  0  0  0  0  0  0  0  0  0  0
    1.8768    4.2061   -1.0632 H   0  0  0  0  0  0  0  0  0  0  0  0
    4.3517    4.8311    2.1071 N   0  0  0  0  0  0  0  0  0  0  0  0
    4.9469    5.4995    3.2406 C   0  0  0  0  0  0  0  0  0  0  0  0
    4.8857    4.7957    1.2437 H   0  0  0  0  0  0  0  0  0  0  0  0
    4.6692    6.5638    3.2267 H   0  0  0  0  0  0  0  0  0  0  0  0
    4.5834    5.0380    4.1706 H   0  0  0  0  0  0  0  0  0  0  0  0
    6.0416    5.4056    3.1882 H   0  0  0  0  0  0  0  0  0  0  0  0
  1  3  1  0  0  0  0
  1  7  1  0  0  0  0
  1  2  2  0  0  0  0
 33 34  1  0  0  0  0
 34 42  1  0  0  0  0
 34 35  2  0  0  0  0
  8  9  1  0  0  0  0
  9 17  1  0  0  0  0
  9 10  2  0  0  0  0
 18 19  1  0  0  0  0
 19 32  1  0  0  0  0
 19 20  2  0  0  0  0
 22 23  1  0  0  0  0
 23 24  1  0  0  0  0
 23 25  2  0  0  0  0
 33 36  1  0  0  0  0
  8 11  1  0  0  0  0
 42 43  1  0  0  0  0
 21 22  1  0  0  0  0
 18 21  1  0  0  0  0
 32 33  1  0  0  0  0
  7  8  1  0  0  0  0
 17 18  1  0  0  0  0
  3  4  1  0  0  0  0
  3  5  1  0  0  0  0
  3  6  1  0  0  0  0
 36 39  1  0  0  0  0
 36 40  1  0  0  0  0
 36 41  1  0  0  0  0
 11 14  1  0  0  0  0
 11 15  1  0  0  0  0
 11 16  1  0  0  0  0
 43 45  1  0  0  0  0
 43 46  1  0  0  0  0
 43 47  1  0  0  0  0
 22 30  1  0  0  0  0
 22 31  1  0  0  0  0
 21 28  1  0  0  0  0
 21 29  1  0  0  0  0
 33 38  1  0  0  0  0
  8 13  1  0  0  0  0
 18 27  1  0  0  0  0
 42 44  1  0  0  0  0
  7 12  1  0  0  0  0
 32 37  1  0  0  0  0
 17 26  1  0  0  0  0
M  CHG  1  24  -1
M  END
$$$$

  -OEChem-05262214473D

 47 46  0     1  0  0  0  0  0999 V2000
    0.5093   -4.7265    3.0306 C   0  0  0  0  0  0  0  0  0  0  0  0
    1.2735   -4.4402    3.9448 O   0  0  0  0  0  0  0  0  0  0  0  0
   -0.4465   -5.8608    3.1982 C   0  0  0  0  0  0  0  0  0  0  0  0
   -0.0219   -6.8213    2.8645 H   0  0  0  0  0  0  0  0  0  0  0  0
   -0.7314   -6.0185    4.2509 H   0  0  0  0  0  0  0  0  0  0  0  0
   -1.3983   -5.7596    2.6527 H   0  0  0  0  0  0  0  0  0  0  0  0
    0.4252   -4.0886    1.8040 N   0  0  0  0  0  0  0  0  0  0  0  0
    1.2532   -2.9707    1.4349 C   0  0  2  0  0  0  0  0  0  0  0  0
    0.3395   -1.8293    1.0083 C   0  0  0  0  0  0  0  0  0  0  0  0
   -0.8136   -2.0027    0.6194 O   0  0  0  0  0  0  0  0  0  0  0  0
    2.2176   -3.3411    0.3189 C   0  0  0  0  0  0  0  0  0  0  0  0
   -0.2574   -4.4279    1.1287 H   0  0  0  0  0  0  0  0  0  0  0  0
    1.8087   -2.6785    2.3327 H   0  0  0  0  0  0  0  0  0  0  0  0
    1.6793   -3.6366   -0.5890 H   0  0  0  0  0  0  0  0  0  0  0  0
    2.8662   -2.4980    0.0589 H   0  0  0  0  0  0  0  0  0  0  0  0
    2.8538   -4.1816    0.6166 H   0  0  0  0  0  0  0  0  0  0  0  0
    0.9758   -0.5952    1.0708 N   0  0  0  0  0  0  0  0  0  0  0  0
    0.3258    0.6374    0.7059 C   0  0  2  0  0  0  0  0  0  0  0  0
    1.3991    1.5830    0.1773 C   0  0  0  0  0  0  0  0  0  0  0  0
    1.7462    1.6101   -1.0017 O   0  0  0  0  0  0  0  0  0  0  0  0
   -0.4078    1.2729    1.8931 C   0  0  0  0  0  0  0  0  0  0  0  0
   -1.6061    0.4569    2.3761 C   0  0  0  0  0  0  0  0  0  0  0  0
   -2.3708    1.0240    3.5767 C   0  0  0  0  0  0  0  0  0  0  0  0
   -1.8275    2.0343    4.1093 O   0  5  0  0  0  0  0  0  0  0  0  0
   -3.4454    0.4381    3.8835 O   0  0  0  0  0  0  0  0  0  0  0  0
    1.9288   -0.5463    1.4242 H   0  0  0  0  0  0  0  0  0  0  0  0
   -0.3656    0.3984   -0.1094 H   0  0  0  0  0  0  0  0  0  0  0  0
   -0.7375    2.2861    1.6317 H   0  0  0  0  0  0  0  0  0  0  0  0
    0.2921    1.3904    2.7312 H   0  0  0  0  0  0  0  0  0  0  0  0
   -2.3068    0.2951    1.5483 H   0  0  0  0  0  0  0  0  0  0  0  0
   -1.2489   -0.5352    2.6804 H   0  0  0  0  0  0  0  0  0  0  0  0
    1.9544    2.3579    1.1860 N   0  0  0  0  0  0  0  0  0  0  0  0
    3.0029    3.3222    0.9459 C   0  0  2  0  0  0  0  0  0  0  0  0
    3.6648    3.6392    2.2804 C   0  0  0  0  0  0  0  0  0  0  0  0
    3.1080    3.4679    3.3629 O   0  0  0  0  0  0  0  0  0  0  0  0
    2.4560    4.5842    0.2971 C   0  0  0  0  0  0  0  0  0  0  0  0
    1.5934    2.2784    2.1321 H   0  0  0  0  0  0  0  0  0  0  0  0
    3.7295    2.8408    0.2824 H   0  0  0  0  0  0  0  0  0  0  0  0
    1.7262    5.0804    0.9473 H   0  0  0  0  0  0  0  0  0  0  0  0
    3.2561    5.3024    0.0898 H   0  0  0  0  0  0  0  0  0  0  0  0
    1.9542    4.3504   -0.6481 H   0  0  0  0  0  0  0  0  0  0  0  0
    4.9343    4.1763    2.1187 N   0  0  0  0  0  0  0  0  0  0  0  0
    5.7616    4.5714    3.2347 C   0  0  0  0  0  0  0  0  0  0  0  0
    5.3240    4.2652    1.1849 H   0  0  0  0  0  0  0  0  0  0  0  0
    5.5979    5.6367    3.4542 H   0  0  0  0  0  0  0  0  0  0  0  0
    5.4977    3.9705    4.1175 H   0  0  0  0  0  0  0  0  0  0  0  0
    6.8197    4.4075    2.9827 H   0  0  0  0  0  0  0  0  0  0  0  0
  1  3  1  0  0  0  0
  1  7  1  0  0  0  0
  1  2  2  0  0  0  0
 33 34  1  0  0  0  0
 34 42  1  0  0  0  0
 34 35  2  0  0  0  0
  8  9  1  0  0  0  0
  9 17  1  0  0  0  0
  9 10  2  0  0  0  0
 18 19  1  0  0  0  0
 19 32  1  0  0  0  0
 19 20  2  0  0  0  0
 22 23  1  0  0  0  0
 23 24  1  0  0  0  0
 23 25  2  0  0  0  0
 33 36  1  0  0  0  0
  8 11  1  0  0  0  0
 42 43  1  0  0  0  0
 21 22  1  0  0  0  0
 18 21  1  0  0  0  0
 32 33  1  0  0  0  0
  7  8  1  0  0  0  0
 17 18  1  0  0  0  0
  3  4  1  0  0  0  0
  3  5  1  0  0  0  0
  3  6  1  0  0  0  0
 36 39  1  0  0  0  0
 36 40  1  0  0  0  0
 36 41  1  0  0  0  0
 11 14  1  0  0  0  0
 11 15  1  0  0  0  0
 11 16  1  0  0  0  0
 43 45  1  0  0  0  0
 43 46  1  0  0  0  0
 43 47  1  0  0  0  0
 22 30  1  0  0  0  0
 22 31  1  0  0  0  0
 21 28  1  0  0  0  0
 21 29  1  0  0  0  0
 33 38  1  0  0  0  0
  8 13  1  0  0  0  0
 18 27  1  0  0  0  0
 42 44  1  0  0  0  0
  7 12  1  0  0  0  0
 32 37  1  0  0  0  0
 17 26  1  0  0  0  0
M  CHG  1  24  -1
M  END
$$$$

  -OEChem-05262214473D

 47 46  0     1  0  0  0  0  0999 V2000
    0.5093   -4.7265    3.0306 C   0  0  0  0  0  0  0  0  0  0  0  0
    1.2735   -4.4402    3.9448 O   0  0  0  0  0  0  0  0  0  0  0  0
   -0.4465   -5.8608    3.1982 C   0  0  0  0  0  0  0  0  0  0  0  0
   -0.0219   -6.8213    2.8645 H   0  0  0  0  0  0  0  0  0  0  0  0
   -0.7314   -6.0185    4.2509 H   0  0  0  0  0  0  0  0  0  0  0  0
   -1.3983   -5.7596    2.6527 H   0  0  0  0  0  0  0  0  0  0  0  0
    0.4252   -4.0886    1.8040 N   0  0  0  0  0  0  0  0  0  0  0  0
    1.2532   -2.9707    1.4349 C   0  0  2  0  0  0  0  0  0  0  0  0
    0.3395   -1.8293    1.0083 C   0  0  0  0  0  0  0  0  0  0  0  0
   -0.8136   -2.0027    0.6194 O   0  0  0  0  0  0  0  0  0  0  0  0
    2.2176   -3.3411    0.3189 C   0  0  0  0  0  0  0  0  0  0  0  0
   -0.2574   -4.4279    1.1287 H   0  0  0  0  0  0  0  0  0  0  0  0
    1.8087   -2.6785    2.3327 H   0  0  0  0  0  0  0  0  0  0  0  0
    1.6793   -3.6366   -0.5890 H   0  0  0  0  0  0  0  0  0  0  0  0
    2.8662   -2.4980    0.0589 H   0  0  0  0  0  0  0  0  0  0  0  0
    2.8538   -4.1816    0.6166 H   0  0  0  0  0  0  0  0  0  0  0  0
    0.9758   -0.5952    1.0708 N   0  0  0  0  0  0  0  0  0  0  0  0
    0.3258    0.6374    0.7059 C   0  0  2  0  0  0  0  0  0  0  0  0
    1.3991    1.5830    0.1773 C   0  0  0  0  0  0  0  0  0  0  0  0
    1.5637    1.8069   -1.0202 O   0  0  0  0  0  0  0  0  0  0  0  0
   -0.4078    1.2729    1.8931 C   0  0  0  0  0  0  0  0  0  0  0  0
   -1.6061    0.4569    2.3761 C   0  0  0  0  0  0  0  0  0  0  0  0
   -2.3708    1.0240    3.5767 C   0  0  0  0  0  0  0  0  0  0  0  0
   -1.8275    2.0343    4.1093 O   0  5  0  0  0  0  0  0  0  0  0  0
   -3.4454    0.4381    3.8835 O   0  0  0  0  0  0  0  0  0  0  0  0
    1.9288   -0.5463    1.4242 H   0  0  0  0  0  0  0  0  0  0  0  0
   -0.3656    0.3984   -0.1094 H   0  0  0  0  0  0  0  0  0  0  0  0
   -0.7375    2.2861    1.6317 H   0  0  0  0  0  0  0  0  0  0  0  0
    0.2921    1.3904    2.7312 H   0  0  0  0  0  0  0  0  0  0  0  0
   -2.3068    0.2951    1.5483 H   0  0  0  0  0  0  0  0  0  0  0  0
   -1.2489   -0.5352    2.6804 H   0  0  0  0  0  0  0  0  0  0  0  0
    2.1794    2.1089    1.1975 N   0  0  0  0  0  0  0  0  0  0  0  0
    3.2742    3.0200    0.9563 C   0  0  2  0  0  0  0  0  0  0  0  0
    4.1610    3.0279    2.1944 C   0  0  0  0  0  0  0  0  0  0  0  0
    3.7605    2.6968    3.3085 O   0  0  0  0  0  0  0  0  0  0  0  0
    2.7699    4.4194    0.6399 C   0  0  0  0  0  0  0  0  0  0  0  0
    1.9603    1.8789    2.1622 H   0  0  0  0  0  0  0  0  0  0  0  0
    3.8370    2.6200    0.1058 H   0  0  0  0  0  0  0  0  0  0  0  0
    2.2036    4.8367    1.4804 H   0  0  0  0  0  0  0  0  0  0  0  0
    3.5998    5.1020    0.4293 H   0  0  0  0  0  0  0  0  0  0  0  0
    2.1085    4.4072   -0.2331 H   0  0  0  0  0  0  0  0  0  0  0  0
    5.4402    3.4895    1.9172 N   0  0  0  0  0  0  0  0  0  0  0  0
    6.4644    3.6028    2.9292 C   0  0  0  0  0  0  0  0  0  0  0  0
    5.6904    3.7243    0.9612 H   0  0  0  0  0  0  0  0  0  0  0  0
    6.4483    4.6165    3.3560 H   0  0  0  0  0  0  0  0  0  0  0  0
    6.2765    2.8670    3.7250 H   0  0  0  0  0  0  0  0  0  0  0  0
    7.4488    3.4109    2.4774 H   0  0  0  0  0  0  0  0  0  0  0  0
  1  3  1  0  0  0  0
  1  7  1  0  0  0  0
  1  2  2  0  0  0  0
 33 34  1  0  0  0  0
 34 42  1  0  0  0  0
 34 35  2  0  0  0  0
  8  9  1  0  0  0  0
  9 17  1  0  0  0  0
  9 10  2  0  0  0  0
 18 19  1  0  0  0  0
 19 32  1  0  0  0  0
 19 20  2  0  0  0  0
 22 23  1  0  0  0  0
 23 24  1  0  0  0  0
 23 25  2  0  0  0  0
 33 36  1  0  0  0  0
  8 11  1  0  0  0  0
 42 43  1  0  0  0  0
 21 22  1  0  0  0  0
 18 21  1  0  0  0  0
 32 33  1  0  0  0  0
  7  8  1  0  0  0  0
 17 18  1  0  0  0  0
  3  4  1  0  0  0  0
  3  5  1  0  0  0  0
  3  6  1  0  0  0  0
 36 39  1  0  0  0  0
 36 40  1  0  0  0  0
 36 41  1  0  0  0  0
 11 14  1  0  0  0  0
 11 15  1  0  0  0  0
 11 16  1  0  0  0  0
 43 45  1  0  0  0  0
 43 46  1  0  0  0  0
 43 47  1  0  0  0  0
 22 30  1  0  0  0  0
 22 31  1  0  0  0  0
 21 28  1  0  0  0  0
 21 29  1  0  0  0  0
 33 38  1  0  0  0  0
  8 13  1  0  0  0  0
 18 27  1  0  0  0  0
 42 44  1  0  0  0  0
  7 12  1  0  0  0  0
 32 37  1  0  0  0  0
 17 26  1  0  0  0  0
M  CHG  1  24  -1
M  END
$$$$

  -OEChem-05262214473D

 47 46  0     1  0  0  0  0  0999 V2000
    0.5093   -4.7265    3.0306 C   0  0  0  0  0  0  0  0  0  0  0  0
    1.2735   -4.4402    3.9448 O   0  0  0  0  0  0  0  0  0  0  0  0
   -0.4465   -5.8608    3.1982 C   0  0  0  0  0  0  0  0  0  0  0  0
   -0.0219   -6.8213    2.8645 H   0  0  0  0  0  0  0  0  0  0  0  0
   -0.7314   -6.0185    4.2509 H   0  0  0  0  0  0  0  0  0  0  0  0
   -1.3983   -5.7596    2.6527 H   0  0  0  0  0  0  0  0  0  0  0  0
    0.4252   -4.0886    1.8040 N   0  0  0  0  0  0  0  0  0  0  0  0
    1.2532   -2.9707    1.4349 C   0  0  2  0  0  0  0  0  0  0  0  0
    0.3395   -1.8293    1.0083 C   0  0  0  0  0  0  0  0  0  0  0  0
   -0.8136   -2.0027    0.6194 O   0  0  0  0  0  0  0  0  0  0  0  0
    2.2176   -3.3411    0.3189 C   0  0  0  0  0  0  0  0  0  0  0  0
   -0.2574   -4.4279    1.1287 H   0  0  0  0  0  0  0  0  0  0  0  0
    1.8087   -2.6785    2.3327 H   0  0  0  0  0  0  0  0  0  0  0  0
    1.6793   -3.6366   -0.5890 H   0  0  0  0  0  0  0  0  0  0  0  0
    2.8662   -2.4980    0.0589 H   0  0  0  0  0  0  0  0  0  0  0  0
    2.8538   -4.1816    0.6166 H   0  0  0  0  0  0  0  0  0  0  0  0
    0.9758   -0.5952    1.0708 N   0  0  0  0  0  0  0  0  0  0  0  0
    0.3258    0.6374    0.7059 C   0  0  2  0  0  0  0  0  0  0  0  0
    1.3991    1.5830    0.1773 C   0  0  0  0  0  0  0  0  0  0  0  0
    1.4020    2.0168   -0.9730 O   0  0  0  0  0  0  0  0  0  0  0  0
   -0.4078    1.2729    1.8931 C   0  0  0  0  0  0  0  0  0  0  0  0
   -1.6061    0.4569    2.3761 C   0  0  0  0  0  0  0  0  0  0  0  0
   -2.3708    1.0240    3.5767 C   0  0  0  0  0  0  0  0  0  0  0  0
   -1.8275    2.0343    4.1093 O   0  5  0  0  0  0  0  0  0  0  0  0
   -3.4454    0.4381    3.8835 O   0  0  0  0  0  0  0  0  0  0  0  0
    1.9288   -0.5463    1.4242 H   0  0  0  0  0  0  0  0  0  0  0  0
   -0.3656    0.3984   -0.1094 H   0  0  0  0  0  0  0  0  0  0  0  0
   -0.7375    2.2861    1.6317 H   0  0  0  0  0  0  0  0  0  0  0  0
    0.2921    1.3904    2.7312 H   0  0  0  0  0  0  0  0  0  0  0  0
   -2.3068    0.2951    1.5483 H   0  0  0  0  0  0  0  0  0  0  0  0
   -1.2489   -0.5352    2.6804 H   0  0  0  0  0  0  0  0  0  0  0  0
    2.3763    1.8462    1.1272 N   0  0  0  0  0  0  0  0  0  0  0  0
    3.5108    2.7019    0.8677 C   0  0  2  0  0  0  0  0  0  0  0  0
    4.5716    2.4087    1.9204 C   0  0  0  0  0  0  0  0  0  0  0  0
    4.3129    1.9034    3.0107 O   0  0  0  0  0  0  0  0  0  0  0  0
    3.1134    4.1697    0.8905 C   0  0  0  0  0  0  0  0  0  0  0  0
    2.2836    1.4545    2.0598 H   0  0  0  0  0  0  0  0  0  0  0  0
    3.8927    2.4293   -0.1222 H   0  0  0  0  0  0  0  0  0  0  0  0
    2.7283    4.4613    1.8745 H   0  0  0  0  0  0  0  0  0  0  0  0
    3.9684    4.8157    0.6655 H   0  0  0  0  0  0  0  0  0  0  0  0
    2.3292    4.3726    0.1532 H   0  0  0  0  0  0  0  0  0  0  0  0
    5.8348    2.8173    1.5163 N   0  0  0  0  0  0  0  0  0  0  0  0
    7.0073    2.6599    2.3448 C   0  0  0  0  0  0  0  0  0  0  0  0
    5.9599    3.2096    0.5877 H   0  0  0  0  0  0  0  0  0  0  0  0
    7.1625    3.5726    2.9388 H   0  0  0  0  0  0  0  0  0  0  0  0
    6.8667    1.8028    3.0199 H   0  0  0  0  0  0  0  0  0  0  0  0
    7.8860    2.4839    1.7069 H   0  0  0  0  0  0  0  0  0  0  0  0
  1  3  1  0  0  0  0
  1  7  1  0  0  0  0
  1  2  2  0  0  0  0
 33 34  1  0  0  0  0
 34 42  1  0  0  0  0
 34 35  2  0  0  0  0
  8  9  1  0  0  0  0
  9 17  1  0  0  0  0
  9 10  2  0  0  0  0
 18 19  1  0  0  0  0
 19 32  1  0  0  0  0
 19 20  2  0  0  0  0
 22 23  1  0  0  0  0
 23 24  1  0  0  0  0
 23 25  2  0  0  0  0
 33 36  1  0  0  0  0
  8 11  1  0  0  0  0
 42 43  1  0  0  0  0
 21 22  1  0  0  0  0
 18 21  1  0  0  0  0
 32 33  1  0  0  0  0
  7  8  1  0  0  0  0
 17 18  1  0  0  0  0
  3  4  1  0  0  0  0
  3  5  1  0  0  0  0
  3  6  1  0  0  0  0
 36 39  1  0  0  0  0
 36 40  1  0  0  0  0
 36 41  1  0  0  0  0
 11 14  1  0  0  0  0
 11 15  1  0  0  0  0
 11 16  1  0  0  0  0
 43 45  1  0  0  0  0
 43 46  1  0  0  0  0
 43 47  1  0  0  0  0
 22 30  1  0  0  0  0
 22 31  1  0  0  0  0
 21 28  1  0  0  0  0
 21 29  1  0  0  0  0
 33 38  1  0  0  0  0
  8 13  1  0  0  0  0
 18 27  1  0  0  0  0
 42 44  1  0  0  0  0
  7 12  1  0  0  0  0
 32 37  1  0  0  0  0
 17 26  1  0  0  0  0
M  CHG  1  24  -1
M  END
$$$$

  -OEChem-05262214473D

 47 46  0     1  0  0  0  0  0999 V2000
    0.5093   -4.7265    3.0306 C   0  0  0  0  0  0  0  0  0  0  0  0
    1.2735   -4.4402    3.9448 O   0  0  0  0  0  0  0  0  0  0  0  0
   -0.4465   -5.8608    3.1982 C   0  0  0  0  0  0  0  0  0  0  0  0
   -0.0219   -6.8213    2.8645 H   0  0  0  0  0  0  0  0  0  0  0  0
   -0.7314   -6.0185    4.2509 H   0  0  0  0  0  0  0  0  0  0  0  0
   -1.3983   -5.7596    2.6527 H   0  0  0  0  0  0  0  0  0  0  0  0
    0.4252   -4.0886    1.8040 N   0  0  0  0  0  0  0  0  0  0  0  0
    1.2532   -2.9707    1.4349 C   0  0  2  0  0  0  0  0  0  0  0  0
    0.3395   -1.8293    1.0083 C   0  0  0  0  0  0  0  0  0  0  0  0
   -0.8136   -2.0027    0.6194 O   0  0  0  0  0  0  0  0  0  0  0  0
    2.2176   -3.3411    0.3189 C   0  0  0  0  0  0  0  0  0  0  0  0
   -0.2574   -4.4279    1.1287 H   0  0  0  0  0  0  0  0  0  0  0  0
    1.8087   -2.6785    2.3327 H   0  0  0  0  0  0  0  0  0  0  0  0
    1.6793   -3.6366   -0.5890 H   0  0  0  0  0  0  0  0  0  0  0  0
    2.8662   -2.4980    0.0589 H   0  0  0  0  0  0  0  0  0  0  0  0
    2.8538   -4.1816    0.6166 H   0  0  0  0  0  0  0  0  0  0  0  0
    0.9758   -0.5952    1.0708 N   0  0  0  0  0  0  0  0  0  0  0  0
    0.3258    0.6374    0.7059 C   0  0  2  0  0  0  0  0  0  0  0  0
    1.3991    1.5830    0.1773 C   0  0  0  0  0  0  0  0  0  0  0  0
    1.2723    2.2255   -0.8631 O   0  0  0  0  0  0  0  0  0  0  0  0
   -0.4078    1.2729    1.8931 C   0  0  0  0  0  0  0  0  0  0  0  0
   -1.6061    0.4569    2.3761 C   0  0  0  0  0  0  0  0  0  0  0  0
   -2.3708    1.0240    3.5767 C   0  0  0  0  0  0  0  0  0  0  0  0
   -1.8275    2.0343    4.1093 O   0  5  0  0  0  0  0  0  0  0  0  0
   -3.4454    0.4381    3.8835 O   0  0  0  0  0  0  0  0  0  0  0  0
    1.9288   -0.5463    1.4242 H   0  0  0  0  0  0  0  0  0  0  0  0
   -0.3656    0.3984   -0.1094 H   0  0  0  0  0  0  0  0  0  0  0  0
   -0.7375    2.2861    1.6317 H   0  0  0  0  0  0  0  0  0  0  0  0
    0.2921    1.3904    2.7312 H   0  0  0  0  0  0  0  0  0  0  0  0
   -2.3068    0.2951    1.5483 H   0  0  0  0  0  0  0  0  0  0  0  0
   -1.2489   -0.5352    2.6804 H   0  0  0  0  0  0  0  0  0  0  0  0
    2.5315    1.5875    0.9798 N   0  0  0  0  0  0  0  0  0  0  0  0
    3.6965    2.3896    0.6862 C   0  0  2  0  0  0  0  0  0  0  0  0
    4.8686    1.8236    1.4770 C   0  0  0  0  0  0  0  0  0  0  0  0
    4.7274    1.1416    2.4900 O   0  0  0  0  0  0  0  0  0  0  0  0
    3.4630    3.8519    1.0320 C   0  0  0  0  0  0  0  0  0  0  0  0
    2.5414    1.0343    1.8316 H   0  0  0  0  0  0  0  0  0  0  0  0
    3.8927    2.2817   -0.3862 H   0  0  0  0  0  0  0  0  0  0  0  0
    3.2648    3.9798    2.1025 H   0  0  0  0  0  0  0  0  0  0  0  0
    4.3366    4.4631    0.7824 H   0  0  0  0  0  0  0  0  0  0  0  0
    2.6013    4.2491    0.4847 H   0  0  0  0  0  0  0  0  0  0  0  0
    6.0914    2.2057    0.9432 N   0  0  0  0  0  0  0  0  0  0  0  0
    7.3534    1.8068    1.5215 C   0  0  0  0  0  0  0  0  0  0  0  0
    6.1140    2.7564    0.0900 H   0  0  0  0  0  0  0  0  0  0  0  0
    7.6917    2.5763    2.2311 H   0  0  0  0  0  0  0  0  0  0  0  0
    7.2283    0.8503    2.0502 H   0  0  0  0  0  0  0  0  0  0  0  0
    8.1015    1.6897    0.7236 H   0  0  0  0  0  0  0  0  0  0  0  0
  1  3  1  0  0  0  0
  1  7  1  0  0  0  0
  1  2  2  0  0  0  0
 33 34  1  0  0  0  0
 34 42  1  0  0  0  0
 34 35  2  0  0  0  0
  8  9  1  0  0  0  0
  9 17  1  0  0  0  0
  9 10  2  0  0  0  0
 18 19  1  0  0  0  0
 19 32  1  0  0  0  0
 19 20  2  0  0  0  0
 22 23  1  0  0  0  0
 23 24  1  0  0  0  0
 23 25  2  0  0  0  0
 33 36  1  0  0  0  0
  8 11  1  0  0  0  0
 42 43  1  0  0  0  0
 21 22  1  0  0  0  0
 18 21  1  0  0  0  0
 32 33  1  0  0  0  0
  7  8  1  0  0  0  0
 17 18  1  0  0  0  0
  3  4  1  0  0  0  0
  3  5  1  0  0  0  0
  3  6  1  0  0  0  0
 36 39  1  0  0  0  0
 36 40  1  0  0  0  0
 36 41  1  0  0  0  0
 11 14  1  0  0  0  0
 11 15  1  0  0  0  0
 11 16  1  0  0  0  0
 43 45  1  0  0  0  0
 43 46  1  0  0  0  0
 43 47  1  0  0  0  0
 22 30  1  0  0  0  0
 22 31  1  0  0  0  0
 21 28  1  0  0  0  0
 21 29  1  0  0  0  0
 33 38  1  0  0  0  0
  8 13  1  0  0  0  0
 18 27  1  0  0  0  0
 42 44  1  0  0  0  0
  7 12  1  0  0  0  0
 32 37  1  0  0  0  0
 17 26  1  0  0  0  0
M  CHG  1  24  -1
M  END
$$$$

  -OEChem-05262214473D

 47 46  0     1  0  0  0  0  0999 V2000
    0.5093   -4.7265    3.0306 C   0  0  0  0  0  0  0  0  0  0  0  0
    1.2735   -4.4402    3.9448 O   0  0  0  0  0  0  0  0  0  0  0  0
   -0.4465   -5.8608    3.1982 C   0  0  0  0  0  0  0  0  0  0  0  0
   -0.0219   -6.8213    2.8645 H   0  0  0  0  0  0  0  0  0  0  0  0
   -0.7314   -6.0185    4.2509 H   0  0  0  0  0  0  0  0  0  0  0  0
   -1.3983   -5.7596    2.6527 H   0  0  0  0  0  0  0  0  0  0  0  0
    0.4252   -4.0886    1.8040 N   0  0  0  0  0  0  0  0  0  0  0  0
    1.2532   -2.9707    1.4349 C   0  0  2  0  0  0  0  0  0  0  0  0
    0.3395   -1.8293    1.0083 C   0  0  0  0  0  0  0  0  0  0  0  0
   -0.8136   -2.0027    0.6194 O   0  0  0  0  0  0  0  0  0  0  0  0
    2.2176   -3.3411    0.3189 C   0  0  0  0  0  0  0  0  0  0  0  0
   -0.2574   -4.4279    1.1287 H   0  0  0  0  0  0  0  0  0  0  0  0
    1.8087   -2.6785    2.3327 H   0  0  0  0  0  0  0  0  0  0  0  0
    1.6793   -3.6366   -0.5890 H   0  0  0  0  0  0  0  0  0  0  0  0
    2.8662   -2.4980    0.0589 H   0  0  0  0  0  0  0  0  0  0  0  0
    2.8538   -4.1816    0.6166 H   0  0  0  0  0  0  0  0  0  0  0  0
    0.9758   -0.5952    1.0708 N   0  0  0  0  0  0  0  0  0  0  0  0
    0.3258    0.6374    0.7059 C   0  0  2  0  0  0  0  0  0  0  0  0
    1.3991    1.5830    0.1773 C   0  0  0  0  0  0  0  0  0  0  0  0
    1.1834    2.4186   -0.6982 O   0  0  0  0  0  0  0  0  0  0  0  0
   -0.4078    1.2729    1.8931 C   0  0  0  0  0  0  0  0  0  0  0  0
   -1.6061    0.4569    2.3761 C   0  0  0  0  0  0  0  0  0  0  0  0
   -2.3708    1.0240    3.5767 C   0  0  0  0  0  0  0  0  0  0  0  0
   -1.8275    2.0343    4.1093 O   0  5  0  0  0  0  0  0  0  0  0  0
   -3.4454    0.4381    3.8835 O   0  0  0  0  0  0  0  0  0  0  0  0
    1.9288   -0.5463    1.4242 H   0  0  0  0  0  0  0  0  0  0  0  0
   -0.3656    0.3984   -0.1094 H   0  0  0  0  0  0  0  0  0  0  0  0
   -0.7375    2.2861    1.6317 H   0  0  0  0  0  0  0  0  0  0  0  0
    0.2921    1.3904    2.7312 H   0  0  0  0  0  0  0  0  0  0  0  0
   -2.3068    0.2951    1.5483 H   0  0  0  0  0  0  0  0  0  0  0  0
   -1.2489   -0.5352    2.6804 H   0  0  0  0  0  0  0  0  0  0  0  0
    2.6347    1.3506    0.7654 N   0  0  0  0  0  0  0  0  0  0  0  0
    3.8188    2.1043    0.4242 C   0  0  2  0  0  0  0  0  0  0  0  0
    5.0319    1.3126    0.8945 C   0  0  0  0  0  0  0  0  0  0  0  0
    4.9760    0.4635    1.7817 O   0  0  0  0  0  0  0  0  0  0  0  0
    3.7949    3.4879    1.0548 C   0  0  0  0  0  0  0  0  0  0  0  0
    2.7161    0.6469    1.4932 H   0  0  0  0  0  0  0  0  0  0  0  0
    3.8372    2.1872   -0.6680 H   0  0  0  0  0  0  0  0  0  0  0  0
    3.7763    3.4251    2.1489 H   0  0  0  0  0  0  0  0  0  0  0  0
    4.6794    4.0682    0.7720 H   0  0  0  0  0  0  0  0  0  0  0  0
    2.9063    4.0449    0.7387 H   0  0  0  0  0  0  0  0  0  0  0  0
    6.1924    1.6963    0.2371 N   0  0  0  0  0  0  0  0  0  0  0  0
    7.4789    1.1017    0.5153 C   0  0  0  0  0  0  0  0  0  0  0  0
    6.1424    2.3954   -0.4981 H   0  0  0  0  0  0  0  0  0  0  0  0
    7.9999    1.6953    1.2810 H   0  0  0  0  0  0  0  0  0  0  0  0
    7.3364    0.0745    0.8820 H   0  0  0  0  0  0  0  0  0  0  0  0
    8.0805    1.0822   -0.4054 H   0  0  0  0  0  0  0  0  0  0  0  0
  1  3  1  0  0  0  0
  1  7  1  0  0  0  0
  1  2  2  0  0  0  0
 33 34  1  0  0  0  0
 34 42  1  0  0  0  0
 34 35  2  0  0  0  0
  8  9  1  0  0  0  0
  9 17  1  0  0  0  0
  9 10  2  0  0  0  0
 18 19  1  0  0  0  0
 19 32  1  0  0  0  0
 19 20  2  0  0  0  0
 22 23  1  0  0  0  0
 23 24  1  0  0  0  0
 23 25  2  0  0  0  0
 33 36  1  0  0  0  0
  8 11  1  0  0  0  0
 42 43  1  0  0  0  0
 21 22  1  0  0  0  0
 18 21  1  0  0  0  0
 32 33  1  0  0  0  0
  7  8  1  0  0  0  0
 17 18  1  0  0  0  0
  3  4  1  0  0  0  0
  3  5  1  0  0  0  0
  3  6  1  0  0  0  0
 36 39  1  0  0  0  0
 36 40  1  0  0  0  0
 36 41  1  0  0  0  0
 11 14  1  0  0  0  0
 11 15  1  0  0  0  0
 11 16  1  0  0  0  0
 43 45  1  0  0  0  0
 43 46  1  0  0  0  0
 43 47  1  0  0  0  0
 22 30  1  0  0  0  0
 22 31  1  0  0  0  0
 21 28  1  0  0  0  0
 21 29  1  0  0  0  0
 33 38  1  0  0  0  0
  8 13  1  0  0  0  0
 18 27  1  0  0  0  0
 42 44  1  0  0  0  0
  7 12  1  0  0  0  0
 32 37  1  0  0  0  0
 17 26  1  0  0  0  0
M  CHG  1  24  -1
M  END
$$$$

  -OEChem-05262214473D

 47 46  0     1  0  0  0  0  0999 V2000
    0.5093   -4.7265    3.0306 C   0  0  0  0  0  0  0  0  0  0  0  0
    1.2735   -4.4402    3.9448 O   0  0  0  0  0  0  0  0  0  0  0  0
   -0.4465   -5.8608    3.1982 C   0  0  0  0  0  0  0  0  0  0  0  0
   -0.0219   -6.8213    2.8645 H   0  0  0  0  0  0  0  0  0  0  0  0
   -0.7314   -6.0185    4.2509 H   0  0  0  0  0  0  0  0  0  0  0  0
   -1.3983   -5.7596    2.6527 H   0  0  0  0  0  0  0  0  0  0  0  0
    0.4252   -4.0886    1.8040 N   0  0  0  0  0  0  0  0  0  0  0  0
    1.2532   -2.9707    1.4349 C   0  0  2  0  0  0  0  0  0  0  0  0
    0.3395   -1.8293    1.0083 C   0  0  0  0  0  0  0  0  0  0  0  0
   -0.8136   -2.0027    0.6194 O   0  0  0  0  0  0  0  0  0  0  0  0
    2.2176   -3.3411    0.3189 C   0  0  0  0  0  0  0  0  0  0  0  0
   -0.2574   -4.4279    1.1287 H   0  0  0  0  0  0  0  0  0  0  0  0
    1.8087   -2.6785    2.3327 H   0  0  0  0  0  0  0  0  0  0  0  0
    1.6793   -3.6366   -0.5890 H   0  0  0  0  0  0  0  0  0  0  0  0
    2.8662   -2.4980    0.0589 H   0  0  0  0  0  0  0  0  0  0  0  0
    2.8538   -4.1816    0.6166 H   0  0  0  0  0  0  0  0  0  0  0  0
    0.9758   -0.5952    1.0708 N   0  0  0  0  0  0  0  0  0  0  0  0
    0.3258    0.6374    0.7059 C   0  0  2  0  0  0  0  0  0  0  0  0
    1.3991    1.5830    0.1773 C   0  0  0  0  0  0  0  0  0  0  0  0
    1.1413    2.5831   -0.4894 O   0  0  0  0  0  0  0  0  0  0  0  0
   -0.4078    1.2729    1.8931 C   0  0  0  0  0  0  0  0  0  0  0  0
   -1.6061    0.4569    2.3761 C   0  0  0  0  0  0  0  0  0  0  0  0
   -2.3708    1.0240    3.5767 C   0  0  0  0  0  0  0  0  0  0  0  0
   -1.8275    2.0343    4.1093 O   0  5  0  0  0  0  0  0  0  0  0  0
   -3.4454    0.4381    3.8835 O   0  0  0  0  0  0  0  0  0  0  0  0
    1.9288   -0.5463    1.4242 H   0  0  0  0  0  0  0  0  0  0  0  0
   -0.3656    0.3984   -0.1094 H   0  0  0  0  0  0  0  0  0  0  0  0
   -0.7375    2.2861    1.6317 H   0  0  0  0  0  0  0  0  0  0  0  0
    0.2921    1.3904    2.7312 H   0  0  0  0  0  0  0  0  0  0  0  0
   -2.3068    0.2951    1.5483 H   0  0  0  0  0  0  0  0  0  0  0  0
   -1.2489   -0.5352    2.6804 H   0  0  0  0  0  0  0  0  0  0  0  0
    2.6786    1.1515    0.4985 N   0  0  0  0  0  0  0  0  0  0  0  0
    3.8693    1.8654    0.0995 C   0  0  2  0  0  0  0  0  0  0  0  0
    5.0503    0.9105    0.2126 C   0  0  0  0  0  0  0  0  0  0  0  0
    5.0415   -0.0847    0.9341 O   0  0  0  0  0  0  0  0  0  0  0  0
    4.0865    3.1024    0.9571 C   0  0  0  0  0  0  0  0  0  0  0  0
    2.7958    0.3186    1.0678 H   0  0  0  0  0  0  0  0  0  0  0  0
    3.7298    2.1522   -0.9485 H   0  0  0  0  0  0  0  0  0  0  0  0
    4.2281    2.8349    2.0106 H   0  0  0  0  0  0  0  0  0  0  0  0
    4.9734    3.6578    0.6350 H   0  0  0  0  0  0  0  0  0  0  0  0
    3.2233    3.7741    0.8979 H   0  0  0  0  0  0  0  0  0  0  0  0
    6.1310    1.3238   -0.5539 N   0  0  0  0  0  0  0  0  0  0  0  0
    7.3755    0.5927   -0.6052 C   0  0  0  0  0  0  0  0  0  0  0  0
    6.0430    2.1513   -1.1364 H   0  0  0  0  0  0  0  0  0  0  0  0
    8.0661    0.9897    0.1534 H   0  0  0  0  0  0  0  0  0  0  0  0
    7.1838   -0.4718   -0.4051 H   0  0  0  0  0  0  0  0  0  0  0  0
    7.8246    0.7031   -1.6033 H   0  0  0  0  0  0  0  0  0  0  0  0
  1  3  1  0  0  0  0
  1  7  1  0  0  0  0
  1  2  2  0  0  0  0
 33 34  1  0  0  0  0
 34 42  1  0  0  0  0
 34 35  2  0  0  0  0
  8  9  1  0  0  0  0
  9 17  1  0  0  0  0
  9 10  2  0  0  0  0
 18 19  1  0  0  0  0
 19 32  1  0  0  0  0
 19 20  2  0  0  0  0
 22 23  1  0  0  0  0
 23 24  1  0  0  0  0
 23 25  2  0  0  0  0
 33 36  1  0  0  0  0
  8 11  1  0  0  0  0
 42 43  1  0  0  0  0
 21 22  1  0  0  0  0
 18 21  1  0  0  0  0
 32 33  1  0  0  0  0
  7  8  1  0  0  0  0
 17 18  1  0  0  0  0
  3  4  1  0  0  0  0
  3  5  1  0  0  0  0
  3  6  1  0  0  0  0
 36 39  1  0  0  0  0
 36 40  1  0  0  0  0
 36 41  1  0  0  0  0
 11 14  1  0  0  0  0
 11 15  1  0  0  0  0
 11 16  1  0  0  0  0
 43 45  1  0  0  0  0
 43 46  1  0  0  0  0
 43 47  1  0  0  0  0
 22 30  1  0  0  0  0
 22 31  1  0  0  0  0
 21 28  1  0  0  0  0
 21 29  1  0  0  0  0
 33 38  1  0  0  0  0
  8 13  1  0  0  0  0
 18 27  1  0  0  0  0
 42 44  1  0  0  0  0
  7 12  1  0  0  0  0
 32 37  1  0  0  0  0
 17 26  1  0  0  0  0
M  CHG  1  24  -1
M  END
$$$$

  -OEChem-05262214473D

 47 46  0     1  0  0  0  0  0999 V2000
    0.5093   -4.7265    3.0306 C   0  0  0  0  0  0  0  0  0  0  0  0
    1.2735   -4.4402    3.9448 O   0  0  0  0  0  0  0  0  0  0  0  0
   -0.4465   -5.8608    3.1982 C   0  0  0  0  0  0  0  0  0  0  0  0
   -0.0219   -6.8213    2.8645 H   0  0  0  0  0  0  0  0  0  0  0  0
   -0.7314   -6.0185    4.2509 H   0  0  0  0  0  0  0  0  0  0  0  0
   -1.3983   -5.7596    2.6527 H   0  0  0  0  0  0  0  0  0  0  0  0
    0.4252   -4.0886    1.8040 N   0  0  0  0  0  0  0  0  0  0  0  0
    1.2532   -2.9707    1.4349 C   0  0  2  0  0  0  0  0  0  0  0  0
    0.3395   -1.8293    1.0083 C   0  0  0  0  0  0  0  0  0  0  0  0
   -0.8136   -2.0027    0.6194 O   0  0  0  0  0  0  0  0  0  0  0  0
    2.2176   -3.3411    0.3189 C   0  0  0  0  0  0  0  0  0  0  0  0
   -0.2574   -4.4279    1.1287 H   0  0  0  0  0  0  0  0  0  0  0  0
    1.8087   -2.6785    2.3327 H   0  0  0  0  0  0  0  0  0  0  0  0
    1.6793   -3.6366   -0.5890 H   0  0  0  0  0  0  0  0  0  0  0  0
    2.8662   -2.4980    0.0589 H   0  0  0  0  0  0  0  0  0  0  0  0
    2.8538   -4.1816    0.6166 H   0  0  0  0  0  0  0  0  0  0  0  0
    0.9758   -0.5952    1.0708 N   0  0  0  0  0  0  0  0  0  0  0  0
    0.3258    0.6374    0.7059 C   0  0  2  0  0  0  0  0  0  0  0  0
    1.3991    1.5830    0.1773 C   0  0  0  0  0  0  0  0  0  0  0  0
    1.1489    2.7078   -0.2510 O   0  0  0  0  0  0  0  0  0  0  0  0
   -0.4078    1.2729    1.8931 C   0  0  0  0  0  0  0  0  0  0  0  0
   -1.6061    0.4569    2.3761 C   0  0  0  0  0  0  0  0  0  0  0  0
   -2.3708    1.0240    3.5767 C   0  0  0  0  0  0  0  0  0  0  0  0
   -1.8275    2.0343    4.1093 O   0  5  0  0  0  0  0  0  0  0  0  0
   -3.4454    0.4381    3.8835 O   0  0  0  0  0  0  0  0  0  0  0  0
    1.9288   -0.5463    1.4242 H   0  0  0  0  0  0  0  0  0  0  0  0
   -0.3656    0.3984   -0.1094 H   0  0  0  0  0  0  0  0  0  0  0  0
   -0.7375    2.2861    1.6317 H   0  0  0  0  0  0  0  0  0  0  0  0
    0.2921    1.3904    2.7312 H   0  0  0  0  0  0  0  0  0  0  0  0
   -2.3068    0.2951    1.5483 H   0  0  0  0  0  0  0  0  0  0  0  0
   -1.2489   -0.5352    2.6804 H   0  0  0  0  0  0  0  0  0  0  0  0
    2.6604    1.0040    0.1975 N   0  0  0  0  0  0  0  0  0  0  0  0
    3.8446    1.6894   -0.2658 C   0  0  2  0  0  0  0  0  0  0  0  0
    4.9226    0.6446   -0.5224 C   0  0  0  0  0  0  0  0  0  0  0  0
    4.9197   -0.4658    0.0050 O   0  0  0  0  0  0  0  0  0  0  0  0
    4.3178    2.7216    0.7458 C   0  0  0  0  0  0  0  0  0  0  0  0
    2.7751    0.0718    0.5843 H   0  0  0  0  0  0  0  0  0  0  0  0
    3.5780    2.1791   -1.2087 H   0  0  0  0  0  0  0  0  0  0  0  0
    4.5894    2.2495    1.6970 H   0  0  0  0  0  0  0  0  0  0  0  0
    5.1986    3.2601    0.3807 H   0  0  0  0  0  0  0  0  0  0  0  0
    3.5307    3.4550    0.9515 H   0  0  0  0  0  0  0  0  0  0  0  0
    5.9112    1.1136   -1.3760 N   0  0  0  0  0  0  0  0  0  0  0  0
    7.0501    0.3144   -1.7637 C   0  0  0  0  0  0  0  0  0  0  0  0
    5.8227    2.0407   -1.7815 H   0  0  0  0  0  0  0  0  0  0  0  0
    7.8858    0.5077   -1.0750 H   0  0  0  0  0  0  0  0  0  0  0  0
    6.7808   -0.7513   -1.7233 H   0  0  0  0  0  0  0  0  0  0  0  0
    7.3511    0.5780   -2.7883 H   0  0  0  0  0  0  0  0  0  0  0  0
  1  3  1  0  0  0  0
  1  7  1  0  0  0  0
  1  2  2  0  0  0  0
 33 34  1  0  0  0  0
 34 42  1  0  0  0  0
 34 35  2  0  0  0  0
  8  9  1  0  0  0  0
  9 17  1  0  0  0  0
  9 10  2  0  0  0  0
 18 19  1  0  0  0  0
 19 32  1  0  0  0  0
 19 20  2  0  0  0  0
 22 23  1  0  0  0  0
 23 24  1  0  0  0  0
 23 25  2  0  0  0  0
 33 36  1  0  0  0  0
  8 11  1  0  0  0  0
 42 43  1  0  0  0  0
 21 22  1  0  0  0  0
 18 21  1  0  0  0  0
 32 33  1  0  0  0  0
  7  8  1  0  0  0  0
 17 18  1  0  0  0  0
  3  4  1  0  0  0  0
  3  5  1  0  0  0  0
  3  6  1  0  0  0  0
 36 39  1  0  0  0  0
 36 40  1  0  0  0  0
 36 41  1  0  0  0  0
 11 14  1  0  0  0  0
 11 15  1  0  0  0  0
 11 16  1  0  0  0  0
 43 45  1  0  0  0  0
 43 46  1  0  0  0  0
 43 47  1  0  0  0  0
 22 30  1  0  0  0  0
 22 31  1  0  0  0  0
 21 28  1  0  0  0  0
 21 29  1  0  0  0  0
 33 38  1  0  0  0  0
  8 13  1  0  0  0  0
 18 27  1  0  0  0  0
 42 44  1  0  0  0  0
  7 12  1  0  0  0  0
 32 37  1  0  0  0  0
 17 26  1  0  0  0  0
M  CHG  1  24  -1
M  END
$$$$

  -OEChem-05262214473D

 47 46  0     1  0  0  0  0  0999 V2000
    0.5093   -4.7265    3.0306 C   0  0  0  0  0  0  0  0  0  0  0  0
    1.2735   -4.4402    3.9448 O   0  0  0  0  0  0  0  0  0  0  0  0
   -0.4465   -5.8608    3.1982 C   0  0  0  0  0  0  0  0  0  0  0  0
   -0.0219   -6.8213    2.8645 H   0  0  0  0  0  0  0  0  0  0  0  0
   -0.7314   -6.0185    4.2509 H   0  0  0  0  0  0  0  0  0  0  0  0
   -1.3983   -5.7596    2.6527 H   0  0  0  0  0  0  0  0  0  0  0  0
    0.4252   -4.0886    1.8040 N   0  0  0  0  0  0  0  0  0  0  0  0
    1.2532   -2.9707    1.4349 C   0  0  2  0  0  0  0  0  0  0  0  0
    0.3395   -1.8293    1.0083 C   0  0  0  0  0  0  0  0  0  0  0  0
   -0.8136   -2.0027    0.6194 O   0  0  0  0  0  0  0  0  0  0  0  0
    2.2176   -3.3411    0.3189 C   0  0  0  0  0  0  0  0  0  0  0  0
   -0.2574   -4.4279    1.1287 H   0  0  0  0  0  0  0  0  0  0  0  0
    1.8087   -2.6785    2.3327 H   0  0  0  0  0  0  0  0  0  0  0  0
    1.6793   -3.6366   -0.5890 H   0  0  0  0  0  0  0  0  0  0  0  0
    2.8662   -2.4980    0.0589 H   0  0  0  0  0  0  0  0  0  0  0  0
    2.8538   -4.1816    0.6166 H   0  0  0  0  0  0  0  0  0  0  0  0
    0.9758   -0.5952    1.0708 N   0  0  0  0  0  0  0  0  0  0  0  0
    0.3258    0.6374    0.7059 C   0  0  2  0  0  0  0  0  0  0  0  0
    1.3991    1.5830    0.1773 C   0  0  0  0  0  0  0  0  0  0  0  0
    1.2056    2.7841    0.0007 O   0  0  0  0  0  0  0  0  0  0  0  0
   -0.4078    1.2729    1.8931 C   0  0  0  0  0  0  0  0  0  0  0  0
   -1.6061    0.4569    2.3761 C   0  0  0  0  0  0  0  0  0  0  0  0
   -2.3708    1.0240    3.5767 C   0  0  0  0  0  0  0  0  0  0  0  0
   -1.8275    2.0343    4.1093 O   0  5  0  0  0  0  0  0  0  0  0  0
   -3.4454    0.4381    3.8835 O   0  0  0  0  0  0  0  0  0  0  0  0
    1.9288   -0.5463    1.4242 H   0  0  0  0  0  0  0  0  0  0  0  0
   -0.3656    0.3984   -0.1094 H   0  0  0  0  0  0  0  0  0  0  0  0
   -0.7375    2.2861    1.6317 H   0  0  0  0  0  0  0  0  0  0  0  0
    0.2921    1.3904    2.7312 H   0  0  0  0  0  0  0  0  0  0  0  0
   -2.3068    0.2951    1.5483 H   0  0  0  0  0  0  0  0  0  0  0  0
   -1.2489   -0.5352    2.6804 H   0  0  0  0  0  0  0  0  0  0  0  0
    2.5812    0.9179   -0.1172 N   0  0  0  0  0  0  0  0  0  0  0  0
    3.7462    1.5880   -0.6467 C   0  0  2  0  0  0  0  0  0  0  0  0
    4.6574    0.5331   -1.2602 C   0  0  0  0  0  0  0  0  0  0  0  0
    4.6186   -0.6537   -0.9423 O   0  0  0  0  0  0  0  0  0  0  0  0
    4.4732    2.3715    0.4352 C   0  0  0  0  0  0  0  0  0  0  0  0
    2.6553   -0.0766    0.0756 H   0  0  0  0  0  0  0  0  0  0  0  0
    3.3920    2.2662   -1.4307 H   0  0  0  0  0  0  0  0  0  0  0  0
    4.8355    1.7088    1.2295 H   0  0  0  0  0  0  0  0  0  0  0  0
    5.3397    2.9019    0.0265 H   0  0  0  0  0  0  0  0  0  0  0  0
    3.8077    3.1095    0.8958 H   0  0  0  0  0  0  0  0  0  0  0  0
    5.5482    1.0801   -2.1732 N   0  0  0  0  0  0  0  0  0  0  0  0
    6.5249    0.2859   -2.8811 C   0  0  0  0  0  0  0  0  0  0  0  0
    5.4965    2.0712   -2.3894 H   0  0  0  0  0  0  0  0  0  0  0  0
    7.4712    0.2820   -2.3203 H   0  0  0  0  0  0  0  0  0  0  0  0
    6.1549   -0.7450   -2.9828 H   0  0  0  0  0  0  0  0  0  0  0  0
    6.6924    0.7155   -3.8798 H   0  0  0  0  0  0  0  0  0  0  0  0
  1  3  1  0  0  0  0
  1  7  1  0  0  0  0
  1  2  2  0  0  0  0
 33 34  1  0  0  0  0
 34 42  1  0  0  0  0
 34 35  2  0  0  0  0
  8  9  1  0  0  0  0
  9 17  1  0  0  0  0
  9 10  2  0  0  0  0
 18 19  1  0  0  0  0
 19 32  1  0  0  0  0
 19 20  2  0  0  0  0
 22 23  1  0  0  0  0
 23 24  1  0  0  0  0
 23 25  2  0  0  0  0
 33 36  1  0  0  0  0
  8 11  1  0  0  0  0
 42 43  1  0  0  0  0
 21 22  1  0  0  0  0
 18 21  1  0  0  0  0
 32 33  1  0  0  0  0
  7  8  1  0  0  0  0
 17 18  1  0  0  0  0
  3  4  1  0  0  0  0
  3  5  1  0  0  0  0
  3  6  1  0  0  0  0
 36 39  1  0  0  0  0
 36 40  1  0  0  0  0
 36 41  1  0  0  0  0
 11 14  1  0  0  0  0
 11 15  1  0  0  0  0
 11 16  1  0  0  0  0
 43 45  1  0  0  0  0
 43 46  1  0  0  0  0
 43 47  1  0  0  0  0
 22 30  1  0  0  0  0
 22 31  1  0  0  0  0
 21 28  1  0  0  0  0
 21 29  1  0  0  0  0
 33 38  1  0  0  0  0
  8 13  1  0  0  0  0
 18 27  1  0  0  0  0
 42 44  1  0  0  0  0
  7 12  1  0  0  0  0
 32 37  1  0  0  0  0
 17 26  1  0  0  0  0
M  CHG  1  24  -1
M  END
$$$$

  -OEChem-05262214473D

 47 46  0     1  0  0  0  0  0999 V2000
    0.5093   -4.7265    3.0306 C   0  0  0  0  0  0  0  0  0  0  0  0
    1.2735   -4.4402    3.9448 O   0  0  0  0  0  0  0  0  0  0  0  0
   -0.4465   -5.8608    3.1982 C   0  0  0  0  0  0  0  0  0  0  0  0
   -0.0219   -6.8213    2.8645 H   0  0  0  0  0  0  0  0  0  0  0  0
   -0.7314   -6.0185    4.2509 H   0  0  0  0  0  0  0  0  0  0  0  0
   -1.3983   -5.7596    2.6527 H   0  0  0  0  0  0  0  0  0  0  0  0
    0.4252   -4.0886    1.8040 N   0  0  0  0  0  0  0  0  0  0  0  0
    1.2532   -2.9707    1.4349 C   0  0  2  0  0  0  0  0  0  0  0  0
    0.3395   -1.8293    1.0083 C   0  0  0  0  0  0  0  0  0  0  0  0
   -0.8136   -2.0027    0.6194 O   0  0  0  0  0  0  0  0  0  0  0  0
    2.2176   -3.3411    0.3189 C   0  0  0  0  0  0  0  0  0  0  0  0
   -0.2574   -4.4279    1.1287 H   0  0  0  0  0  0  0  0  0  0  0  0
    1.8087   -2.6785    2.3327 H   0  0  0  0  0  0  0  0  0  0  0  0
    1.6793   -3.6366   -0.5890 H   0  0  0  0  0  0  0  0  0  0  0  0
    2.8662   -2.4980    0.0589 H   0  0  0  0  0  0  0  0  0  0  0  0
    2.8538   -4.1816    0.6166 H   0  0  0  0  0  0  0  0  0  0  0  0
    0.9758   -0.5952    1.0708 N   0  0  0  0  0  0  0  0  0  0  0  0
    0.3258    0.6374    0.7059 C   0  0  2  0  0  0  0  0  0  0  0  0
    1.3991    1.5830    0.1773 C   0  0  0  0  0  0  0  0  0  0  0  0
    1.3077    2.8068    0.2487 O   0  0  0  0  0  0  0  0  0  0  0  0
   -0.4078    1.2729    1.8931 C   0  0  0  0  0  0  0  0  0  0  0  0
   -1.6061    0.4569    2.3761 C   0  0  0  0  0  0  0  0  0  0  0  0
   -2.3708    1.0240    3.5767 C   0  0  0  0  0  0  0  0  0  0  0  0
   -1.8275    2.0343    4.1093 O   0  5  0  0  0  0  0  0  0  0  0  0
   -3.4454    0.4381    3.8835 O   0  0  0  0  0  0  0  0  0  0  0  0
    1.9288   -0.5463    1.4242 H   0  0  0  0  0  0  0  0  0  0  0  0
   -0.3656    0.3984   -0.1094 H   0  0  0  0  0  0  0  0  0  0  0  0
   -0.7375    2.2861    1.6317 H   0  0  0  0  0  0  0  0  0  0  0  0
    0.2921    1.3904    2.7312 H   0  0  0  0  0  0  0  0  0  0  0  0
   -2.3068    0.2951    1.5483 H   0  0  0  0  0  0  0  0  0  0  0  0
   -1.2489   -0.5352    2.6804 H   0  0  0  0  0  0  0  0  0  0  0  0
    2.4465    0.8991   -0.4242 N   0  0  0  0  0  0  0  0  0  0  0  0
    3.5810    1.5684   -1.0172 C   0  0  2  0  0  0  0  0  0  0  0  0
    4.2728    0.5837   -1.9506 C   0  0  0  0  0  0  0  0  0  0  0  0
    4.1590   -0.6356   -1.8432 O   0  0  0  0  0  0  0  0  0  0  0  0
    4.5421    2.0760    0.0464 C   0  0  0  0  0  0  0  0  0  0  0  0
    2.4447   -0.1166   -0.4235 H   0  0  0  0  0  0  0  0  0  0  0  0
    3.1845    2.4074   -1.5994 H   0  0  0  0  0  0  0  0  0  0  0  0
    4.9497    1.2496    0.6399 H   0  0  0  0  0  0  0  0  0  0  0  0
    5.3869    2.6079   -0.4035 H   0  0  0  0  0  0  0  0  0  0  0  0
    4.0353    2.7611    0.7346 H   0  0  0  0  0  0  0  0  0  0  0  0
    5.0666    1.2255   -2.8910 N   0  0  0  0  0  0  0  0  0  0  0  0
    5.8357    0.5090   -3.8814 C   0  0  0  0  0  0  0  0  0  0  0  0
    5.0865    2.2406   -2.9188 H   0  0  0  0  0  0  0  0  0  0  0  0
    6.8507    0.3281   -3.4978 H   0  0  0  0  0  0  0  0  0  0  0  0
    5.3488   -0.4534   -4.0979 H   0  0  0  0  0  0  0  0  0  0  0  0
    5.8933    1.1063   -4.8033 H   0  0  0  0  0  0  0  0  0  0  0  0
  1  3  1  0  0  0  0
  1  7  1  0  0  0  0
  1  2  2  0  0  0  0
 33 34  1  0  0  0  0
 34 42  1  0  0  0  0
 34 35  2  0  0  0  0
  8  9  1  0  0  0  0
  9 17  1  0  0  0  0
  9 10  2  0  0  0  0
 18 19  1  0  0  0  0
 19 32  1  0  0  0  0
 19 20  2  0  0  0  0
 22 23  1  0  0  0  0
 23 24  1  0  0  0  0
 23 25  2  0  0  0  0
 33 36  1  0  0  0  0
  8 11  1  0  0  0  0
 42 43  1  0  0  0  0
 21 22  1  0  0  0  0
 18 21  1  0  0  0  0
 32 33  1  0  0  0  0
  7  8  1  0  0  0  0
 17 18  1  0  0  0  0
  3  4  1  0  0  0  0
  3  5  1  0  0  0  0
  3  6  1  0  0  0  0
 36 39  1  0  0  0  0
 36 40  1  0  0  0  0
 36 41  1  0  0  0  0
 11 14  1  0  0  0  0
 11 15  1  0  0  0  0
 11 16  1  0  0  0  0
 43 45  1  0  0  0  0
 43 46  1  0  0  0  0
 43 47  1  0  0  0  0
 22 30  1  0  0  0  0
 22 31  1  0  0  0  0
 21 28  1  0  0  0  0
 21 29  1  0  0  0  0
 33 38  1  0  0  0  0
  8 13  1  0  0  0  0
 18 27  1  0  0  0  0
 42 44  1  0  0  0  0
  7 12  1  0  0  0  0
 32 37  1  0  0  0  0
 17 26  1  0  0  0  0
M  CHG  1  24  -1
M  END
$$$$

  -OEChem-05262214473D

 47 46  0     1  0  0  0  0  0999 V2000
    0.5093   -4.7265    3.0306 C   0  0  0  0  0  0  0  0  0  0  0  0
    1.2735   -4.4402    3.9448 O   0  0  0  0  0  0  0  0  0  0  0  0
   -0.4465   -5.8608    3.1982 C   0  0  0  0  0  0  0  0  0  0  0  0
   -0.0219   -6.8213    2.8645 H   0  0  0  0  0  0  0  0  0  0  0  0
   -0.7314   -6.0185    4.2509 H   0  0  0  0  0  0  0  0  0  0  0  0
   -1.3983   -5.7596    2.6527 H   0  0  0  0  0  0  0  0  0  0  0  0
    0.4252   -4.0886    1.8040 N   0  0  0  0  0  0  0  0  0  0  0  0
    1.2532   -2.9707    1.4349 C   0  0  2  0  0  0  0  0  0  0  0  0
    0.3395   -1.8293    1.0083 C   0  0  0  0  0  0  0  0  0  0  0  0
   -0.8136   -2.0027    0.6194 O   0  0  0  0  0  0  0  0  0  0  0  0
    2.2176   -3.3411    0.3189 C   0  0  0  0  0  0  0  0  0  0  0  0
   -0.2574   -4.4279    1.1287 H   0  0  0  0  0  0  0  0  0  0  0  0
    1.8087   -2.6785    2.3327 H   0  0  0  0  0  0  0  0  0  0  0  0
    1.6793   -3.6366   -0.5890 H   0  0  0  0  0  0  0  0  0  0  0  0
    2.8662   -2.4980    0.0589 H   0  0  0  0  0  0  0  0  0  0  0  0
    2.8538   -4.1816    0.6166 H   0  0  0  0  0  0  0  0  0  0  0  0
    0.9758   -0.5952    1.0708 N   0  0  0  0  0  0  0  0  0  0  0  0
    0.3258    0.6374    0.7059 C   0  0  2  0  0  0  0  0  0  0  0  0
    1.3991    1.5830    0.1773 C   0  0  0  0  0  0  0  0  0  0  0  0
    1.4482    2.7745    0.4759 O   0  0  0  0  0  0  0  0  0  0  0  0
   -0.4078    1.2729    1.8931 C   0  0  0  0  0  0  0  0  0  0  0  0
   -1.6061    0.4569    2.3761 C   0  0  0  0  0  0  0  0  0  0  0  0
   -2.3708    1.0240    3.5767 C   0  0  0  0  0  0  0  0  0  0  0  0
   -1.8275    2.0343    4.1093 O   0  5  0  0  0  0  0  0  0  0  0  0
   -3.4454    0.4381    3.8835 O   0  0  0  0  0  0  0  0  0  0  0  0
    1.9288   -0.5463    1.4242 H   0  0  0  0  0  0  0  0  0  0  0  0
   -0.3656    0.3984   -0.1094 H   0  0  0  0  0  0  0  0  0  0  0  0
   -0.7375    2.2861    1.6317 H   0  0  0  0  0  0  0  0  0  0  0  0
    0.2921    1.3904    2.7312 H   0  0  0  0  0  0  0  0  0  0  0  0
   -2.3068    0.2951    1.5483 H   0  0  0  0  0  0  0  0  0  0  0  0
   -1.2489   -0.5352    2.6804 H   0  0  0  0  0  0  0  0  0  0  0  0
    2.2655    0.9491   -0.7025 N   0  0  0  0  0  0  0  0  0  0  0  0
    3.3602    1.6317   -1.3523 C   0  0  2  0  0  0  0  0  0  0  0  0
    3.7951    0.7928   -2.5466 C   0  0  0  0  0  0  0  0  0  0  0  0
    3.5721   -0.4128   -2.6364 O   0  0  0  0  0  0  0  0  0  0  0  0
    4.5197    1.8552   -0.3940 C   0  0  0  0  0  0  0  0  0  0  0  0
    2.1575   -0.0453   -0.8792 H   0  0  0  0  0  0  0  0  0  0  0  0
    2.9697    2.5931   -1.7034 H   0  0  0  0  0  0  0  0  0  0  0  0
    4.9242    0.9031   -0.0316 H   0  0  0  0  0  0  0  0  0  0  0  0
    5.3372    2.3980   -0.8800 H   0  0  0  0  0  0  0  0  0  0  0  0
    4.1980    2.4334    0.4789 H   0  0  0  0  0  0  0  0  0  0  0  0
    4.4993    1.5399   -3.4805 N   0  0  0  0  0  0  0  0  0  0  0  0
    5.0295    0.9685   -4.6964 C   0  0  0  0  0  0  0  0  0  0  0  0
    4.6208    2.5375   -3.3334 H   0  0  0  0  0  0  0  0  0  0  0  0
    6.0665    0.6428   -4.5273 H   0  0  0  0  0  0  0  0  0  0  0  0
    4.4174    0.1038   -4.9924 H   0  0  0  0  0  0  0  0  0  0  0  0
    5.0083    1.7237   -5.4959 H   0  0  0  0  0  0  0  0  0  0  0  0
  1  3  1  0  0  0  0
  1  7  1  0  0  0  0
  1  2  2  0  0  0  0
 33 34  1  0  0  0  0
 34 42  1  0  0  0  0
 34 35  2  0  0  0  0
  8  9  1  0  0  0  0
  9 17  1  0  0  0  0
  9 10  2  0  0  0  0
 18 19  1  0  0  0  0
 19 32  1  0  0  0  0
 19 20  2  0  0  0  0
 22 23  1  0  0  0  0
 23 24  1  0  0  0  0
 23 25  2  0  0  0  0
 33 36  1  0  0  0  0
  8 11  1  0  0  0  0
 42 43  1  0  0  0  0
 21 22  1  0  0  0  0
 18 21  1  0  0  0  0
 32 33  1  0  0  0  0
  7  8  1  0  0  0  0
 17 18  1  0  0  0  0
  3  4  1  0  0  0  0
  3  5  1  0  0  0  0
  3  6  1  0  0  0  0
 36 39  1  0  0  0  0
 36 40  1  0  0  0  0
 36 41  1  0  0  0  0
 11 14  1  0  0  0  0
 11 15  1  0  0  0  0
 11 16  1  0  0  0  0
 43 45  1  0  0  0  0
 43 46  1  0  0  0  0
 43 47  1  0  0  0  0
 22 30  1  0  0  0  0
 22 31  1  0  0  0  0
 21 28  1  0  0  0  0
 21 29  1  0  0  0  0
 33 38  1  0  0  0  0
  8 13  1  0  0  0  0
 18 27  1  0  0  0  0
 42 44  1  0  0  0  0
  7 12  1  0  0  0  0
 32 37  1  0  0  0  0
 17 26  1  0  0  0  0
M  CHG  1  24  -1
M  END
$$$$

  -OEChem-05262214473D

 47 46  0     1  0  0  0  0  0999 V2000
    0.5093   -4.7265    3.0306 C   0  0  0  0  0  0  0  0  0  0  0  0
    1.2735   -4.4402    3.9448 O   0  0  0  0  0  0  0  0  0  0  0  0
   -0.4465   -5.8608    3.1982 C   0  0  0  0  0  0  0  0  0  0  0  0
   -0.0219   -6.8213    2.8645 H   0  0  0  0  0  0  0  0  0  0  0  0
   -0.7314   -6.0185    4.2509 H   0  0  0  0  0  0  0  0  0  0  0  0
   -1.3983   -5.7596    2.6527 H   0  0  0  0  0  0  0  0  0  0  0  0
    0.4252   -4.0886    1.8040 N   0  0  0  0  0  0  0  0  0  0  0  0
    1.2532   -2.9707    1.4349 C   0  0  2  0  0  0  0  0  0  0  0  0
    0.3395   -1.8293    1.0083 C   0  0  0  0  0  0  0  0  0  0  0  0
   -0.8136   -2.0027    0.6194 O   0  0  0  0  0  0  0  0  0  0  0  0
    2.2176   -3.3411    0.3189 C   0  0  0  0  0  0  0  0  0  0  0  0
   -0.2574   -4.4279    1.1287 H   0  0  0  0  0  0  0  0  0  0  0  0
    1.8087   -2.6785    2.3327 H   0  0  0  0  0  0  0  0  0  0  0  0
    1.6793   -3.6366   -0.5890 H   0  0  0  0  0  0  0  0  0  0  0  0
    2.8662   -2.4980    0.0589 H   0  0  0  0  0  0  0  0  0  0  0  0
    2.8538   -4.1816    0.6166 H   0  0  0  0  0  0  0  0  0  0  0  0
    0.9758   -0.5952    1.0708 N   0  0  0  0  0  0  0  0  0  0  0  0
    0.3258    0.6374    0.7059 C   0  0  2  0  0  0  0  0  0  0  0  0
    1.3991    1.5830    0.1773 C   0  0  0  0  0  0  0  0  0  0  0  0
    1.6174    2.6892    0.6670 O   0  0  0  0  0  0  0  0  0  0  0  0
   -0.4078    1.2729    1.8931 C   0  0  0  0  0  0  0  0  0  0  0  0
   -1.6061    0.4569    2.3761 C   0  0  0  0  0  0  0  0  0  0  0  0
   -2.3708    1.0240    3.5767 C   0  0  0  0  0  0  0  0  0  0  0  0
   -1.8275    2.0343    4.1093 O   0  5  0  0  0  0  0  0  0  0  0  0
   -3.4454    0.4381    3.8835 O   0  0  0  0  0  0  0  0  0  0  0  0
    1.9288   -0.5463    1.4242 H   0  0  0  0  0  0  0  0  0  0  0  0
   -0.3656    0.3984   -0.1094 H   0  0  0  0  0  0  0  0  0  0  0  0
   -0.7375    2.2861    1.6317 H   0  0  0  0  0  0  0  0  0  0  0  0
    0.2921    1.3904    2.7312 H   0  0  0  0  0  0  0  0  0  0  0  0
   -2.3068    0.2951    1.5483 H   0  0  0  0  0  0  0  0  0  0  0  0
   -1.2489   -0.5352    2.6804 H   0  0  0  0  0  0  0  0  0  0  0  0
    2.0504    1.0642   -0.9332 N   0  0  0  0  0  0  0  0  0  0  0  0
    3.0988    1.7738   -1.6289 C   0  0  2  0  0  0  0  0  0  0  0  0
    3.2568    1.1461   -3.0076 C   0  0  0  0  0  0  0  0  0  0  0  0
    2.8978   -0.0004   -3.2677 O   0  0  0  0  0  0  0  0  0  0  0  0
    4.4076    1.7242   -0.8560 C   0  0  0  0  0  0  0  0  0  0  0  0
    1.8134    0.1322   -1.2602 H   0  0  0  0  0  0  0  0  0  0  0  0
    2.7621    2.8107   -1.7355 H   0  0  0  0  0  0  0  0  0  0  0  0
    4.7607    0.6931   -0.7392 H   0  0  0  0  0  0  0  0  0  0  0  0
    5.1938    2.2865   -1.3705 H   0  0  0  0  0  0  0  0  0  0  0  0
    4.2847    2.1490    0.1461 H   0  0  0  0  0  0  0  0  0  0  0  0
    3.8848    2.0018   -3.9017 N   0  0  0  0  0  0  0  0  0  0  0  0
    4.1612    1.6332   -5.2705 C   0  0  0  0  0  0  0  0  0  0  0  0
    4.1310    2.9416   -3.6050 H   0  0  0  0  0  0  0  0  0  0  0  0
    5.1720    1.2046   -5.3384 H   0  0  0  0  0  0  0  0  0  0  0  0
    3.4241    0.8885   -5.6055 H   0  0  0  0  0  0  0  0  0  0  0  0
    4.0977    2.5256   -5.9105 H   0  0  0  0  0  0  0  0  0  0  0  0
  1  3  1  0  0  0  0
  1  7  1  0  0  0  0
  1  2  2  0  0  0  0
 33 34  1  0  0  0  0
 34 42  1  0  0  0  0
 34 35  2  0  0  0  0
  8  9  1  0  0  0  0
  9 17  1  0  0  0  0
  9 10  2  0  0  0  0
 18 19  1  0  0  0  0
 19 32  1  0  0  0  0
 19 20  2  0  0  0  0
 22 23  1  0  0  0  0
 23 24  1  0  0  0  0
 23 25  2  0  0  0  0
 33 36  1  0  0  0  0
  8 11  1  0  0  0  0
 42 43  1  0  0  0  0
 21 22  1  0  0  0  0
 18 21  1  0  0  0  0
 32 33  1  0  0  0  0
  7  8  1  0  0  0  0
 17 18  1  0  0  0  0
  3  4  1  0  0  0  0
  3  5  1  0  0  0  0
  3  6  1  0  0  0  0
 36 39  1  0  0  0  0
 36 40  1  0  0  0  0
 36 41  1  0  0  0  0
 11 14  1  0  0  0  0
 11 15  1  0  0  0  0
 11 16  1  0  0  0  0
 43 45  1  0  0  0  0
 43 46  1  0  0  0  0
 43 47  1  0  0  0  0
 22 30  1  0  0  0  0
 22 31  1  0  0  0  0
 21 28  1  0  0  0  0
 21 29  1  0  0  0  0
 33 38  1  0  0  0  0
  8 13  1  0  0  0  0
 18 27  1  0  0  0  0
 42 44  1  0  0  0  0
  7 12  1  0  0  0  0
 32 37  1  0  0  0  0
 17 26  1  0  0  0  0
M  CHG  1  24  -1
M  END
$$$$

  -OEChem-05262214473D

 47 46  0     1  0  0  0  0  0999 V2000
    0.5093   -4.7265    3.0306 C   0  0  0  0  0  0  0  0  0  0  0  0
    1.2735   -4.4402    3.9448 O   0  0  0  0  0  0  0  0  0  0  0  0
   -0.4465   -5.8608    3.1982 C   0  0  0  0  0  0  0  0  0  0  0  0
   -0.0219   -6.8213    2.8645 H   0  0  0  0  0  0  0  0  0  0  0  0
   -0.7314   -6.0185    4.2509 H   0  0  0  0  0  0  0  0  0  0  0  0
   -1.3983   -5.7596    2.6527 H   0  0  0  0  0  0  0  0  0  0  0  0
    0.4252   -4.0886    1.8040 N   0  0  0  0  0  0  0  0  0  0  0  0
    1.2532   -2.9707    1.4349 C   0  0  2  0  0  0  0  0  0  0  0  0
    0.3395   -1.8293    1.0083 C   0  0  0  0  0  0  0  0  0  0  0  0
   -0.8136   -2.0027    0.6194 O   0  0  0  0  0  0  0  0  0  0  0  0
    2.2176   -3.3411    0.3189 C   0  0  0  0  0  0  0  0  0  0  0  0
   -0.2574   -4.4279    1.1287 H   0  0  0  0  0  0  0  0  0  0  0  0
    1.8087   -2.6785    2.3327 H   0  0  0  0  0  0  0  0  0  0  0  0
    1.6793   -3.6366   -0.5890 H   0  0  0  0  0  0  0  0  0  0  0  0
    2.8662   -2.4980    0.0589 H   0  0  0  0  0  0  0  0  0  0  0  0
    2.8538   -4.1816    0.6166 H   0  0  0  0  0  0  0  0  0  0  0  0
    0.9758   -0.5952    1.0708 N   0  0  0  0  0  0  0  0  0  0  0  0
    0.3258    0.6374    0.7059 C   0  0  2  0  0  0  0  0  0  0  0  0
    1.3991    1.5830    0.1773 C   0  0  0  0  0  0  0  0  0  0  0  0
    1.8038    2.5569    0.8089 O   0  0  0  0  0  0  0  0  0  0  0  0
   -0.4078    1.2729    1.8931 C   0  0  0  0  0  0  0  0  0  0  0  0
   -1.6061    0.4569    2.3761 C   0  0  0  0  0  0  0  0  0  0  0  0
   -2.3708    1.0240    3.5767 C   0  0  0  0  0  0  0  0  0  0  0  0
   -1.8275    2.0343    4.1093 O   0  5  0  0  0  0  0  0  0  0  0  0
   -3.4454    0.4381    3.8835 O   0  0  0  0  0  0  0  0  0  0  0  0
    1.9288   -0.5463    1.4242 H   0  0  0  0  0  0  0  0  0  0  0  0
   -0.3656    0.3984   -0.1094 H   0  0  0  0  0  0  0  0  0  0  0  0
   -0.7375    2.2861    1.6317 H   0  0  0  0  0  0  0  0  0  0  0  0
    0.2921    1.3904    2.7312 H   0  0  0  0  0  0  0  0  0  0  0  0
   -2.3068    0.2951    1.5483 H   0  0  0  0  0  0  0  0  0  0  0  0
   -1.2489   -0.5352    2.6804 H   0  0  0  0  0  0  0  0  0  0  0  0
    1.8159    1.2368   -1.1006 N   0  0  0  0  0  0  0  0  0  0  0  0
    2.8147    1.9848   -1.8283 C   0  0  2  0  0  0  0  0  0  0  0  0
    2.6945    1.6198   -3.3020 C   0  0  0  0  0  0  0  0  0  0  0  0
    2.1822    0.5734   -3.6943 O   0  0  0  0  0  0  0  0  0  0  0  0
    4.2134    1.6919   -1.3081 C   0  0  0  0  0  0  0  0  0  0  0  0
    1.4358    0.4040   -1.5407 H   0  0  0  0  0  0  0  0  0  0  0  0
    2.5760    3.0454   -1.6935 H   0  0  0  0  0  0  0  0  0  0  0  0
    4.4704    0.6338   -1.4347 H   0  0  0  0  0  0  0  0  0  0  0  0
    4.9666    2.2810   -1.8416 H   0  0  0  0  0  0  0  0  0  0  0  0
    4.2896    1.9270   -0.2410 H   0  0  0  0  0  0  0  0  0  0  0  0
    3.2652    2.5799   -4.1257 N   0  0  0  0  0  0  0  0  0  0  0  0
    3.2900    2.4577   -5.5646 C   0  0  0  0  0  0  0  0  0  0  0  0
    3.6506    3.4253   -3.7152 H   0  0  0  0  0  0  0  0  0  0  0  0
    4.2283    1.9753   -5.8761 H   0  0  0  0  0  0  0  0  0  0  0  0
    2.4367    1.8473   -5.8954 H   0  0  0  0  0  0  0  0  0  0  0  0
    3.2235    3.4574   -6.0186 H   0  0  0  0  0  0  0  0  0  0  0  0
  1  3  1  0  0  0  0
  1  7  1  0  0  0  0
  1  2  2  0  0  0  0
 33 34  1  0  0  0  0
 34 42  1  0  0  0  0
 34 35  2  0  0  0  0
  8  9  1  0  0  0  0
  9 17  1  0  0  0  0
  9 10  2  0  0  0  0
 18 19  1  0  0  0  0
 19 32  1  0  0  0  0
 19 20  2  0  0  0  0
 22 23  1  0  0  0  0
 23 24  1  0  0  0  0
 23 25  2  0  0  0  0
 33 36  1  0  0  0  0
  8 11  1  0  0  0  0
 42 43  1  0  0  0  0
 21 22  1  0  0  0  0
 18 21  1  0  0  0  0
 32 33  1  0  0  0  0
  7  8  1  0  0  0  0
 17 18  1  0  0  0  0
  3  4  1  0  0  0  0
  3  5  1  0  0  0  0
  3  6  1  0  0  0  0
 36 39  1  0  0  0  0
 36 40  1  0  0  0  0
 36 41  1  0  0  0  0
 11 14  1  0  0  0  0
 11 15  1  0  0  0  0
 11 16  1  0  0  0  0
 43 45  1  0  0  0  0
 43 46  1  0  0  0  0
 43 47  1  0  0  0  0
 22 30  1  0  0  0  0
 22 31  1  0  0  0  0
 21 28  1  0  0  0  0
 21 29  1  0  0  0  0
 33 38  1  0  0  0  0
  8 13  1  0  0  0  0
 18 27  1  0  0  0  0
 42 44  1  0  0  0  0
  7 12  1  0  0  0  0
 32 37  1  0  0  0  0
 17 26  1  0  0  0  0
M  CHG  1  24  -1
M  END
$$$$

  -OEChem-05262214473D

 47 46  0     1  0  0  0  0  0999 V2000
    0.5093   -4.7265    3.0306 C   0  0  0  0  0  0  0  0  0  0  0  0
    1.2735   -4.4402    3.9448 O   0  0  0  0  0  0  0  0  0  0  0  0
   -0.4465   -5.8608    3.1982 C   0  0  0  0  0  0  0  0  0  0  0  0
   -0.0219   -6.8213    2.8645 H   0  0  0  0  0  0  0  0  0  0  0  0
   -0.7314   -6.0185    4.2509 H   0  0  0  0  0  0  0  0  0  0  0  0
   -1.3983   -5.7596    2.6527 H   0  0  0  0  0  0  0  0  0  0  0  0
    0.4252   -4.0886    1.8040 N   0  0  0  0  0  0  0  0  0  0  0  0
    1.2532   -2.9707    1.4349 C   0  0  2  0  0  0  0  0  0  0  0  0
    0.3395   -1.8293    1.0083 C   0  0  0  0  0  0  0  0  0  0  0  0
   -0.8136   -2.0027    0.6194 O   0  0  0  0  0  0  0  0  0  0  0  0
    2.2176   -3.3411    0.3189 C   0  0  0  0  0  0  0  0  0  0  0  0
   -0.2574   -4.4279    1.1287 H   0  0  0  0  0  0  0  0  0  0  0  0
    1.8087   -2.6785    2.3327 H   0  0  0  0  0  0  0  0  0  0  0  0
    1.6793   -3.6366   -0.5890 H   0  0  0  0  0  0  0  0  0  0  0  0
    2.8662   -2.4980    0.0589 H   0  0  0  0  0  0  0  0  0  0  0  0
    2.8538   -4.1816    0.6166 H   0  0  0  0  0  0  0  0  0  0  0  0
    0.9758   -0.5952    1.0708 N   0  0  0  0  0  0  0  0  0  0  0  0
    0.3258    0.6374    0.7059 C   0  0  2  0  0  0  0  0  0  0  0  0
    1.3991    1.5830    0.1773 C   0  0  0  0  0  0  0  0  0  0  0  0
    1.9949    2.3865    0.8919 O   0  0  0  0  0  0  0  0  0  0  0  0
   -0.4078    1.2729    1.8931 C   0  0  0  0  0  0  0  0  0  0  0  0
   -1.6061    0.4569    2.3761 C   0  0  0  0  0  0  0  0  0  0  0  0
   -2.3708    1.0240    3.5767 C   0  0  0  0  0  0  0  0  0  0  0  0
   -1.8275    2.0343    4.1093 O   0  5  0  0  0  0  0  0  0  0  0  0
   -3.4454    0.4381    3.8835 O   0  0  0  0  0  0  0  0  0  0  0  0
    1.9288   -0.5463    1.4242 H   0  0  0  0  0  0  0  0  0  0  0  0
   -0.3656    0.3984   -0.1094 H   0  0  0  0  0  0  0  0  0  0  0  0
   -0.7375    2.2861    1.6317 H   0  0  0  0  0  0  0  0  0  0  0  0
    0.2921    1.3904    2.7312 H   0  0  0  0  0  0  0  0  0  0  0  0
   -2.3068    0.2951    1.5483 H   0  0  0  0  0  0  0  0  0  0  0  0
   -1.2489   -0.5352    2.6804 H   0  0  0  0  0  0  0  0  0  0  0  0
    1.5781    1.4550   -1.1931 N   0  0  0  0  0  0  0  0  0  0  0  0
    2.5272    2.2504   -1.9369 C   0  0  2  0  0  0  0  0  0  0  0  0
    2.1466    2.1813   -3.4099 C   0  0  0  0  0  0  0  0  0  0  0  0
    1.4741    1.2696   -3.8869 O   0  0  0  0  0  0  0  0  0  0  0  0
    3.9504    1.7604   -1.7196 C   0  0  0  0  0  0  0  0  0  0  0  0
    1.0505    0.7515   -1.7015 H   0  0  0  0  0  0  0  0  0  0  0  0
    2.4241    3.2811   -1.5804 H   0  0  0  0  0  0  0  0  0  0  0  0
    4.0730    0.7293   -2.0707 H   0  0  0  0  0  0  0  0  0  0  0  0
    4.6711    2.3819   -2.2612 H   0  0  0  0  0  0  0  0  0  0  0  0
    4.2122    1.7827   -0.6562 H   0  0  0  0  0  0  0  0  0  0  0  0
    2.6826    3.2347   -4.1374 N   0  0  0  0  0  0  0  0  0  0  0  0
    2.4752    3.3858   -5.5587 C   0  0  0  0  0  0  0  0  0  0  0  0
    3.2123    3.9557   -3.6564 H   0  0  0  0  0  0  0  0  0  0  0  0
    3.2995    2.9024   -6.1035 H   0  0  0  0  0  0  0  0  0  0  0  0
    1.5225    2.9148   -5.8423 H   0  0  0  0  0  0  0  0  0  0  0  0
    2.4454    4.4556   -5.8131 H   0  0  0  0  0  0  0  0  0  0  0  0
  1  3  1  0  0  0  0
  1  7  1  0  0  0  0
  1  2  2  0  0  0  0
 33 34  1  0  0  0  0
 34 42  1  0  0  0  0
 34 35  2  0  0  0  0
  8  9  1  0  0  0  0
  9 17  1  0  0  0  0
  9 10  2  0  0  0  0
 18 19  1  0  0  0  0
 19 32  1  0  0  0  0
 19 20  2  0  0  0  0
 22 23  1  0  0  0  0
 23 24  1  0  0  0  0
 23 25  2  0  0  0  0
 33 36  1  0  0  0  0
  8 11  1  0  0  0  0
 42 43  1  0  0  0  0
 21 22  1  0  0  0  0
 18 21  1  0  0  0  0
 32 33  1  0  0  0  0
  7  8  1  0  0  0  0
 17 18  1  0  0  0  0
  3  4  1  0  0  0  0
  3  5  1  0  0  0  0
  3  6  1  0  0  0  0
 36 39  1  0  0  0  0
 36 40  1  0  0  0  0
 36 41  1  0  0  0  0
 11 14  1  0  0  0  0
 11 15  1  0  0  0  0
 11 16  1  0  0  0  0
 43 45  1  0  0  0  0
 43 46  1  0  0  0  0
 43 47  1  0  0  0  0
 22 30  1  0  0  0  0
 22 31  1  0  0  0  0
 21 28  1  0  0  0  0
 21 29  1  0  0  0  0
 33 38  1  0  0  0  0
  8 13  1  0  0  0  0
 18 27  1  0  0  0  0
 42 44  1  0  0  0  0
  7 12  1  0  0  0  0
 32 37  1  0  0  0  0
 17 26  1  0  0  0  0
M  CHG  1  24  -1
M  END
$$$$

  -OEChem-05262214473D

 47 46  0     1  0  0  0  0  0999 V2000
    0.5093   -4.7265    3.0306 C   0  0  0  0  0  0  0  0  0  0  0  0
    1.2735   -4.4402    3.9448 O   0  0  0  0  0  0  0  0  0  0  0  0
   -0.4465   -5.8608    3.1982 C   0  0  0  0  0  0  0  0  0  0  0  0
   -0.0219   -6.8213    2.8645 H   0  0  0  0  0  0  0  0  0  0  0  0
   -0.7314   -6.0185    4.2509 H   0  0  0  0  0  0  0  0  0  0  0  0
   -1.3983   -5.7596    2.6527 H   0  0  0  0  0  0  0  0  0  0  0  0
    0.4252   -4.0886    1.8040 N   0  0  0  0  0  0  0  0  0  0  0  0
    1.2532   -2.9707    1.4349 C   0  0  2  0  0  0  0  0  0  0  0  0
    0.3395   -1.8293    1.0083 C   0  0  0  0  0  0  0  0  0  0  0  0
   -0.8136   -2.0027    0.6194 O   0  0  0  0  0  0  0  0  0  0  0  0
    2.2176   -3.3411    0.3189 C   0  0  0  0  0  0  0  0  0  0  0  0
   -0.2574   -4.4279    1.1287 H   0  0  0  0  0  0  0  0  0  0  0  0
    1.8087   -2.6785    2.3327 H   0  0  0  0  0  0  0  0  0  0  0  0
    1.6793   -3.6366   -0.5890 H   0  0  0  0  0  0  0  0  0  0  0  0
    2.8662   -2.4980    0.0589 H   0  0  0  0  0  0  0  0  0  0  0  0
    2.8538   -4.1816    0.6166 H   0  0  0  0  0  0  0  0  0  0  0  0
    0.9758   -0.5952    1.0708 N   0  0  0  0  0  0  0  0  0  0  0  0
    0.3258    0.6374    0.7059 C   0  0  2  0  0  0  0  0  0  0  0  0
    1.3991    1.5830    0.1773 C   0  0  0  0  0  0  0  0  0  0  0  0
    2.1774    2.1896    0.9104 O   0  0  0  0  0  0  0  0  0  0  0  0
   -0.4078    1.2729    1.8931 C   0  0  0  0  0  0  0  0  0  0  0  0
   -1.6061    0.4569    2.3761 C   0  0  0  0  0  0  0  0  0  0  0  0
   -2.3708    1.0240    3.5767 C   0  0  0  0  0  0  0  0  0  0  0  0
   -1.8275    2.0343    4.1093 O   0  5  0  0  0  0  0  0  0  0  0  0
   -3.4454    0.4381    3.8835 O   0  0  0  0  0  0  0  0  0  0  0  0
    1.9288   -0.5463    1.4242 H   0  0  0  0  0  0  0  0  0  0  0  0
   -0.3656    0.3984   -0.1094 H   0  0  0  0  0  0  0  0  0  0  0  0
   -0.7375    2.2861    1.6317 H   0  0  0  0  0  0  0  0  0  0  0  0
    0.2921    1.3904    2.7312 H   0  0  0  0  0  0  0  0  0  0  0  0
   -2.3068    0.2951    1.5483 H   0  0  0  0  0  0  0  0  0  0  0  0
   -1.2489   -0.5352    2.6804 H   0  0  0  0  0  0  0  0  0  0  0  0
    1.3531    1.7039   -1.2046 N   0  0  0  0  0  0  0  0  0  0  0  0
    2.2559    2.5526   -1.9472 C   0  0  2  0  0  0  0  0  0  0  0  0
    1.6505    2.7925   -3.3239 C   0  0  0  0  0  0  0  0  0  0  0  0
    0.8216    2.0407   -3.8325 O   0  0  0  0  0  0  0  0  0  0  0  0
    3.6364    1.9252   -2.0624 C   0  0  0  0  0  0  0  0  0  0  0  0
    0.6836    1.1511   -1.7317 H   0  0  0  0  0  0  0  0  0  0  0  0
    2.3166    3.5019   -1.4038 H   0  0  0  0  0  0  0  0  0  0  0  0
    3.5957    0.9731   -2.6039 H   0  0  0  0  0  0  0  0  0  0  0  0
    4.3273    2.5823   -2.6007 H   0  0  0  0  0  0  0  0  0  0  0  0
    4.0579    1.7259   -1.0711 H   0  0  0  0  0  0  0  0  0  0  0  0
    2.1768    3.9216   -3.9359 N   0  0  0  0  0  0  0  0  0  0  0  0
    1.7724    4.3544   -5.2532 C   0  0  0  0  0  0  0  0  0  0  0  0
    2.8459    4.4967   -3.4327 H   0  0  0  0  0  0  0  0  0  0  0  0
    2.4491    3.9226   -6.0053 H   0  0  0  0  0  0  0  0  0  0  0  0
    0.7437    4.0182   -5.4498 H   0  0  0  0  0  0  0  0  0  0  0  0
    1.8163    5.4521   -5.3079 H   0  0  0  0  0  0  0  0  0  0  0  0
  1  3  1  0  0  0  0
  1  7  1  0  0  0  0
  1  2  2  0  0  0  0
 33 34  1  0  0  0  0
 34 42  1  0  0  0  0
 34 35  2  0  0  0  0
  8  9  1  0  0  0  0
  9 17  1  0  0  0  0
  9 10  2  0  0  0  0
 18 19  1  0  0  0  0
 19 32  1  0  0  0  0
 19 20  2  0  0  0  0
 22 23  1  0  0  0  0
 23 24  1  0  0  0  0
 23 25  2  0  0  0  0
 33 36  1  0  0  0  0
  8 11  1  0  0  0  0
 42 43  1  0  0  0  0
 21 22  1  0  0  0  0
 18 21  1  0  0  0  0
 32 33  1  0  0  0  0
  7  8  1  0  0  0  0
 17 18  1  0  0  0  0
  3  4  1  0  0  0  0
  3  5  1  0  0  0  0
  3  6  1  0  0  0  0
 36 39  1  0  0  0  0
 36 40  1  0  0  0  0
 36 41  1  0  0  0  0
 11 14  1  0  0  0  0
 11 15  1  0  0  0  0
 11 16  1  0  0  0  0
 43 45  1  0  0  0  0
 43 46  1  0  0  0  0
 43 47  1  0  0  0  0
 22 30  1  0  0  0  0
 22 31  1  0  0  0  0
 21 28  1  0  0  0  0
 21 29  1  0  0  0  0
 33 38  1  0  0  0  0
  8 13  1  0  0  0  0
 18 27  1  0  0  0  0
 42 44  1  0  0  0  0
  7 12  1  0  0  0  0
 32 37  1  0  0  0  0
 17 26  1  0  0  0  0
M  CHG  1  24  -1
M  END
$$$$

  -OEChem-05262214473D

 47 46  0     1  0  0  0  0  0999 V2000
    0.5093   -4.7265    3.0306 C   0  0  0  0  0  0  0  0  0  0  0  0
    1.2735   -4.4402    3.9448 O   0  0  0  0  0  0  0  0  0  0  0  0
   -0.4465   -5.8608    3.1982 C   0  0  0  0  0  0  0  0  0  0  0  0
   -0.0219   -6.8213    2.8645 H   0  0  0  0  0  0  0  0  0  0  0  0
   -0.7314   -6.0185    4.2509 H   0  0  0  0  0  0  0  0  0  0  0  0
   -1.3983   -5.7596    2.6527 H   0  0  0  0  0  0  0  0  0  0  0  0
    0.4252   -4.0886    1.8040 N   0  0  0  0  0  0  0  0  0  0  0  0
    1.2532   -2.9707    1.4349 C   0  0  2  0  0  0  0  0  0  0  0  0
    0.3395   -1.8293    1.0083 C   0  0  0  0  0  0  0  0  0  0  0  0
   -0.8136   -2.0027    0.6194 O   0  0  0  0  0  0  0  0  0  0  0  0
    2.2176   -3.3411    0.3189 C   0  0  0  0  0  0  0  0  0  0  0  0
   -0.2574   -4.4279    1.1287 H   0  0  0  0  0  0  0  0  0  0  0  0
    1.8087   -2.6785    2.3327 H   0  0  0  0  0  0  0  0  0  0  0  0
    1.6793   -3.6366   -0.5890 H   0  0  0  0  0  0  0  0  0  0  0  0
    2.8662   -2.4980    0.0589 H   0  0  0  0  0  0  0  0  0  0  0  0
    2.8538   -4.1816    0.6166 H   0  0  0  0  0  0  0  0  0  0  0  0
    0.9758   -0.5952    1.0708 N   0  0  0  0  0  0  0  0  0  0  0  0
    0.3258    0.6374    0.7059 C   0  0  2  0  0  0  0  0  0  0  0  0
    1.3991    1.5830    0.1773 C   0  0  0  0  0  0  0  0  0  0  0  0
    2.3390    1.9797    0.8632 O   0  0  0  0  0  0  0  0  0  0  0  0
   -0.4078    1.2729    1.8931 C   0  0  0  0  0  0  0  0  0  0  0  0
   -1.6061    0.4569    2.3761 C   0  0  0  0  0  0  0  0  0  0  0  0
   -2.3708    1.0240    3.5767 C   0  0  0  0  0  0  0  0  0  0  0  0
   -1.8275    2.0343    4.1093 O   0  5  0  0  0  0  0  0  0  0  0  0
   -3.4454    0.4381    3.8835 O   0  0  0  0  0  0  0  0  0  0  0  0
    1.9288   -0.5463    1.4242 H   0  0  0  0  0  0  0  0  0  0  0  0
   -0.3656    0.3984   -0.1094 H   0  0  0  0  0  0  0  0  0  0  0  0
   -0.7375    2.2861    1.6317 H   0  0  0  0  0  0  0  0  0  0  0  0
    0.2921    1.3904    2.7312 H   0  0  0  0  0  0  0  0  0  0  0  0
   -2.3068    0.2951    1.5483 H   0  0  0  0  0  0  0  0  0  0  0  0
   -1.2489   -0.5352    2.6804 H   0  0  0  0  0  0  0  0  0  0  0  0
    1.1563    1.9667   -1.1343 N   0  0  0  0  0  0  0  0  0  0  0  0
    2.0193    2.8707   -1.8586 C   0  0  2  0  0  0  0  0  0  0  0  0
    1.2399    3.4118   -3.0499 C   0  0  0  0  0  0  0  0  0  0  0  0
    0.2692    2.8341   -3.5348 O   0  0  0  0  0  0  0  0  0  0  0  0
    3.2930    2.1749   -2.3130 C   0  0  0  0  0  0  0  0  0  0  0  0
    0.3603    1.5754   -1.6292 H   0  0  0  0  0  0  0  0  0  0  0  0
    2.2609    3.6925   -1.1758 H   0  0  0  0  0  0  0  0  0  0  0  0
    3.0709    1.3484   -2.9980 H   0  0  0  0  0  0  0  0  0  0  0  0
    3.9588    2.8686   -2.8370 H   0  0  0  0  0  0  0  0  0  0  0  0
    3.8371    1.7605   -1.4575 H   0  0  0  0  0  0  0  0  0  0  0  0
    1.7821    4.5937   -3.5350 N   0  0  0  0  0  0  0  0  0  0  0  0
    1.2295    5.2973   -4.6689 C   0  0  0  0  0  0  0  0  0  0  0  0
    2.5764    5.0113   -3.0592 H   0  0  0  0  0  0  0  0  0  0  0  0
    1.7350    4.9665   -5.5882 H   0  0  0  0  0  0  0  0  0  0  0  0
    0.1534    5.0825   -4.7446 H   0  0  0  0  0  0  0  0  0  0  0  0
    1.3791    6.3791   -4.5374 H   0  0  0  0  0  0  0  0  0  0  0  0
  1  3  1  0  0  0  0
  1  7  1  0  0  0  0
  1  2  2  0  0  0  0
 33 34  1  0  0  0  0
 34 42  1  0  0  0  0
 34 35  2  0  0  0  0
  8  9  1  0  0  0  0
  9 17  1  0  0  0  0
  9 10  2  0  0  0  0
 18 19  1  0  0  0  0
 19 32  1  0  0  0  0
 19 20  2  0  0  0  0
 22 23  1  0  0  0  0
 23 24  1  0  0  0  0
 23 25  2  0  0  0  0
 33 36  1  0  0  0  0
  8 11  1  0  0  0  0
 42 43  1  0  0  0  0
 21 22  1  0  0  0  0
 18 21  1  0  0  0  0
 32 33  1  0  0  0  0
  7  8  1  0  0  0  0
 17 18  1  0  0  0  0
  3  4  1  0  0  0  0
  3  5  1  0  0  0  0
  3  6  1  0  0  0  0
 36 39  1  0  0  0  0
 36 40  1  0  0  0  0
 36 41  1  0  0  0  0
 11 14  1  0  0  0  0
 11 15  1  0  0  0  0
 11 16  1  0  0  0  0
 43 45  1  0  0  0  0
 43 46  1  0  0  0  0
 43 47  1  0  0  0  0
 22 30  1  0  0  0  0
 22 31  1  0  0  0  0
 21 28  1  0  0  0  0
 21 29  1  0  0  0  0
 33 38  1  0  0  0  0
  8 13  1  0  0  0  0
 18 27  1  0  0  0  0
 42 44  1  0  0  0  0
  7 12  1  0  0  0  0
 32 37  1  0  0  0  0
 17 26  1  0  0  0  0
M  CHG  1  24  -1
M  END
$$$$

  -OEChem-05262214473D

 47 46  0     1  0  0  0  0  0999 V2000
    0.5093   -4.7265    3.0306 C   0  0  0  0  0  0  0  0  0  0  0  0
    1.2735   -4.4402    3.9448 O   0  0  0  0  0  0  0  0  0  0  0  0
   -0.4465   -5.8608    3.1982 C   0  0  0  0  0  0  0  0  0  0  0  0
   -0.0219   -6.8213    2.8645 H   0  0  0  0  0  0  0  0  0  0  0  0
   -0.7314   -6.0185    4.2509 H   0  0  0  0  0  0  0  0  0  0  0  0
   -1.3983   -5.7596    2.6527 H   0  0  0  0  0  0  0  0  0  0  0  0
    0.4252   -4.0886    1.8040 N   0  0  0  0  0  0  0  0  0  0  0  0
    1.2532   -2.9707    1.4349 C   0  0  2  0  0  0  0  0  0  0  0  0
    0.3395   -1.8293    1.0083 C   0  0  0  0  0  0  0  0  0  0  0  0
   -0.8136   -2.0027    0.6194 O   0  0  0  0  0  0  0  0  0  0  0  0
    2.2176   -3.3411    0.3189 C   0  0  0  0  0  0  0  0  0  0  0  0
   -0.2574   -4.4279    1.1287 H   0  0  0  0  0  0  0  0  0  0  0  0
    1.8087   -2.6785    2.3327 H   0  0  0  0  0  0  0  0  0  0  0  0
    1.6793   -3.6366   -0.5890 H   0  0  0  0  0  0  0  0  0  0  0  0
    2.8662   -2.4980    0.0589 H   0  0  0  0  0  0  0  0  0  0  0  0
    2.8538   -4.1816    0.6166 H   0  0  0  0  0  0  0  0  0  0  0  0
    0.9758   -0.5952    1.0708 N   0  0  0  0  0  0  0  0  0  0  0  0
    0.3258    0.6374    0.7059 C   0  0  2  0  0  0  0  0  0  0  0  0
    1.3991    1.5830    0.1773 C   0  0  0  0  0  0  0  0  0  0  0  0
    2.4687    1.7711    0.7533 O   0  0  0  0  0  0  0  0  0  0  0  0
   -0.4078    1.2729    1.8931 C   0  0  0  0  0  0  0  0  0  0  0  0
   -1.6061    0.4569    2.3761 C   0  0  0  0  0  0  0  0  0  0  0  0
   -2.3708    1.0240    3.5767 C   0  0  0  0  0  0  0  0  0  0  0  0
   -1.8275    2.0343    4.1093 O   0  5  0  0  0  0  0  0  0  0  0  0
   -3.4454    0.4381    3.8835 O   0  0  0  0  0  0  0  0  0  0  0  0
    1.9288   -0.5463    1.4242 H   0  0  0  0  0  0  0  0  0  0  0  0
   -0.3656    0.3984   -0.1094 H   0  0  0  0  0  0  0  0  0  0  0  0
   -0.7375    2.2861    1.6317 H   0  0  0  0  0  0  0  0  0  0  0  0
    0.2921    1.3904    2.7312 H   0  0  0  0  0  0  0  0  0  0  0  0
   -2.3068    0.2951    1.5483 H   0  0  0  0  0  0  0  0  0  0  0  0
   -1.2489   -0.5352    2.6804 H   0  0  0  0  0  0  0  0  0  0  0  0
    1.0010    2.2253   -0.9869 N   0  0  0  0  0  0  0  0  0  0  0  0
    1.8336    3.1831   -1.6771 C   0  0  2  0  0  0  0  0  0  0  0  0
    0.9429    3.9969   -2.6065 C   0  0  0  0  0  0  0  0  0  0  0  0
   -0.1453    3.5958   -3.0140 O   0  0  0  0  0  0  0  0  0  0  0  0
    2.9434    2.4926   -2.4545 C   0  0  0  0  0  0  0  0  0  0  0  0
    0.1025    1.9956   -1.4010 H   0  0  0  0  0  0  0  0  0  0  0  0
    2.2609    3.8402   -0.9118 H   0  0  0  0  0  0  0  0  0  0  0  0
    2.5345    1.8299   -3.2260 H   0  0  0  0  0  0  0  0  0  0  0  0
    3.5905    3.2212   -2.9539 H   0  0  0  0  0  0  0  0  0  0  0  0
    3.5650    1.8840   -1.7890 H   0  0  0  0  0  0  0  0  0  0  0  0
    1.5255    5.2053   -2.9619 N   0  0  0  0  0  0  0  0  0  0  0  0
    0.8835    6.1504   -3.8455 C   0  0  0  0  0  0  0  0  0  0  0  0
    2.4223    5.4646   -2.5615 H   0  0  0  0  0  0  0  0  0  0  0  0
    1.2058    5.9628   -4.8804 H   0  0  0  0  0  0  0  0  0  0  0  0
   -0.2081    6.0350   -3.7750 H   0  0  0  0  0  0  0  0  0  0  0  0
    1.1637    7.1734   -3.5541 H   0  0  0  0  0  0  0  0  0  0  0  0
  1  3  1  0  0  0  0
  1  7  1  0  0  0  0
  1  2  2  0  0  0  0
 33 34  1  0  0  0  0
 34 42  1  0  0  0  0
 34 35  2  0  0  0  0
  8  9  1  0  0  0  0
  9 17  1  0  0  0  0
  9 10  2  0  0  0  0
 18 19  1  0  0  0  0
 19 32  1  0  0  0  0
 19 20  2  0  0  0  0
 22 23  1  0  0  0  0
 23 24  1  0  0  0  0
 23 25  2  0  0  0  0
 33 36  1  0  0  0  0
  8 11  1  0  0  0  0
 42 43  1  0  0  0  0
 21 22  1  0  0  0  0
 18 21  1  0  0  0  0
 32 33  1  0  0  0  0
  7  8  1  0  0  0  0
 17 18  1  0  0  0  0
  3  4  1  0  0  0  0
  3  5  1  0  0  0  0
  3  6  1  0  0  0  0
 36 39  1  0  0  0  0
 36 40  1  0  0  0  0
 36 41  1  0  0  0  0
 11 14  1  0  0  0  0
 11 15  1  0  0  0  0
 11 16  1  0  0  0  0
 43 45  1  0  0  0  0
 43 46  1  0  0  0  0
 43 47  1  0  0  0  0
 22 30  1  0  0  0  0
 22 31  1  0  0  0  0
 21 28  1  0  0  0  0
 21 29  1  0  0  0  0
 33 38  1  0  0  0  0
  8 13  1  0  0  0  0
 18 27  1  0  0  0  0
 42 44  1  0  0  0  0
  7 12  1  0  0  0  0
 32 37  1  0  0  0  0
 17 26  1  0  0  0  0
M  CHG  1  24  -1
M  END
$$$$

  -OEChem-05262214473D

 47 46  0     1  0  0  0  0  0999 V2000
    0.5093   -4.7265    3.0306 C   0  0  0  0  0  0  0  0  0  0  0  0
    1.2735   -4.4402    3.9448 O   0  0  0  0  0  0  0  0  0  0  0  0
   -0.4465   -5.8608    3.1982 C   0  0  0  0  0  0  0  0  0  0  0  0
   -0.0219   -6.8213    2.8645 H   0  0  0  0  0  0  0  0  0  0  0  0
   -0.7314   -6.0185    4.2509 H   0  0  0  0  0  0  0  0  0  0  0  0
   -1.3983   -5.7596    2.6527 H   0  0  0  0  0  0  0  0  0  0  0  0
    0.4252   -4.0886    1.8040 N   0  0  0  0  0  0  0  0  0  0  0  0
    1.2532   -2.9707    1.4349 C   0  0  2  0  0  0  0  0  0  0  0  0
    0.3395   -1.8293    1.0083 C   0  0  0  0  0  0  0  0  0  0  0  0
   -0.8136   -2.0027    0.6194 O   0  0  0  0  0  0  0  0  0  0  0  0
    2.2176   -3.3411    0.3189 C   0  0  0  0  0  0  0  0  0  0  0  0
   -0.2574   -4.4279    1.1287 H   0  0  0  0  0  0  0  0  0  0  0  0
    1.8087   -2.6785    2.3327 H   0  0  0  0  0  0  0  0  0  0  0  0
    1.6793   -3.6366   -0.5890 H   0  0  0  0  0  0  0  0  0  0  0  0
    2.8662   -2.4980    0.0589 H   0  0  0  0  0  0  0  0  0  0  0  0
    2.8538   -4.1816    0.6166 H   0  0  0  0  0  0  0  0  0  0  0  0
    0.9758   -0.5952    1.0708 N   0  0  0  0  0  0  0  0  0  0  0  0
    0.3258    0.6374    0.7059 C   0  0  2  0  0  0  0  0  0  0  0  0
    1.3991    1.5830    0.1773 C   0  0  0  0  0  0  0  0  0  0  0  0
    2.5577    1.5779    0.5884 O   0  0  0  0  0  0  0  0  0  0  0  0
   -0.4078    1.2729    1.8931 C   0  0  0  0  0  0  0  0  0  0  0  0
   -1.6061    0.4569    2.3761 C   0  0  0  0  0  0  0  0  0  0  0  0
   -2.3708    1.0240    3.5767 C   0  0  0  0  0  0  0  0  0  0  0  0
   -1.8275    2.0343    4.1093 O   0  5  0  0  0  0  0  0  0  0  0  0
   -3.4454    0.4381    3.8835 O   0  0  0  0  0  0  0  0  0  0  0  0
    1.9288   -0.5463    1.4242 H   0  0  0  0  0  0  0  0  0  0  0  0
   -0.3656    0.3984   -0.1094 H   0  0  0  0  0  0  0  0  0  0  0  0
   -0.7375    2.2861    1.6317 H   0  0  0  0  0  0  0  0  0  0  0  0
    0.2921    1.3904    2.7312 H   0  0  0  0  0  0  0  0  0  0  0  0
   -2.3068    0.2951    1.5483 H   0  0  0  0  0  0  0  0  0  0  0  0
   -1.2489   -0.5352    2.6804 H   0  0  0  0  0  0  0  0  0  0  0  0
    0.8979    2.4623   -0.7725 N   0  0  0  0  0  0  0  0  0  0  0  0
    1.7113    3.4684   -1.4151 C   0  0  2  0  0  0  0  0  0  0  0  0
    0.7796    4.5079   -2.0240 C   0  0  0  0  0  0  0  0  0  0  0  0
   -0.3939    4.2739   -2.3057 O   0  0  0  0  0  0  0  0  0  0  0  0
    2.6115    2.8567   -2.4772 C   0  0  0  0  0  0  0  0  0  0  0  0
   -0.0722    2.3831   -1.0627 H   0  0  0  0  0  0  0  0  0  0  0  0
    2.3164    3.9347   -0.6300 H   0  0  0  0  0  0  0  0  0  0  0  0
    2.0229    2.3846   -3.2724 H   0  0  0  0  0  0  0  0  0  0  0  0
    3.2477    3.6162   -2.9435 H   0  0  0  0  0  0  0  0  0  0  0  0
    3.2601    2.0882   -2.0430 H   0  0  0  0  0  0  0  0  0  0  0  0
    1.4245    5.7147   -2.2558 N   0  0  0  0  0  0  0  0  0  0  0  0
    0.7579    6.8554   -2.8393 C   0  0  0  0  0  0  0  0  0  0  0  0
    2.3939    5.8256   -1.9734 H   0  0  0  0  0  0  0  0  0  0  0  0
    0.8975    6.8438   -3.9304 H   0  0  0  0  0  0  0  0  0  0  0  0
   -0.3163    6.8108   -2.6068 H   0  0  0  0  0  0  0  0  0  0  0  0
    1.1846    7.7808   -2.4250 H   0  0  0  0  0  0  0  0  0  0  0  0
  1  3  1  0  0  0  0
  1  7  1  0  0  0  0
  1  2  2  0  0  0  0
 33 34  1  0  0  0  0
 34 42  1  0  0  0  0
 34 35  2  0  0  0  0
  8  9  1  0  0  0  0
  9 17  1  0  0  0  0
  9 10  2  0  0  0  0
 18 19  1  0  0  0  0
 19 32  1  0  0  0  0
 19 20  2  0  0  0  0
 22 23  1  0  0  0  0
 23 24  1  0  0  0  0
 23 25  2  0  0  0  0
 33 36  1  0  0  0  0
  8 11  1  0  0  0  0
 42 43  1  0  0  0  0
 21 22  1  0  0  0  0
 18 21  1  0  0  0  0
 32 33  1  0  0  0  0
  7  8  1  0  0  0  0
 17 18  1  0  0  0  0
  3  4  1  0  0  0  0
  3  5  1  0  0  0  0
  3  6  1  0  0  0  0
 36 39  1  0  0  0  0
 36 40  1  0  0  0  0
 36 41  1  0  0  0  0
 11 14  1  0  0  0  0
 11 15  1  0  0  0  0
 11 16  1  0  0  0  0
 43 45  1  0  0  0  0
 43 46  1  0  0  0  0
 43 47  1  0  0  0  0
 22 30  1  0  0  0  0
 22 31  1  0  0  0  0
 21 28  1  0  0  0  0
 21 29  1  0  0  0  0
 33 38  1  0  0  0  0
  8 13  1  0  0  0  0
 18 27  1  0  0  0  0
 42 44  1  0  0  0  0
  7 12  1  0  0  0  0
 32 37  1  0  0  0  0
 17 26  1  0  0  0  0
M  CHG  1  24  -1
M  END
$$$$

  -OEChem-05262214473D

 47 46  0     1  0  0  0  0  0999 V2000
    0.5093   -4.7265    3.0306 C   0  0  0  0  0  0  0  0  0  0  0  0
    1.2735   -4.4402    3.9448 O   0  0  0  0  0  0  0  0  0  0  0  0
   -0.4465   -5.8608    3.1982 C   0  0  0  0  0  0  0  0  0  0  0  0
   -0.0219   -6.8213    2.8645 H   0  0  0  0  0  0  0  0  0  0  0  0
   -0.7314   -6.0185    4.2509 H   0  0  0  0  0  0  0  0  0  0  0  0
   -1.3983   -5.7596    2.6527 H   0  0  0  0  0  0  0  0  0  0  0  0
    0.4252   -4.0886    1.8040 N   0  0  0  0  0  0  0  0  0  0  0  0
    1.2532   -2.9707    1.4349 C   0  0  2  0  0  0  0  0  0  0  0  0
    0.3395   -1.8293    1.0083 C   0  0  0  0  0  0  0  0  0  0  0  0
   -0.8136   -2.0027    0.6194 O   0  0  0  0  0  0  0  0  0  0  0  0
    2.2176   -3.3411    0.3189 C   0  0  0  0  0  0  0  0  0  0  0  0
   -0.2574   -4.4279    1.1287 H   0  0  0  0  0  0  0  0  0  0  0  0
    1.8087   -2.6785    2.3327 H   0  0  0  0  0  0  0  0  0  0  0  0
    1.6793   -3.6366   -0.5890 H   0  0  0  0  0  0  0  0  0  0  0  0
    2.8662   -2.4980    0.0589 H   0  0  0  0  0  0  0  0  0  0  0  0
    2.8538   -4.1816    0.6166 H   0  0  0  0  0  0  0  0  0  0  0  0
    0.9758   -0.5952    1.0708 N   0  0  0  0  0  0  0  0  0  0  0  0
    0.3258    0.6374    0.7059 C   0  0  2  0  0  0  0  0  0  0  0  0
    1.3991    1.5830    0.1773 C   0  0  0  0  0  0  0  0  0  0  0  0
    2.5998    1.4134    0.3796 O   0  0  0  0  0  0  0  0  0  0  0  0
   -0.4078    1.2729    1.8931 C   0  0  0  0  0  0  0  0  0  0  0  0
   -1.6061    0.4569    2.3761 C   0  0  0  0  0  0  0  0  0  0  0  0
   -2.3708    1.0240    3.5767 C   0  0  0  0  0  0  0  0  0  0  0  0
   -1.8275    2.0343    4.1093 O   0  5  0  0  0  0  0  0  0  0  0  0
   -3.4454    0.4381    3.8835 O   0  0  0  0  0  0  0  0  0  0  0  0
    1.9288   -0.5463    1.4242 H   0  0  0  0  0  0  0  0  0  0  0  0
   -0.3656    0.3984   -0.1094 H   0  0  0  0  0  0  0  0  0  0  0  0
   -0.7375    2.2861    1.6317 H   0  0  0  0  0  0  0  0  0  0  0  0
    0.2921    1.3904    2.7312 H   0  0  0  0  0  0  0  0  0  0  0  0
   -2.3068    0.2951    1.5483 H   0  0  0  0  0  0  0  0  0  0  0  0
   -1.2489   -0.5352    2.6804 H   0  0  0  0  0  0  0  0  0  0  0  0
    0.8540    2.6613   -0.5057 N   0  0  0  0  0  0  0  0  0  0  0  0
    1.6608    3.7072   -1.0904 C   0  0  2  0  0  0  0  0  0  0  0  0
    0.7612    4.9100   -1.3421 C   0  0  0  0  0  0  0  0  0  0  0  0
   -0.4594    4.8222   -1.4581 O   0  0  0  0  0  0  0  0  0  0  0  0
    2.3199    3.2422   -2.3796 C   0  0  0  0  0  0  0  0  0  0  0  0
   -0.1519    2.7114   -0.6373 H   0  0  0  0  0  0  0  0  0  0  0  0
    2.4237    3.9697   -0.3494 H   0  0  0  0  0  0  0  0  0  0  0  0
    1.5711    2.9748   -3.1341 H   0  0  0  0  0  0  0  0  0  0  0  0
    2.9537    4.0265   -2.8065 H   0  0  0  0  0  0  0  0  0  0  0  0
    2.9431    2.3590   -2.2022 H   0  0  0  0  0  0  0  0  0  0  0  0
    1.4859    6.0872   -1.4647 N   0  0  0  0  0  0  0  0  0  0  0  0
    0.8614    7.3645   -1.7188 C   0  0  0  0  0  0  0  0  0  0  0  0
    2.4932    6.0697   -1.3351 H   0  0  0  0  0  0  0  0  0  0  0  0
    0.8313    7.5494   -2.8027 H   0  0  0  0  0  0  0  0  0  0  0  0
   -0.1637    7.3571   -1.3197 H   0  0  0  0  0  0  0  0  0  0  0  0
    1.4405    8.1600   -1.2272 H   0  0  0  0  0  0  0  0  0  0  0  0
  1  3  1  0  0  0  0
  1  7  1  0  0  0  0
  1  2  2  0  0  0  0
 33 34  1  0  0  0  0
 34 42  1  0  0  0  0
 34 35  2  0  0  0  0
  8  9  1  0  0  0  0
  9 17  1  0  0  0  0
  9 10  2  0  0  0  0
 18 19  1  0  0  0  0
 19 32  1  0  0  0  0
 19 20  2  0  0  0  0
 22 23  1  0  0  0  0
 23 24  1  0  0  0  0
 23 25  2  0  0  0  0
 33 36  1  0  0  0  0
  8 11  1  0  0  0  0
 42 43  1  0  0  0  0
 21 22  1  0  0  0  0
 18 21  1  0  0  0  0
 32 33  1  0  0  0  0
  7  8  1  0  0  0  0
 17 18  1  0  0  0  0
  3  4  1  0  0  0  0
  3  5  1  0  0  0  0
  3  6  1  0  0  0  0
 36 39  1  0  0  0  0
 36 40  1  0  0  0  0
 36 41  1  0  0  0  0
 11 14  1  0  0  0  0
 11 15  1  0  0  0  0
 11 16  1  0  0  0  0
 43 45  1  0  0  0  0
 43 46  1  0  0  0  0
 43 47  1  0  0  0  0
 22 30  1  0  0  0  0
 22 31  1  0  0  0  0
 21 28  1  0  0  0  0
 21 29  1  0  0  0  0
 33 38  1  0  0  0  0
  8 13  1  0  0  0  0
 18 27  1  0  0  0  0
 42 44  1  0  0  0  0
  7 12  1  0  0  0  0
 32 37  1  0  0  0  0
 17 26  1  0  0  0  0
M  CHG  1  24  -1
M  END
$$$$

  -OEChem-05262214473D

 47 46  0     1  0  0  0  0  0999 V2000
    0.5093   -4.7265    3.0306 C   0  0  0  0  0  0  0  0  0  0  0  0
    1.2735   -4.4402    3.9448 O   0  0  0  0  0  0  0  0  0  0  0  0
   -0.4465   -5.8608    3.1982 C   0  0  0  0  0  0  0  0  0  0  0  0
   -0.0219   -6.8213    2.8645 H   0  0  0  0  0  0  0  0  0  0  0  0
   -0.7314   -6.0185    4.2509 H   0  0  0  0  0  0  0  0  0  0  0  0
   -1.3983   -5.7596    2.6527 H   0  0  0  0  0  0  0  0  0  0  0  0
    0.4252   -4.0886    1.8040 N   0  0  0  0  0  0  0  0  0  0  0  0
    1.2532   -2.9707    1.4349 C   0  0  2  0  0  0  0  0  0  0  0  0
    0.3395   -1.8293    1.0083 C   0  0  0  0  0  0  0  0  0  0  0  0
   -0.8136   -2.0027    0.6194 O   0  0  0  0  0  0  0  0  0  0  0  0
    2.2176   -3.3411    0.3189 C   0  0  0  0  0  0  0  0  0  0  0  0
   -0.2574   -4.4279    1.1287 H   0  0  0  0  0  0  0  0  0  0  0  0
    1.8087   -2.6785    2.3327 H   0  0  0  0  0  0  0  0  0  0  0  0
    1.6793   -3.6366   -0.5890 H   0  0  0  0  0  0  0  0  0  0  0  0
    2.8662   -2.4980    0.0589 H   0  0  0  0  0  0  0  0  0  0  0  0
    2.8538   -4.1816    0.6166 H   0  0  0  0  0  0  0  0  0  0  0  0
    0.9758   -0.5952    1.0708 N   0  0  0  0  0  0  0  0  0  0  0  0
    0.3258    0.6374    0.7059 C   0  0  2  0  0  0  0  0  0  0  0  0
    1.3004    1.4320   -0.1568 C   0  0  0  0  0  0  0  0  0  0  0  0
    2.4376    1.0426   -0.4147 O   0  0  0  0  0  0  0  0  0  0  0  0
   -0.0870    1.4547    1.9359 C   0  0  0  0  0  0  0  0  0  0  0  0
   -1.1868    0.7934    2.7656 C   0  0  0  0  0  0  0  0  0  0  0  0
   -1.6304    1.5469    4.0238 C   0  0  0  0  0  0  0  0  0  0  0  0
   -0.9289    2.5635    4.2958 O   0  5  0  0  0  0  0  0  0  0  0  0
   -2.6374    1.0845    4.6274 O   0  0  0  0  0  0  0  0  0  0  0  0
    1.9288   -0.5463    1.4242 H   0  0  0  0  0  0  0  0  0  0  0  0
   -0.5431    0.3658    0.0967 H   0  0  0  0  0  0  0  0  0  0  0  0
   -0.4136    2.4560    1.6288 H   0  0  0  0  0  0  0  0  0  0  0  0
    0.7889    1.6078    2.5805 H   0  0  0  0  0  0  0  0  0  0  0  0
   -2.0635    0.5977    2.1367 H   0  0  0  0  0  0  0  0  0  0  0  0
   -0.8227   -0.1845    3.1057 H   0  0  0  0  0  0  0  0  0  0  0  0
    0.7660    2.6464   -0.5642 N   0  0  0  0  0  0  0  0  0  0  0  0
    1.4963    3.5900   -1.3785 C   0  0  2  0  0  0  0  0  0  0  0  0
    0.8156    4.9465   -1.2514 C   0  0  0  0  0  0  0  0  0  0  0  0
   -0.3586    5.0786   -0.9124 O   0  0  0  0  0  0  0  0  0  0  0  0
    1.5495    3.1425   -2.8309 C   0  0  0  0  0  0  0  0  0  0  0  0
   -0.1909    2.8789   -0.3151 H   0  0  0  0  0  0  0  0  0  0  0  0
    2.5086    3.6484   -0.9639 H   0  0  0  0  0  0  0  0  0  0  0  0
    0.5443    3.0781   -3.2634 H   0  0  0  0  0  0  0  0  0  0  0  0
    2.1276    3.8441   -3.4414 H   0  0  0  0  0  0  0  0  0  0  0  0
    2.0125    2.1535   -2.9173 H   0  0  0  0  0  0  0  0  0  0  0  0
    1.6610    5.9895   -1.6028 N   0  0  0  0  0  0  0  0  0  0  0  0
    1.2452    7.3725   -1.5773 C   0  0  0  0  0  0  0  0  0  0  0  0
    2.6247    5.7889   -1.8533 H   0  0  0  0  0  0  0  0  0  0  0  0
    0.8667    7.6604   -2.5692 H   0  0  0  0  0  0  0  0  0  0  0  0
    0.4491    7.5021   -0.8294 H   0  0  0  0  0  0  0  0  0  0  0  0
    2.1032    8.0084   -1.3136 H   0  0  0  0  0  0  0  0  0  0  0  0
  1  3  1  0  0  0  0
  1  7  1  0  0  0  0
  1  2  2  0  0  0  0
 33 34  1  0  0  0  0
 34 42  1  0  0  0  0
 34 35  2  0  0  0  0
  8  9  1  0  0  0  0
  9 17  1  0  0  0  0
  9 10  2  0  0  0  0
 18 19  1  0  0  0  0
 19 32  1  0  0  0  0
 19 20  2  0  0  0  0
 22 23  1  0  0  0  0
 23 24  1  0  0  0  0
 23 25  2  0  0  0  0
 33 36  1  0  0  0  0
  8 11  1  0  0  0  0
 42 43  1  0  0  0  0
 21 22  1  0  0  0  0
 18 21  1  0  0  0  0
 32 33  1  0  0  0  0
  7  8  1  0  0  0  0
 17 18  1  0  0  0  0
  3  4  1  0  0  0  0
  3  5  1  0  0  0  0
  3  6  1  0  0  0  0
 36 39  1  0  0  0  0
 36 40  1  0  0  0  0
 36 41  1  0  0  0  0
 11 14  1  0  0  0  0
 11 15  1  0  0  0  0
 11 16  1  0  0  0  0
 43 45  1  0  0  0  0
 43 46  1  0  0  0  0
 43 47  1  0  0  0  0
 22 30  1  0  0  0  0
 22 31  1  0  0  0  0
 21 28  1  0  0  0  0
 21 29  1  0  0  0  0
 33 38  1  0  0  0  0
  8 13  1  0  0  0  0
 18 27  1  0  0  0  0
 42 44  1  0  0  0  0
  7 12  1  0  0  0  0
 32 37  1  0  0  0  0
 17 26  1  0  0  0  0
M  CHG  1  24  -1
M  END
$$$$

  -OEChem-05262214473D

 47 46  0     1  0  0  0  0  0999 V2000
    0.5093   -4.7265    3.0306 C   0  0  0  0  0  0  0  0  0  0  0  0
    1.2735   -4.4402    3.9448 O   0  0  0  0  0  0  0  0  0  0  0  0
   -0.4465   -5.8608    3.1982 C   0  0  0  0  0  0  0  0  0  0  0  0
   -0.0219   -6.8213    2.8645 H   0  0  0  0  0  0  0  0  0  0  0  0
   -0.7314   -6.0185    4.2509 H   0  0  0  0  0  0  0  0  0  0  0  0
   -1.3983   -5.7596    2.6527 H   0  0  0  0  0  0  0  0  0  0  0  0
    0.4252   -4.0886    1.8040 N   0  0  0  0  0  0  0  0  0  0  0  0
    1.2532   -2.9707    1.4349 C   0  0  2  0  0  0  0  0  0  0  0  0
    0.3395   -1.8293    1.0083 C   0  0  0  0  0  0  0  0  0  0  0  0
   -0.8136   -2.0027    0.6194 O   0  0  0  0  0  0  0  0  0  0  0  0
    2.2176   -3.3411    0.3189 C   0  0  0  0  0  0  0  0  0  0  0  0
   -0.2574   -4.4279    1.1287 H   0  0  0  0  0  0  0  0  0  0  0  0
    1.8087   -2.6785    2.3327 H   0  0  0  0  0  0  0  0  0  0  0  0
    1.6793   -3.6366   -0.5890 H   0  0  0  0  0  0  0  0  0  0  0  0
    2.8662   -2.4980    0.0589 H   0  0  0  0  0  0  0  0  0  0  0  0
    2.8538   -4.1816    0.6166 H   0  0  0  0  0  0  0  0  0  0  0  0
    0.9758   -0.5952    1.0708 N   0  0  0  0  0  0  0  0  0  0  0  0
    0.3258    0.6374    0.7059 C   0  0  2  0  0  0  0  0  0  0  0  0
    1.3004    1.4320   -0.1568 C   0  0  0  0  0  0  0  0  0  0  0  0
    2.3216    0.9439   -0.6366 O   0  0  0  0  0  0  0  0  0  0  0  0
   -0.0870    1.4547    1.9359 C   0  0  0  0  0  0  0  0  0  0  0  0
   -1.1868    0.7934    2.7656 C   0  0  0  0  0  0  0  0  0  0  0  0
   -1.6304    1.5469    4.0238 C   0  0  0  0  0  0  0  0  0  0  0  0
   -0.9289    2.5635    4.2958 O   0  5  0  0  0  0  0  0  0  0  0  0
   -2.6374    1.0845    4.6274 O   0  0  0  0  0  0  0  0  0  0  0  0
    1.9288   -0.5463    1.4242 H   0  0  0  0  0  0  0  0  0  0  0  0
   -0.5431    0.3658    0.0967 H   0  0  0  0  0  0  0  0  0  0  0  0
   -0.4136    2.4560    1.6288 H   0  0  0  0  0  0  0  0  0  0  0  0
    0.7889    1.6078    2.5805 H   0  0  0  0  0  0  0  0  0  0  0  0
   -2.0635    0.5977    2.1367 H   0  0  0  0  0  0  0  0  0  0  0  0
   -0.8227   -0.1845    3.1057 H   0  0  0  0  0  0  0  0  0  0  0  0
    0.9185    2.7599   -0.2874 N   0  0  0  0  0  0  0  0  0  0  0  0
    1.6831    3.7243   -1.0437 C   0  0  2  0  0  0  0  0  0  0  0  0
    1.2457    5.1168   -0.6086 C   0  0  0  0  0  0  0  0  0  0  0  0
    0.1576    5.3448   -0.0841 O   0  0  0  0  0  0  0  0  0  0  0  0
    1.4866    3.5356   -2.5399 C   0  0  0  0  0  0  0  0  0  0  0  0
    0.0481    3.0722    0.1328 H   0  0  0  0  0  0  0  0  0  0  0  0
    2.7350    3.5718   -0.7787 H   0  0  0  0  0  0  0  0  0  0  0  0
    0.4386    3.6844   -2.8244 H   0  0  0  0  0  0  0  0  0  0  0  0
    2.0890    4.2488   -3.1122 H   0  0  0  0  0  0  0  0  0  0  0  0
    1.7737    2.5238   -2.8461 H   0  0  0  0  0  0  0  0  0  0  0  0
    2.1956    6.0814   -0.9142 N   0  0  0  0  0  0  0  0  0  0  0  0
    2.0095    7.4817   -0.6133 C   0  0  0  0  0  0  0  0  0  0  0  0
    3.0775    5.7996   -1.3320 H   0  0  0  0  0  0  0  0  0  0  0  0
    1.5625    7.9877   -1.4817 H   0  0  0  0  0  0  0  0  0  0  0  0
    1.3415    7.5844    0.2546 H   0  0  0  0  0  0  0  0  0  0  0  0
    2.9828    7.9397   -0.3831 H   0  0  0  0  0  0  0  0  0  0  0  0
  1  3  1  0  0  0  0
  1  7  1  0  0  0  0
  1  2  2  0  0  0  0
 33 34  1  0  0  0  0
 34 42  1  0  0  0  0
 34 35  2  0  0  0  0
  8  9  1  0  0  0  0
  9 17  1  0  0  0  0
  9 10  2  0  0  0  0
 18 19  1  0  0  0  0
 19 32  1  0  0  0  0
 19 20  2  0  0  0  0
 22 23  1  0  0  0  0
 23 24  1  0  0  0  0
 23 25  2  0  0  0  0
 33 36  1  0  0  0  0
  8 11  1  0  0  0  0
 42 43  1  0  0  0  0
 21 22  1  0  0  0  0
 18 21  1  0  0  0  0
 32 33  1  0  0  0  0
  7  8  1  0  0  0  0
 17 18  1  0  0  0  0
  3  4  1  0  0  0  0
  3  5  1  0  0  0  0
  3  6  1  0  0  0  0
 36 39  1  0  0  0  0
 36 40  1  0  0  0  0
 36 41  1  0  0  0  0
 11 14  1  0  0  0  0
 11 15  1  0  0  0  0
 11 16  1  0  0  0  0
 43 45  1  0  0  0  0
 43 46  1  0  0  0  0
 43 47  1  0  0  0  0
 22 30  1  0  0  0  0
 22 31  1  0  0  0  0
 21 28  1  0  0  0  0
 21 29  1  0  0  0  0
 33 38  1  0  0  0  0
  8 13  1  0  0  0  0
 18 27  1  0  0  0  0
 42 44  1  0  0  0  0
  7 12  1  0  0  0  0
 32 37  1  0  0  0  0
 17 26  1  0  0  0  0
M  CHG  1  24  -1
M  END
$$$$

  -OEChem-05262214473D

 47 46  0     1  0  0  0  0  0999 V2000
    0.5093   -4.7265    3.0306 C   0  0  0  0  0  0  0  0  0  0  0  0
    1.2735   -4.4402    3.9448 O   0  0  0  0  0  0  0  0  0  0  0  0
   -0.4465   -5.8608    3.1982 C   0  0  0  0  0  0  0  0  0  0  0  0
   -0.0219   -6.8213    2.8645 H   0  0  0  0  0  0  0  0  0  0  0  0
   -0.7314   -6.0185    4.2509 H   0  0  0  0  0  0  0  0  0  0  0  0
   -1.3983   -5.7596    2.6527 H   0  0  0  0  0  0  0  0  0  0  0  0
    0.4252   -4.0886    1.8040 N   0  0  0  0  0  0  0  0  0  0  0  0
    1.2532   -2.9707    1.4349 C   0  0  2  0  0  0  0  0  0  0  0  0
    0.3395   -1.8293    1.0083 C   0  0  0  0  0  0  0  0  0  0  0  0
   -0.8136   -2.0027    0.6194 O   0  0  0  0  0  0  0  0  0  0  0  0
    2.2176   -3.3411    0.3189 C   0  0  0  0  0  0  0  0  0  0  0  0
   -0.2574   -4.4279    1.1287 H   0  0  0  0  0  0  0  0  0  0  0  0
    1.8087   -2.6785    2.3327 H   0  0  0  0  0  0  0  0  0  0  0  0
    1.6793   -3.6366   -0.5890 H   0  0  0  0  0  0  0  0  0  0  0  0
    2.8662   -2.4980    0.0589 H   0  0  0  0  0  0  0  0  0  0  0  0
    2.8538   -4.1816    0.6166 H   0  0  0  0  0  0  0  0  0  0  0  0
    0.9758   -0.5952    1.0708 N   0  0  0  0  0  0  0  0  0  0  0  0
    0.3258    0.6374    0.7059 C   0  0  2  0  0  0  0  0  0  0  0  0
    1.3004    1.4320   -0.1568 C   0  0  0  0  0  0  0  0  0  0  0  0
    2.1652    0.9023   -0.8517 O   0  0  0  0  0  0  0  0  0  0  0  0
   -0.0870    1.4547    1.9359 C   0  0  0  0  0  0  0  0  0  0  0  0
   -1.1868    0.7934    2.7656 C   0  0  0  0  0  0  0  0  0  0  0  0
   -1.6304    1.5469    4.0238 C   0  0  0  0  0  0  0  0  0  0  0  0
   -0.9289    2.5635    4.2958 O   0  5  0  0  0  0  0  0  0  0  0  0
   -2.6374    1.0845    4.6274 O   0  0  0  0  0  0  0  0  0  0  0  0
    1.9288   -0.5463    1.4242 H   0  0  0  0  0  0  0  0  0  0  0  0
   -0.5431    0.3658    0.0967 H   0  0  0  0  0  0  0  0  0  0  0  0
   -0.4136    2.4560    1.6288 H   0  0  0  0  0  0  0  0  0  0  0  0
    0.7889    1.6078    2.5805 H   0  0  0  0  0  0  0  0  0  0  0  0
   -2.0635    0.5977    2.1367 H   0  0  0  0  0  0  0  0  0  0  0  0
   -0.8227   -0.1845    3.1057 H   0  0  0  0  0  0  0  0  0  0  0  0
    1.1197    2.8015   -0.0218 N   0  0  0  0  0  0  0  0  0  0  0  0
    1.9284    3.7713   -0.7233 C   0  0  2  0  0  0  0  0  0  0  0  0
    1.7728    5.1120   -0.0176 C   0  0  0  0  0  0  0  0  0  0  0  0
    0.8069    5.3892    0.6903 O   0  0  0  0  0  0  0  0  0  0  0  0
    1.5227    3.8763   -2.1852 C   0  0  0  0  0  0  0  0  0  0  0  0
    0.3676    3.1498    0.5653 H   0  0  0  0  0  0  0  0  0  0  0  0
    2.9675    3.4341   -0.6429 H   0  0  0  0  0  0  0  0  0  0  0  0
    0.4844    4.2129   -2.2858 H   0  0  0  0  0  0  0  0  0  0  0  0
    2.1553    4.5909   -2.7222 H   0  0  0  0  0  0  0  0  0  0  0  0
    1.6069    2.9046   -2.6838 H   0  0  0  0  0  0  0  0  0  0  0  0
    2.8182    5.9780   -0.3061 N   0  0  0  0  0  0  0  0  0  0  0  0
    2.8937    7.3158    0.2329 C   0  0  0  0  0  0  0  0  0  0  0  0
    3.5867    5.6573   -0.8877 H   0  0  0  0  0  0  0  0  0  0  0  0
    2.4291    8.0220   -0.4710 H   0  0  0  0  0  0  0  0  0  0  0  0
    2.3617    7.3540    1.1950 H   0  0  0  0  0  0  0  0  0  0  0  0
    3.9478    7.5906    0.3856 H   0  0  0  0  0  0  0  0  0  0  0  0
  1  3  1  0  0  0  0
  1  7  1  0  0  0  0
  1  2  2  0  0  0  0
 33 34  1  0  0  0  0
 34 42  1  0  0  0  0
 34 35  2  0  0  0  0
  8  9  1  0  0  0  0
  9 17  1  0  0  0  0
  9 10  2  0  0  0  0
 18 19  1  0  0  0  0
 19 32  1  0  0  0  0
 19 20  2  0  0  0  0
 22 23  1  0  0  0  0
 23 24  1  0  0  0  0
 23 25  2  0  0  0  0
 33 36  1  0  0  0  0
  8 11  1  0  0  0  0
 42 43  1  0  0  0  0
 21 22  1  0  0  0  0
 18 21  1  0  0  0  0
 32 33  1  0  0  0  0
  7  8  1  0  0  0  0
 17 18  1  0  0  0  0
  3  4  1  0  0  0  0
  3  5  1  0  0  0  0
  3  6  1  0  0  0  0
 36 39  1  0  0  0  0
 36 40  1  0  0  0  0
 36 41  1  0  0  0  0
 11 14  1  0  0  0  0
 11 15  1  0  0  0  0
 11 16  1  0  0  0  0
 43 45  1  0  0  0  0
 43 46  1  0  0  0  0
 43 47  1  0  0  0  0
 22 30  1  0  0  0  0
 22 31  1  0  0  0  0
 21 28  1  0  0  0  0
 21 29  1  0  0  0  0
 33 38  1  0  0  0  0
  8 13  1  0  0  0  0
 18 27  1  0  0  0  0
 42 44  1  0  0  0  0
  7 12  1  0  0  0  0
 32 37  1  0  0  0  0
 17 26  1  0  0  0  0
M  CHG  1  24  -1
M  END
$$$$

  -OEChem-05262214473D

 47 46  0     1  0  0  0  0  0999 V2000
    0.5093   -4.7265    3.0306 C   0  0  0  0  0  0  0  0  0  0  0  0
    1.2735   -4.4402    3.9448 O   0  0  0  0  0  0  0  0  0  0  0  0
   -0.4465   -5.8608    3.1982 C   0  0  0  0  0  0  0  0  0  0  0  0
   -0.0219   -6.8213    2.8645 H   0  0  0  0  0  0  0  0  0  0  0  0
   -0.7314   -6.0185    4.2509 H   0  0  0  0  0  0  0  0  0  0  0  0
   -1.3983   -5.7596    2.6527 H   0  0  0  0  0  0  0  0  0  0  0  0
    0.4252   -4.0886    1.8040 N   0  0  0  0  0  0  0  0  0  0  0  0
    1.2532   -2.9707    1.4349 C   0  0  2  0  0  0  0  0  0  0  0  0
    0.3395   -1.8293    1.0083 C   0  0  0  0  0  0  0  0  0  0  0  0
   -0.8136   -2.0027    0.6194 O   0  0  0  0  0  0  0  0  0  0  0  0
    2.2176   -3.3411    0.3189 C   0  0  0  0  0  0  0  0  0  0  0  0
   -0.2574   -4.4279    1.1287 H   0  0  0  0  0  0  0  0  0  0  0  0
    1.8087   -2.6785    2.3327 H   0  0  0  0  0  0  0  0  0  0  0  0
    1.6793   -3.6366   -0.5890 H   0  0  0  0  0  0  0  0  0  0  0  0
    2.8662   -2.4980    0.0589 H   0  0  0  0  0  0  0  0  0  0  0  0
    2.8538   -4.1816    0.6166 H   0  0  0  0  0  0  0  0  0  0  0  0
    0.9758   -0.5952    1.0708 N   0  0  0  0  0  0  0  0  0  0  0  0
    0.3258    0.6374    0.7059 C   0  0  2  0  0  0  0  0  0  0  0  0
    1.3004    1.4320   -0.1568 C   0  0  0  0  0  0  0  0  0  0  0  0
    1.9791    0.9205   -1.0451 O   0  0  0  0  0  0  0  0  0  0  0  0
   -0.0870    1.4547    1.9359 C   0  0  0  0  0  0  0  0  0  0  0  0
   -1.1868    0.7934    2.7656 C   0  0  0  0  0  0  0  0  0  0  0  0
   -1.6304    1.5469    4.0238 C   0  0  0  0  0  0  0  0  0  0  0  0
   -0.9289    2.5635    4.2958 O   0  5  0  0  0  0  0  0  0  0  0  0
   -2.6374    1.0845    4.6274 O   0  0  0  0  0  0  0  0  0  0  0  0
    1.9288   -0.5463    1.4242 H   0  0  0  0  0  0  0  0  0  0  0  0
   -0.5431    0.3658    0.0967 H   0  0  0  0  0  0  0  0  0  0  0  0
   -0.4136    2.4560    1.6288 H   0  0  0  0  0  0  0  0  0  0  0  0
    0.7889    1.6078    2.5805 H   0  0  0  0  0  0  0  0  0  0  0  0
   -2.0635    0.5977    2.1367 H   0  0  0  0  0  0  0  0  0  0  0  0
   -0.8227   -0.1845    3.1057 H   0  0  0  0  0  0  0  0  0  0  0  0
    1.3559    2.7682    0.2144 N   0  0  0  0  0  0  0  0  0  0  0  0
    2.2154    3.7278   -0.4391 C   0  0  2  0  0  0  0  0  0  0  0  0
    2.3609    4.9324    0.4814 C   0  0  0  0  0  0  0  0  0  0  0  0
    1.5449    5.2090    1.3582 O   0  0  0  0  0  0  0  0  0  0  0  0
    1.6553    4.1415   -1.7912 C   0  0  0  0  0  0  0  0  0  0  0  0
    0.7459    3.1065    0.9527 H   0  0  0  0  0  0  0  0  0  0  0  0
    3.1902    3.2445   -0.5660 H   0  0  0  0  0  0  0  0  0  0  0  0
    0.6788    4.6277   -1.6843 H   0  0  0  0  0  0  0  0  0  0  0  0
    2.3221    4.8471   -2.2978 H   0  0  0  0  0  0  0  0  0  0  0  0
    1.5234    3.2701   -2.4415 H   0  0  0  0  0  0  0  0  0  0  0  0
    3.4866    5.6863    0.1803 N   0  0  0  0  0  0  0  0  0  0  0  0
    3.8376    6.8862    0.9035 C   0  0  0  0  0  0  0  0  0  0  0  0
    4.1177    5.3718   -0.5508 H   0  0  0  0  0  0  0  0  0  0  0  0
    3.4075    7.7611    0.3940 H   0  0  0  0  0  0  0  0  0  0  0  0
    3.4403    6.8264    1.9275 H   0  0  0  0  0  0  0  0  0  0  0  0
    4.9325    6.9849    0.9403 H   0  0  0  0  0  0  0  0  0  0  0  0
  1  3  1  0  0  0  0
  1  7  1  0  0  0  0
  1  2  2  0  0  0  0
 33 34  1  0  0  0  0
 34 42  1  0  0  0  0
 34 35  2  0  0  0  0
  8  9  1  0  0  0  0
  9 17  1  0  0  0  0
  9 10  2  0  0  0  0
 18 19  1  0  0  0  0
 19 32  1  0  0  0  0
 19 20  2  0  0  0  0
 22 23  1  0  0  0  0
 23 24  1  0  0  0  0
 23 25  2  0  0  0  0
 33 36  1  0  0  0  0
  8 11  1  0  0  0  0
 42 43  1  0  0  0  0
 21 22  1  0  0  0  0
 18 21  1  0  0  0  0
 32 33  1  0  0  0  0
  7  8  1  0  0  0  0
 17 18  1  0  0  0  0
  3  4  1  0  0  0  0
  3  5  1  0  0  0  0
  3  6  1  0  0  0  0
 36 39  1  0  0  0  0
 36 40  1  0  0  0  0
 36 41  1  0  0  0  0
 11 14  1  0  0  0  0
 11 15  1  0  0  0  0
 11 16  1  0  0  0  0
 43 45  1  0  0  0  0
 43 46  1  0  0  0  0
 43 47  1  0  0  0  0
 22 30  1  0  0  0  0
 22 31  1  0  0  0  0
 21 28  1  0  0  0  0
 21 29  1  0  0  0  0
 33 38  1  0  0  0  0
  8 13  1  0  0  0  0
 18 27  1  0  0  0  0
 42 44  1  0  0  0  0
  7 12  1  0  0  0  0
 32 37  1  0  0  0  0
 17 26  1  0  0  0  0
M  CHG  1  24  -1
M  END
$$$$

  -OEChem-05262214473D

 47 46  0     1  0  0  0  0  0999 V2000
    0.5093   -4.7265    3.0306 C   0  0  0  0  0  0  0  0  0  0  0  0
    1.2735   -4.4402    3.9448 O   0  0  0  0  0  0  0  0  0  0  0  0
   -0.4465   -5.8608    3.1982 C   0  0  0  0  0  0  0  0  0  0  0  0
   -0.0219   -6.8213    2.8645 H   0  0  0  0  0  0  0  0  0  0  0  0
   -0.7314   -6.0185    4.2509 H   0  0  0  0  0  0  0  0  0  0  0  0
   -1.3983   -5.7596    2.6527 H   0  0  0  0  0  0  0  0  0  0  0  0
    0.4252   -4.0886    1.8040 N   0  0  0  0  0  0  0  0  0  0  0  0
    1.2532   -2.9707    1.4349 C   0  0  2  0  0  0  0  0  0  0  0  0
    0.3395   -1.8293    1.0083 C   0  0  0  0  0  0  0  0  0  0  0  0
   -0.8136   -2.0027    0.6194 O   0  0  0  0  0  0  0  0  0  0  0  0
    2.2176   -3.3411    0.3189 C   0  0  0  0  0  0  0  0  0  0  0  0
   -0.2574   -4.4279    1.1287 H   0  0  0  0  0  0  0  0  0  0  0  0
    1.8087   -2.6785    2.3327 H   0  0  0  0  0  0  0  0  0  0  0  0
    1.6793   -3.6366   -0.5890 H   0  0  0  0  0  0  0  0  0  0  0  0
    2.8662   -2.4980    0.0589 H   0  0  0  0  0  0  0  0  0  0  0  0
    2.8538   -4.1816    0.6166 H   0  0  0  0  0  0  0  0  0  0  0  0
    0.9758   -0.5952    1.0708 N   0  0  0  0  0  0  0  0  0  0  0  0
    0.3258    0.6374    0.7059 C   0  0  2  0  0  0  0  0  0  0  0  0
    1.3004    1.4320   -0.1568 C   0  0  0  0  0  0  0  0  0  0  0  0
    1.7759    0.9974   -1.2039 O   0  0  0  0  0  0  0  0  0  0  0  0
   -0.0870    1.4547    1.9359 C   0  0  0  0  0  0  0  0  0  0  0  0
   -1.1868    0.7934    2.7656 C   0  0  0  0  0  0  0  0  0  0  0  0
   -1.6304    1.5469    4.0238 C   0  0  0  0  0  0  0  0  0  0  0  0
   -0.9289    2.5635    4.2958 O   0  5  0  0  0  0  0  0  0  0  0  0
   -2.6374    1.0845    4.6274 O   0  0  0  0  0  0  0  0  0  0  0  0
    1.9288   -0.5463    1.4242 H   0  0  0  0  0  0  0  0  0  0  0  0
   -0.5431    0.3658    0.0967 H   0  0  0  0  0  0  0  0  0  0  0  0
   -0.4136    2.4560    1.6288 H   0  0  0  0  0  0  0  0  0  0  0  0
    0.7889    1.6078    2.5805 H   0  0  0  0  0  0  0  0  0  0  0  0
   -2.0635    0.5977    2.1367 H   0  0  0  0  0  0  0  0  0  0  0  0
   -0.8227   -0.1845    3.1057 H   0  0  0  0  0  0  0  0  0  0  0  0
    1.6111    2.6624    0.4053 N   0  0  0  0  0  0  0  0  0  0  0  0
    2.5245    3.5968   -0.2106 C   0  0  2  0  0  0  0  0  0  0  0  0
    2.9700    4.5903    0.8544 C   0  0  0  0  0  0  0  0  0  0  0  0
    2.3216    4.8164    1.8739 O   0  0  0  0  0  0  0  0  0  0  0  0
    1.8754    4.3131   -1.3846 C   0  0  0  0  0  0  0  0  0  0  0  0
    1.1572    2.9451    1.2688 H   0  0  0  0  0  0  0  0  0  0  0  0
    3.3879    3.0160   -0.5530 H   0  0  0  0  0  0  0  0  0  0  0  0
    1.0083    4.9003   -1.0609 H   0  0  0  0  0  0  0  0  0  0  0  0
    2.5779    5.0000   -1.8679 H   0  0  0  0  0  0  0  0  0  0  0  0
    1.5289    3.5952   -2.1358 H   0  0  0  0  0  0  0  0  0  0  0  0
    4.1550    5.2263    0.5118 N   0  0  0  0  0  0  0  0  0  0  0  0
    4.7769    6.2221    1.3530 C   0  0  0  0  0  0  0  0  0  0  0  0
    4.6342    4.9626   -0.3442 H   0  0  0  0  0  0  0  0  0  0  0  0
    4.4311    7.2227    1.0545 H   0  0  0  0  0  0  0  0  0  0  0  0
    4.5036    6.0378    2.4024 H   0  0  0  0  0  0  0  0  0  0  0  0
    5.8698    6.1640    1.2430 H   0  0  0  0  0  0  0  0  0  0  0  0
  1  3  1  0  0  0  0
  1  7  1  0  0  0  0
  1  2  2  0  0  0  0
 33 34  1  0  0  0  0
 34 42  1  0  0  0  0
 34 35  2  0  0  0  0
  8  9  1  0  0  0  0
  9 17  1  0  0  0  0
  9 10  2  0  0  0  0
 18 19  1  0  0  0  0
 19 32  1  0  0  0  0
 19 20  2  0  0  0  0
 22 23  1  0  0  0  0
 23 24  1  0  0  0  0
 23 25  2  0  0  0  0
 33 36  1  0  0  0  0
  8 11  1  0  0  0  0
 42 43  1  0  0  0  0
 21 22  1  0  0  0  0
 18 21  1  0  0  0  0
 32 33  1  0  0  0  0
  7  8  1  0  0  0  0
 17 18  1  0  0  0  0
  3  4  1  0  0  0  0
  3  5  1  0  0  0  0
  3  6  1  0  0  0  0
 36 39  1  0  0  0  0
 36 40  1  0  0  0  0
 36 41  1  0  0  0  0
 11 14  1  0  0  0  0
 11 15  1  0  0  0  0
 11 16  1  0  0  0  0
 43 45  1  0  0  0  0
 43 46  1  0  0  0  0
 43 47  1  0  0  0  0
 22 30  1  0  0  0  0
 22 31  1  0  0  0  0
 21 28  1  0  0  0  0
 21 29  1  0  0  0  0
 33 38  1  0  0  0  0
  8 13  1  0  0  0  0
 18 27  1  0  0  0  0
 42 44  1  0  0  0  0
  7 12  1  0  0  0  0
 32 37  1  0  0  0  0
 17 26  1  0  0  0  0
M  CHG  1  24  -1
M  END
$$$$

  -OEChem-05262214473D

 47 46  0     1  0  0  0  0  0999 V2000
    0.5093   -4.7265    3.0306 C   0  0  0  0  0  0  0  0  0  0  0  0
    1.2735   -4.4402    3.9448 O   0  0  0  0  0  0  0  0  0  0  0  0
   -0.4465   -5.8608    3.1982 C   0  0  0  0  0  0  0  0  0  0  0  0
   -0.0219   -6.8213    2.8645 H   0  0  0  0  0  0  0  0  0  0  0  0
   -0.7314   -6.0185    4.2509 H   0  0  0  0  0  0  0  0  0  0  0  0
   -1.3983   -5.7596    2.6527 H   0  0  0  0  0  0  0  0  0  0  0  0
    0.4252   -4.0886    1.8040 N   0  0  0  0  0  0  0  0  0  0  0  0
    1.2532   -2.9707    1.4349 C   0  0  2  0  0  0  0  0  0  0  0  0
    0.3395   -1.8293    1.0083 C   0  0  0  0  0  0  0  0  0  0  0  0
   -0.8136   -2.0027    0.6194 O   0  0  0  0  0  0  0  0  0  0  0  0
    2.2176   -3.3411    0.3189 C   0  0  0  0  0  0  0  0  0  0  0  0
   -0.2574   -4.4279    1.1287 H   0  0  0  0  0  0  0  0  0  0  0  0
    1.8087   -2.6785    2.3327 H   0  0  0  0  0  0  0  0  0  0  0  0
    1.6793   -3.6366   -0.5890 H   0  0  0  0  0  0  0  0  0  0  0  0
    2.8662   -2.4980    0.0589 H   0  0  0  0  0  0  0  0  0  0  0  0
    2.8538   -4.1816    0.6166 H   0  0  0  0  0  0  0  0  0  0  0  0
    0.9758   -0.5952    1.0708 N   0  0  0  0  0  0  0  0  0  0  0  0
    0.3258    0.6374    0.7059 C   0  0  2  0  0  0  0  0  0  0  0  0
    1.3004    1.4320   -0.1568 C   0  0  0  0  0  0  0  0  0  0  0  0
    1.5694    1.1277   -1.3171 O   0  0  0  0  0  0  0  0  0  0  0  0
   -0.0870    1.4547    1.9359 C   0  0  0  0  0  0  0  0  0  0  0  0
   -1.1868    0.7934    2.7656 C   0  0  0  0  0  0  0  0  0  0  0  0
   -1.6304    1.5469    4.0238 C   0  0  0  0  0  0  0  0  0  0  0  0
   -0.9289    2.5635    4.2958 O   0  5  0  0  0  0  0  0  0  0  0  0
   -2.6374    1.0845    4.6274 O   0  0  0  0  0  0  0  0  0  0  0  0
    1.9288   -0.5463    1.4242 H   0  0  0  0  0  0  0  0  0  0  0  0
   -0.5431    0.3658    0.0967 H   0  0  0  0  0  0  0  0  0  0  0  0
   -0.4136    2.4560    1.6288 H   0  0  0  0  0  0  0  0  0  0  0  0
    0.7889    1.6078    2.5805 H   0  0  0  0  0  0  0  0  0  0  0  0
   -2.0635    0.5977    2.1367 H   0  0  0  0  0  0  0  0  0  0  0  0
   -0.8227   -0.1845    3.1057 H   0  0  0  0  0  0  0  0  0  0  0  0
    1.8678    2.4913    0.5377 N   0  0  0  0  0  0  0  0  0  0  0  0
    2.8348    3.3872   -0.0531 C   0  0  2  0  0  0  0  0  0  0  0  0
    3.5585    4.1089    1.0759 C   0  0  0  0  0  0  0  0  0  0  0  0
    3.0838    4.2382    2.2024 O   0  0  0  0  0  0  0  0  0  0  0  0
    2.1679    4.3793   -0.9931 C   0  0  0  0  0  0  0  0  0  0  0  0
    1.5735    2.6768    1.4920 H   0  0  0  0  0  0  0  0  0  0  0  0
    3.5472    2.7643   -0.6050 H   0  0  0  0  0  0  0  0  0  0  0  0
    1.4506    5.0123   -0.4581 H   0  0  0  0  0  0  0  0  0  0  0  0
    2.9054    5.0391   -1.4619 H   0  0  0  0  0  0  0  0  0  0  0  0
    1.6231    3.8579   -1.7875 H   0  0  0  0  0  0  0  0  0  0  0  0
    4.7780    4.6292    0.6657 N   0  0  0  0  0  0  0  0  0  0  0  0
    5.6475    5.3687    1.5506 C   0  0  0  0  0  0  0  0  0  0  0  0
    5.1011    4.4576   -0.2819 H   0  0  0  0  0  0  0  0  0  0  0  0
    5.4300    6.4436    1.4654 H   0  0  0  0  0  0  0  0  0  0  0  0
    5.4793    5.0417    2.5873 H   0  0  0  0  0  0  0  0  0  0  0  0
    6.6958    5.1837    1.2733 H   0  0  0  0  0  0  0  0  0  0  0  0
  1  3  1  0  0  0  0
  1  7  1  0  0  0  0
  1  2  2  0  0  0  0
 33 34  1  0  0  0  0
 34 42  1  0  0  0  0
 34 35  2  0  0  0  0
  8  9  1  0  0  0  0
  9 17  1  0  0  0  0
  9 10  2  0  0  0  0
 18 19  1  0  0  0  0
 19 32  1  0  0  0  0
 19 20  2  0  0  0  0
 22 23  1  0  0  0  0
 23 24  1  0  0  0  0
 23 25  2  0  0  0  0
 33 36  1  0  0  0  0
  8 11  1  0  0  0  0
 42 43  1  0  0  0  0
 21 22  1  0  0  0  0
 18 21  1  0  0  0  0
 32 33  1  0  0  0  0
  7  8  1  0  0  0  0
 17 18  1  0  0  0  0
  3  4  1  0  0  0  0
  3  5  1  0  0  0  0
  3  6  1  0  0  0  0
 36 39  1  0  0  0  0
 36 40  1  0  0  0  0
 36 41  1  0  0  0  0
 11 14  1  0  0  0  0
 11 15  1  0  0  0  0
 11 16  1  0  0  0  0
 43 45  1  0  0  0  0
 43 46  1  0  0  0  0
 43 47  1  0  0  0  0
 22 30  1  0  0  0  0
 22 31  1  0  0  0  0
 21 28  1  0  0  0  0
 21 29  1  0  0  0  0
 33 38  1  0  0  0  0
  8 13  1  0  0  0  0
 18 27  1  0  0  0  0
 42 44  1  0  0  0  0
  7 12  1  0  0  0  0
 32 37  1  0  0  0  0
 17 26  1  0  0  0  0
M  CHG  1  24  -1
M  END
$$$$

  -OEChem-05262214473D

 47 46  0     1  0  0  0  0  0999 V2000
    0.5093   -4.7265    3.0306 C   0  0  0  0  0  0  0  0  0  0  0  0
    1.2735   -4.4402    3.9448 O   0  0  0  0  0  0  0  0  0  0  0  0
   -0.4465   -5.8608    3.1982 C   0  0  0  0  0  0  0  0  0  0  0  0
   -0.0219   -6.8213    2.8645 H   0  0  0  0  0  0  0  0  0  0  0  0
   -0.7314   -6.0185    4.2509 H   0  0  0  0  0  0  0  0  0  0  0  0
   -1.3983   -5.7596    2.6527 H   0  0  0  0  0  0  0  0  0  0  0  0
    0.4252   -4.0886    1.8040 N   0  0  0  0  0  0  0  0  0  0  0  0
    1.2532   -2.9707    1.4349 C   0  0  2  0  0  0  0  0  0  0  0  0
    0.3395   -1.8293    1.0083 C   0  0  0  0  0  0  0  0  0  0  0  0
   -0.8136   -2.0027    0.6194 O   0  0  0  0  0  0  0  0  0  0  0  0
    2.2176   -3.3411    0.3189 C   0  0  0  0  0  0  0  0  0  0  0  0
   -0.2574   -4.4279    1.1287 H   0  0  0  0  0  0  0  0  0  0  0  0
    1.8087   -2.6785    2.3327 H   0  0  0  0  0  0  0  0  0  0  0  0
    1.6793   -3.6366   -0.5890 H   0  0  0  0  0  0  0  0  0  0  0  0
    2.8662   -2.4980    0.0589 H   0  0  0  0  0  0  0  0  0  0  0  0
    2.8538   -4.1816    0.6166 H   0  0  0  0  0  0  0  0  0  0  0  0
    0.9758   -0.5952    1.0708 N   0  0  0  0  0  0  0  0  0  0  0  0
    0.3258    0.6374    0.7059 C   0  0  2  0  0  0  0  0  0  0  0  0
    1.3004    1.4320   -0.1568 C   0  0  0  0  0  0  0  0  0  0  0  0
    1.3738    1.3025   -1.3771 O   0  0  0  0  0  0  0  0  0  0  0  0
   -0.0870    1.4547    1.9359 C   0  0  0  0  0  0  0  0  0  0  0  0
   -1.1868    0.7934    2.7656 C   0  0  0  0  0  0  0  0  0  0  0  0
   -1.6304    1.5469    4.0238 C   0  0  0  0  0  0  0  0  0  0  0  0
   -0.9289    2.5635    4.2958 O   0  5  0  0  0  0  0  0  0  0  0  0
   -2.6374    1.0845    4.6274 O   0  0  0  0  0  0  0  0  0  0  0  0
    1.9288   -0.5463    1.4242 H   0  0  0  0  0  0  0  0  0  0  0  0
   -0.5431    0.3658    0.0967 H   0  0  0  0  0  0  0  0  0  0  0  0
   -0.4136    2.4560    1.6288 H   0  0  0  0  0  0  0  0  0  0  0  0
    0.7889    1.6078    2.5805 H   0  0  0  0  0  0  0  0  0  0  0  0
   -2.0635    0.5977    2.1367 H   0  0  0  0  0  0  0  0  0  0  0  0
   -0.8227   -0.1845    3.1057 H   0  0  0  0  0  0  0  0  0  0  0  0
    2.1086    2.2665    0.6027 N   0  0  0  0  0  0  0  0  0  0  0  0
    3.1251    3.1132    0.0224 C   0  0  2  0  0  0  0  0  0  0  0  0
    4.0864    3.5212    1.1309 C   0  0  0  0  0  0  0  0  0  0  0  0
    3.7796    3.5137    2.3213 O   0  0  0  0  0  0  0  0  0  0  0  0
    2.5129    4.3357   -0.6435 C   0  0  0  0  0  0  0  0  0  0  0  0
    1.9664    2.3197    1.6070 H   0  0  0  0  0  0  0  0  0  0  0  0
    3.6572    2.5063   -0.7183 H   0  0  0  0  0  0  0  0  0  0  0  0
    1.9755    4.9560    0.0831 H   0  0  0  0  0  0  0  0  0  0  0  0
    3.2822    4.9617   -1.1075 H   0  0  0  0  0  0  0  0  0  0  0  0
    1.7995    4.0402   -1.4203 H   0  0  0  0  0  0  0  0  0  0  0  0
    5.3131    3.9358    0.6315 N   0  0  0  0  0  0  0  0  0  0  0  0
    6.3902    4.3842    1.4829 C   0  0  0  0  0  0  0  0  0  0  0  0
    5.4865    3.8910   -0.3683 H   0  0  0  0  0  0  0  0  0  0  0  0
    6.3362    5.4768    1.5986 H   0  0  0  0  0  0  0  0  0  0  0  0
    6.3008    3.9062    2.4695 H   0  0  0  0  0  0  0  0  0  0  0  0
    7.3542    4.1109    1.0290 H   0  0  0  0  0  0  0  0  0  0  0  0
  1  3  1  0  0  0  0
  1  7  1  0  0  0  0
  1  2  2  0  0  0  0
 33 34  1  0  0  0  0
 34 42  1  0  0  0  0
 34 35  2  0  0  0  0
  8  9  1  0  0  0  0
  9 17  1  0  0  0  0
  9 10  2  0  0  0  0
 18 19  1  0  0  0  0
 19 32  1  0  0  0  0
 19 20  2  0  0  0  0
 22 23  1  0  0  0  0
 23 24  1  0  0  0  0
 23 25  2  0  0  0  0
 33 36  1  0  0  0  0
  8 11  1  0  0  0  0
 42 43  1  0  0  0  0
 21 22  1  0  0  0  0
 18 21  1  0  0  0  0
 32 33  1  0  0  0  0
  7  8  1  0  0  0  0
 17 18  1  0  0  0  0
  3  4  1  0  0  0  0
  3  5  1  0  0  0  0
  3  6  1  0  0  0  0
 36 39  1  0  0  0  0
 36 40  1  0  0  0  0
 36 41  1  0  0  0  0
 11 14  1  0  0  0  0
 11 15  1  0  0  0  0
 11 16  1  0  0  0  0
 43 45  1  0  0  0  0
 43 46  1  0  0  0  0
 43 47  1  0  0  0  0
 22 30  1  0  0  0  0
 22 31  1  0  0  0  0
 21 28  1  0  0  0  0
 21 29  1  0  0  0  0
 33 38  1  0  0  0  0
  8 13  1  0  0  0  0
 18 27  1  0  0  0  0
 42 44  1  0  0  0  0
  7 12  1  0  0  0  0
 32 37  1  0  0  0  0
 17 26  1  0  0  0  0
M  CHG  1  24  -1
M  END
$$$$

  -OEChem-05262214473D

 47 46  0     1  0  0  0  0  0999 V2000
    0.5093   -4.7265    3.0306 C   0  0  0  0  0  0  0  0  0  0  0  0
    1.2735   -4.4402    3.9448 O   0  0  0  0  0  0  0  0  0  0  0  0
   -0.4465   -5.8608    3.1982 C   0  0  0  0  0  0  0  0  0  0  0  0
   -0.0219   -6.8213    2.8645 H   0  0  0  0  0  0  0  0  0  0  0  0
   -0.7314   -6.0185    4.2509 H   0  0  0  0  0  0  0  0  0  0  0  0
   -1.3983   -5.7596    2.6527 H   0  0  0  0  0  0  0  0  0  0  0  0
    0.4252   -4.0886    1.8040 N   0  0  0  0  0  0  0  0  0  0  0  0
    1.2532   -2.9707    1.4349 C   0  0  2  0  0  0  0  0  0  0  0  0
    0.3395   -1.8293    1.0083 C   0  0  0  0  0  0  0  0  0  0  0  0
   -0.8136   -2.0027    0.6194 O   0  0  0  0  0  0  0  0  0  0  0  0
    2.2176   -3.3411    0.3189 C   0  0  0  0  0  0  0  0  0  0  0  0
   -0.2574   -4.4279    1.1287 H   0  0  0  0  0  0  0  0  0  0  0  0
    1.8087   -2.6785    2.3327 H   0  0  0  0  0  0  0  0  0  0  0  0
    1.6793   -3.6366   -0.5890 H   0  0  0  0  0  0  0  0  0  0  0  0
    2.8662   -2.4980    0.0589 H   0  0  0  0  0  0  0  0  0  0  0  0
    2.8538   -4.1816    0.6166 H   0  0  0  0  0  0  0  0  0  0  0  0
    0.9758   -0.5952    1.0708 N   0  0  0  0  0  0  0  0  0  0  0  0
    0.3258    0.6374    0.7059 C   0  0  2  0  0  0  0  0  0  0  0  0
    1.3004    1.4320   -0.1568 C   0  0  0  0  0  0  0  0  0  0  0  0
    1.2024    1.5099   -1.3798 O   0  0  0  0  0  0  0  0  0  0  0  0
   -0.0870    1.4547    1.9359 C   0  0  0  0  0  0  0  0  0  0  0  0
   -1.1868    0.7934    2.7656 C   0  0  0  0  0  0  0  0  0  0  0  0
   -1.6304    1.5469    4.0238 C   0  0  0  0  0  0  0  0  0  0  0  0
   -0.9289    2.5635    4.2958 O   0  5  0  0  0  0  0  0  0  0  0  0
   -2.6374    1.0845    4.6274 O   0  0  0  0  0  0  0  0  0  0  0  0
    1.9288   -0.5463    1.4242 H   0  0  0  0  0  0  0  0  0  0  0  0
   -0.5431    0.3658    0.0967 H   0  0  0  0  0  0  0  0  0  0  0  0
   -0.4136    2.4560    1.6288 H   0  0  0  0  0  0  0  0  0  0  0  0
    0.7889    1.6078    2.5805 H   0  0  0  0  0  0  0  0  0  0  0  0
   -2.0635    0.5977    2.1367 H   0  0  0  0  0  0  0  0  0  0  0  0
   -0.8227   -0.1845    3.1057 H   0  0  0  0  0  0  0  0  0  0  0  0
    2.3171    2.0033    0.5958 N   0  0  0  0  0  0  0  0  0  0  0  0
    3.3755    2.7935    0.0109 C   0  0  2  0  0  0  0  0  0  0  0  0
    4.5176    2.8671    1.0157 C   0  0  0  0  0  0  0  0  0  0  0  0
    4.3618    2.6923    2.2224 O   0  0  0  0  0  0  0  0  0  0  0  0
    2.8870    4.1852   -0.3595 C   0  0  0  0  0  0  0  0  0  0  0  0
    2.3092    1.8982    1.6060 H   0  0  0  0  0  0  0  0  0  0  0  0
    3.7104    2.2598   -0.8852 H   0  0  0  0  0  0  0  0  0  0  0  0
    2.5473    4.7353    0.5257 H   0  0  0  0  0  0  0  0  0  0  0  0
    3.6827    4.7732   -0.8287 H   0  0  0  0  0  0  0  0  0  0  0  0
    2.0461    4.1297   -1.0592 H   0  0  0  0  0  0  0  0  0  0  0  0
    5.7238    3.1933    0.4117 N   0  0  0  0  0  0  0  0  0  0  0  0
    6.9543    3.3357    1.1545 C   0  0  0  0  0  0  0  0  0  0  0  0
    5.7642    3.3017   -0.5975 H   0  0  0  0  0  0  0  0  0  0  0  0
    7.0880    4.3881    1.4453 H   0  0  0  0  0  0  0  0  0  0  0  0
    6.9122    2.7085    2.0571 H   0  0  0  0  0  0  0  0  0  0  0  0
    7.8001    3.0186    0.5268 H   0  0  0  0  0  0  0  0  0  0  0  0
  1  3  1  0  0  0  0
  1  7  1  0  0  0  0
  1  2  2  0  0  0  0
 33 34  1  0  0  0  0
 34 42  1  0  0  0  0
 34 35  2  0  0  0  0
  8  9  1  0  0  0  0
  9 17  1  0  0  0  0
  9 10  2  0  0  0  0
 18 19  1  0  0  0  0
 19 32  1  0  0  0  0
 19 20  2  0  0  0  0
 22 23  1  0  0  0  0
 23 24  1  0  0  0  0
 23 25  2  0  0  0  0
 33 36  1  0  0  0  0
  8 11  1  0  0  0  0
 42 43  1  0  0  0  0
 21 22  1  0  0  0  0
 18 21  1  0  0  0  0
 32 33  1  0  0  0  0
  7  8  1  0  0  0  0
 17 18  1  0  0  0  0
  3  4  1  0  0  0  0
  3  5  1  0  0  0  0
  3  6  1  0  0  0  0
 36 39  1  0  0  0  0
 36 40  1  0  0  0  0
 36 41  1  0  0  0  0
 11 14  1  0  0  0  0
 11 15  1  0  0  0  0
 11 16  1  0  0  0  0
 43 45  1  0  0  0  0
 43 46  1  0  0  0  0
 43 47  1  0  0  0  0
 22 30  1  0  0  0  0
 22 31  1  0  0  0  0
 21 28  1  0  0  0  0
 21 29  1  0  0  0  0
 33 38  1  0  0  0  0
  8 13  1  0  0  0  0
 18 27  1  0  0  0  0
 42 44  1  0  0  0  0
  7 12  1  0  0  0  0
 32 37  1  0  0  0  0
 17 26  1  0  0  0  0
M  CHG  1  24  -1
M  END
$$$$

  -OEChem-05262214473D

 47 46  0     1  0  0  0  0  0999 V2000
    0.5093   -4.7265    3.0306 C   0  0  0  0  0  0  0  0  0  0  0  0
    1.2735   -4.4402    3.9448 O   0  0  0  0  0  0  0  0  0  0  0  0
   -0.4465   -5.8608    3.1982 C   0  0  0  0  0  0  0  0  0  0  0  0
   -0.0219   -6.8213    2.8645 H   0  0  0  0  0  0  0  0  0  0  0  0
   -0.7314   -6.0185    4.2509 H   0  0  0  0  0  0  0  0  0  0  0  0
   -1.3983   -5.7596    2.6527 H   0  0  0  0  0  0  0  0  0  0  0  0
    0.4252   -4.0886    1.8040 N   0  0  0  0  0  0  0  0  0  0  0  0
    1.2532   -2.9707    1.4349 C   0  0  2  0  0  0  0  0  0  0  0  0
    0.3395   -1.8293    1.0083 C   0  0  0  0  0  0  0  0  0  0  0  0
   -0.8136   -2.0027    0.6194 O   0  0  0  0  0  0  0  0  0  0  0  0
    2.2176   -3.3411    0.3189 C   0  0  0  0  0  0  0  0  0  0  0  0
   -0.2574   -4.4279    1.1287 H   0  0  0  0  0  0  0  0  0  0  0  0
    1.8087   -2.6785    2.3327 H   0  0  0  0  0  0  0  0  0  0  0  0
    1.6793   -3.6366   -0.5890 H   0  0  0  0  0  0  0  0  0  0  0  0
    2.8662   -2.4980    0.0589 H   0  0  0  0  0  0  0  0  0  0  0  0
    2.8538   -4.1816    0.6166 H   0  0  0  0  0  0  0  0  0  0  0  0
    0.9758   -0.5952    1.0708 N   0  0  0  0  0  0  0  0  0  0  0  0
    0.3258    0.6374    0.7059 C   0  0  2  0  0  0  0  0  0  0  0  0
    1.3004    1.4320   -0.1568 C   0  0  0  0  0  0  0  0  0  0  0  0
    1.0668    1.7358   -1.3249 O   0  0  0  0  0  0  0  0  0  0  0  0
   -0.0870    1.4547    1.9359 C   0  0  0  0  0  0  0  0  0  0  0  0
   -1.1868    0.7934    2.7656 C   0  0  0  0  0  0  0  0  0  0  0  0
   -1.6304    1.5469    4.0238 C   0  0  0  0  0  0  0  0  0  0  0  0
   -0.9289    2.5635    4.2958 O   0  5  0  0  0  0  0  0  0  0  0  0
   -2.6374    1.0845    4.6274 O   0  0  0  0  0  0  0  0  0  0  0  0
    1.9288   -0.5463    1.4242 H   0  0  0  0  0  0  0  0  0  0  0  0
   -0.5431    0.3658    0.0967 H   0  0  0  0  0  0  0  0  0  0  0  0
   -0.4136    2.4560    1.6288 H   0  0  0  0  0  0  0  0  0  0  0  0
    0.7889    1.6078    2.5805 H   0  0  0  0  0  0  0  0  0  0  0  0
   -2.0635    0.5977    2.1367 H   0  0  0  0  0  0  0  0  0  0  0  0
   -0.8227   -0.1845    3.1057 H   0  0  0  0  0  0  0  0  0  0  0  0
    2.4789    1.7198    0.5175 N   0  0  0  0  0  0  0  0  0  0  0  0
    3.5690    2.4500   -0.0868 C   0  0  2  0  0  0  0  0  0  0  0  0
    4.8229    2.1912    0.7380 C   0  0  0  0  0  0  0  0  0  0  0  0
    4.7905    1.8301    1.9126 O   0  0  0  0  0  0  0  0  0  0  0  0
    3.2645    3.9382   -0.1605 C   0  0  0  0  0  0  0  0  0  0  0  0
    2.5784    1.4411    1.4891 H   0  0  0  0  0  0  0  0  0  0  0  0
    3.7032    2.0416   -1.0944 H   0  0  0  0  0  0  0  0  0  0  0  0
    3.1269    4.3651    0.8396 H   0  0  0  0  0  0  0  0  0  0  0  0
    4.0794    4.4864   -0.6446 H   0  0  0  0  0  0  0  0  0  0  0  0
    2.3461    4.1203   -0.7289 H   0  0  0  0  0  0  0  0  0  0  0  0
    5.9822    2.4524    0.0211 N   0  0  0  0  0  0  0  0  0  0  0  0
    7.3014    2.2947    0.5877 C   0  0  0  0  0  0  0  0  0  0  0  0
    5.9152    2.7296   -0.9537 H   0  0  0  0  0  0  0  0  0  0  0  0
    7.6340    3.2519    1.0156 H   0  0  0  0  0  0  0  0  0  0  0  0
    7.2718    1.5304    1.3783 H   0  0  0  0  0  0  0  0  0  0  0  0
    8.0032    1.9814   -0.1992 H   0  0  0  0  0  0  0  0  0  0  0  0
  1  3  1  0  0  0  0
  1  7  1  0  0  0  0
  1  2  2  0  0  0  0
 33 34  1  0  0  0  0
 34 42  1  0  0  0  0
 34 35  2  0  0  0  0
  8  9  1  0  0  0  0
  9 17  1  0  0  0  0
  9 10  2  0  0  0  0
 18 19  1  0  0  0  0
 19 32  1  0  0  0  0
 19 20  2  0  0  0  0
 22 23  1  0  0  0  0
 23 24  1  0  0  0  0
 23 25  2  0  0  0  0
 33 36  1  0  0  0  0
  8 11  1  0  0  0  0
 42 43  1  0  0  0  0
 21 22  1  0  0  0  0
 18 21  1  0  0  0  0
 32 33  1  0  0  0  0
  7  8  1  0  0  0  0
 17 18  1  0  0  0  0
  3  4  1  0  0  0  0
  3  5  1  0  0  0  0
  3  6  1  0  0  0  0
 36 39  1  0  0  0  0
 36 40  1  0  0  0  0
 36 41  1  0  0  0  0
 11 14  1  0  0  0  0
 11 15  1  0  0  0  0
 11 16  1  0  0  0  0
 43 45  1  0  0  0  0
 43 46  1  0  0  0  0
 43 47  1  0  0  0  0
 22 30  1  0  0  0  0
 22 31  1  0  0  0  0
 21 28  1  0  0  0  0
 21 29  1  0  0  0  0
 33 38  1  0  0  0  0
  8 13  1  0  0  0  0
 18 27  1  0  0  0  0
 42 44  1  0  0  0  0
  7 12  1  0  0  0  0
 32 37  1  0  0  0  0
 17 26  1  0  0  0  0
M  CHG  1  24  -1
M  END
$$$$

  -OEChem-05262214473D

 47 46  0     1  0  0  0  0  0999 V2000
    0.5093   -4.7265    3.0306 C   0  0  0  0  0  0  0  0  0  0  0  0
    1.2735   -4.4402    3.9448 O   0  0  0  0  0  0  0  0  0  0  0  0
   -0.4465   -5.8608    3.1982 C   0  0  0  0  0  0  0  0  0  0  0  0
   -0.0219   -6.8213    2.8645 H   0  0  0  0  0  0  0  0  0  0  0  0
   -0.7314   -6.0185    4.2509 H   0  0  0  0  0  0  0  0  0  0  0  0
   -1.3983   -5.7596    2.6527 H   0  0  0  0  0  0  0  0  0  0  0  0
    0.4252   -4.0886    1.8040 N   0  0  0  0  0  0  0  0  0  0  0  0
    1.2532   -2.9707    1.4349 C   0  0  2  0  0  0  0  0  0  0  0  0
    0.3395   -1.8293    1.0083 C   0  0  0  0  0  0  0  0  0  0  0  0
   -0.8136   -2.0027    0.6194 O   0  0  0  0  0  0  0  0  0  0  0  0
    2.2176   -3.3411    0.3189 C   0  0  0  0  0  0  0  0  0  0  0  0
   -0.2574   -4.4279    1.1287 H   0  0  0  0  0  0  0  0  0  0  0  0
    1.8087   -2.6785    2.3327 H   0  0  0  0  0  0  0  0  0  0  0  0
    1.6793   -3.6366   -0.5890 H   0  0  0  0  0  0  0  0  0  0  0  0
    2.8662   -2.4980    0.0589 H   0  0  0  0  0  0  0  0  0  0  0  0
    2.8538   -4.1816    0.6166 H   0  0  0  0  0  0  0  0  0  0  0  0
    0.9758   -0.5952    1.0708 N   0  0  0  0  0  0  0  0  0  0  0  0
    0.3258    0.6374    0.7059 C   0  0  2  0  0  0  0  0  0  0  0  0
    1.3004    1.4320   -0.1568 C   0  0  0  0  0  0  0  0  0  0  0  0
    0.9763    1.9648   -1.2162 O   0  0  0  0  0  0  0  0  0  0  0  0
   -0.0870    1.4547    1.9359 C   0  0  0  0  0  0  0  0  0  0  0  0
   -1.1868    0.7934    2.7656 C   0  0  0  0  0  0  0  0  0  0  0  0
   -1.6304    1.5469    4.0238 C   0  0  0  0  0  0  0  0  0  0  0  0
   -0.9289    2.5635    4.2958 O   0  5  0  0  0  0  0  0  0  0  0  0
   -2.6374    1.0845    4.6274 O   0  0  0  0  0  0  0  0  0  0  0  0
    1.9288   -0.5463    1.4242 H   0  0  0  0  0  0  0  0  0  0  0  0
   -0.5431    0.3658    0.0967 H   0  0  0  0  0  0  0  0  0  0  0  0
   -0.4136    2.4560    1.6288 H   0  0  0  0  0  0  0  0  0  0  0  0
    0.7889    1.6078    2.5805 H   0  0  0  0  0  0  0  0  0  0  0  0
   -2.0635    0.5977    2.1367 H   0  0  0  0  0  0  0  0  0  0  0  0
   -0.8227   -0.1845    3.1057 H   0  0  0  0  0  0  0  0  0  0  0  0
    2.5832    1.4351    0.3731 N   0  0  0  0  0  0  0  0  0  0  0  0
    3.6925    2.1060   -0.2642 C   0  0  2  0  0  0  0  0  0  0  0  0
    4.9813    1.5395    0.3168 C   0  0  0  0  0  0  0  0  0  0  0  0
    5.0365    0.9857    1.4128 O   0  0  0  0  0  0  0  0  0  0  0  0
    3.6199    3.6113   -0.0601 C   0  0  0  0  0  0  0  0  0  0  0  0
    2.7558    0.9794    1.2643 H   0  0  0  0  0  0  0  0  0  0  0  0
    3.6360    1.8664   -1.3316 H   0  0  0  0  0  0  0  0  0  0  0  0
    3.6749    3.8707    1.0034 H   0  0  0  0  0  0  0  0  0  0  0  0
    4.4455    4.1208   -0.5678 H   0  0  0  0  0  0  0  0  0  0  0  0
    2.6790    4.0128   -0.4519 H   0  0  0  0  0  0  0  0  0  0  0  0
    6.0707    1.7634   -0.5135 N   0  0  0  0  0  0  0  0  0  0  0  0
    7.4078    1.3321   -0.1787 C   0  0  0  0  0  0  0  0  0  0  0  0
    5.9292    2.2139   -1.4128 H   0  0  0  0  0  0  0  0  0  0  0  0
    7.9371    2.1455    0.3391 H   0  0  0  0  0  0  0  0  0  0  0  0
    7.3551    0.4520    0.4791 H   0  0  0  0  0  0  0  0  0  0  0  0
    7.9496    1.0698   -1.0993 H   0  0  0  0  0  0  0  0  0  0  0  0
  1  3  1  0  0  0  0
  1  7  1  0  0  0  0
  1  2  2  0  0  0  0
 33 34  1  0  0  0  0
 34 42  1  0  0  0  0
 34 35  2  0  0  0  0
  8  9  1  0  0  0  0
  9 17  1  0  0  0  0
  9 10  2  0  0  0  0
 18 19  1  0  0  0  0
 19 32  1  0  0  0  0
 19 20  2  0  0  0  0
 22 23  1  0  0  0  0
 23 24  1  0  0  0  0
 23 25  2  0  0  0  0
 33 36  1  0  0  0  0
  8 11  1  0  0  0  0
 42 43  1  0  0  0  0
 21 22  1  0  0  0  0
 18 21  1  0  0  0  0
 32 33  1  0  0  0  0
  7  8  1  0  0  0  0
 17 18  1  0  0  0  0
  3  4  1  0  0  0  0
  3  5  1  0  0  0  0
  3  6  1  0  0  0  0
 36 39  1  0  0  0  0
 36 40  1  0  0  0  0
 36 41  1  0  0  0  0
 11 14  1  0  0  0  0
 11 15  1  0  0  0  0
 11 16  1  0  0  0  0
 43 45  1  0  0  0  0
 43 46  1  0  0  0  0
 43 47  1  0  0  0  0
 22 30  1  0  0  0  0
 22 31  1  0  0  0  0
 21 28  1  0  0  0  0
 21 29  1  0  0  0  0
 33 38  1  0  0  0  0
  8 13  1  0  0  0  0
 18 27  1  0  0  0  0
 42 44  1  0  0  0  0
  7 12  1  0  0  0  0
 32 37  1  0  0  0  0
 17 26  1  0  0  0  0
M  CHG  1  24  -1
M  END
$$$$

  -OEChem-05262214473D

 47 46  0     1  0  0  0  0  0999 V2000
    0.5093   -4.7265    3.0306 C   0  0  0  0  0  0  0  0  0  0  0  0
    1.2735   -4.4402    3.9448 O   0  0  0  0  0  0  0  0  0  0  0  0
   -0.4465   -5.8608    3.1982 C   0  0  0  0  0  0  0  0  0  0  0  0
   -0.0219   -6.8213    2.8645 H   0  0  0  0  0  0  0  0  0  0  0  0
   -0.7314   -6.0185    4.2509 H   0  0  0  0  0  0  0  0  0  0  0  0
   -1.3983   -5.7596    2.6527 H   0  0  0  0  0  0  0  0  0  0  0  0
    0.4252   -4.0886    1.8040 N   0  0  0  0  0  0  0  0  0  0  0  0
    1.2532   -2.9707    1.4349 C   0  0  2  0  0  0  0  0  0  0  0  0
    0.3395   -1.8293    1.0083 C   0  0  0  0  0  0  0  0  0  0  0  0
   -0.8136   -2.0027    0.6194 O   0  0  0  0  0  0  0  0  0  0  0  0
    2.2176   -3.3411    0.3189 C   0  0  0  0  0  0  0  0  0  0  0  0
   -0.2574   -4.4279    1.1287 H   0  0  0  0  0  0  0  0  0  0  0  0
    1.8087   -2.6785    2.3327 H   0  0  0  0  0  0  0  0  0  0  0  0
    1.6793   -3.6366   -0.5890 H   0  0  0  0  0  0  0  0  0  0  0  0
    2.8662   -2.4980    0.0589 H   0  0  0  0  0  0  0  0  0  0  0  0
    2.8538   -4.1816    0.6166 H   0  0  0  0  0  0  0  0  0  0  0  0
    0.9758   -0.5952    1.0708 N   0  0  0  0  0  0  0  0  0  0  0  0
    0.3258    0.6374    0.7059 C   0  0  2  0  0  0  0  0  0  0  0  0
    1.3004    1.4320   -0.1568 C   0  0  0  0  0  0  0  0  0  0  0  0
    0.9371    2.1812   -1.0612 O   0  0  0  0  0  0  0  0  0  0  0  0
   -0.0870    1.4547    1.9359 C   0  0  0  0  0  0  0  0  0  0  0  0
   -1.1868    0.7934    2.7656 C   0  0  0  0  0  0  0  0  0  0  0  0
   -1.6304    1.5469    4.0238 C   0  0  0  0  0  0  0  0  0  0  0  0
   -0.9289    2.5635    4.2958 O   0  5  0  0  0  0  0  0  0  0  0  0
   -2.6374    1.0845    4.6274 O   0  0  0  0  0  0  0  0  0  0  0  0
    1.9288   -0.5463    1.4242 H   0  0  0  0  0  0  0  0  0  0  0  0
   -0.5431    0.3658    0.0967 H   0  0  0  0  0  0  0  0  0  0  0  0
   -0.4136    2.4560    1.6288 H   0  0  0  0  0  0  0  0  0  0  0  0
    0.7889    1.6078    2.5805 H   0  0  0  0  0  0  0  0  0  0  0  0
   -2.0635    0.5977    2.1367 H   0  0  0  0  0  0  0  0  0  0  0  0
   -0.8227   -0.1845    3.1057 H   0  0  0  0  0  0  0  0  0  0  0  0
    2.6228    1.1688    0.1725 N   0  0  0  0  0  0  0  0  0  0  0  0
    3.7375    1.7850   -0.5090 C   0  0  2  0  0  0  0  0  0  0  0  0
    4.9821    0.9566   -0.2192 C   0  0  0  0  0  0  0  0  0  0  0  0
    5.0831    0.2167    0.7572 O   0  0  0  0  0  0  0  0  0  0  0  0
    3.9288    3.2269   -0.0651 C   0  0  0  0  0  0  0  0  0  0  0  0
    2.8292    0.5447    0.9469 H   0  0  0  0  0  0  0  0  0  0  0  0
    3.5135    1.7463   -1.5806 H   0  0  0  0  0  0  0  0  0  0  0  0
    4.1540    3.2859    1.0060 H   0  0  0  0  0  0  0  0  0  0  0  0
    4.7560    3.7013   -0.6034 H   0  0  0  0  0  0  0  0  0  0  0  0
    3.0222    3.8142   -0.2470 H   0  0  0  0  0  0  0  0  0  0  0  0
    5.9831    1.1734   -1.1558 N   0  0  0  0  0  0  0  0  0  0  0  0
    7.2662    0.5135   -1.0926 C   0  0  0  0  0  0  0  0  0  0  0  0
    5.8054    1.7897   -1.9435 H   0  0  0  0  0  0  0  0  0  0  0  0
    7.9767    1.1444   -0.5383 H   0  0  0  0  0  0  0  0  0  0  0  0
    7.1564   -0.4530   -0.5790 H   0  0  0  0  0  0  0  0  0  0  0  0
    7.6430    0.3461   -2.1124 H   0  0  0  0  0  0  0  0  0  0  0  0
  1  3  1  0  0  0  0
  1  7  1  0  0  0  0
  1  2  2  0  0  0  0
 33 34  1  0  0  0  0
 34 42  1  0  0  0  0
 34 35  2  0  0  0  0
  8  9  1  0  0  0  0
  9 17  1  0  0  0  0
  9 10  2  0  0  0  0
 18 19  1  0  0  0  0
 19 32  1  0  0  0  0
 19 20  2  0  0  0  0
 22 23  1  0  0  0  0
 23 24  1  0  0  0  0
 23 25  2  0  0  0  0
 33 36  1  0  0  0  0
  8 11  1  0  0  0  0
 42 43  1  0  0  0  0
 21 22  1  0  0  0  0
 18 21  1  0  0  0  0
 32 33  1  0  0  0  0
  7  8  1  0  0  0  0
 17 18  1  0  0  0  0
  3  4  1  0  0  0  0
  3  5  1  0  0  0  0
  3  6  1  0  0  0  0
 36 39  1  0  0  0  0
 36 40  1  0  0  0  0
 36 41  1  0  0  0  0
 11 14  1  0  0  0  0
 11 15  1  0  0  0  0
 11 16  1  0  0  0  0
 43 45  1  0  0  0  0
 43 46  1  0  0  0  0
 43 47  1  0  0  0  0
 22 30  1  0  0  0  0
 22 31  1  0  0  0  0
 21 28  1  0  0  0  0
 21 29  1  0  0  0  0
 33 38  1  0  0  0  0
  8 13  1  0  0  0  0
 18 27  1  0  0  0  0
 42 44  1  0  0  0  0
  7 12  1  0  0  0  0
 32 37  1  0  0  0  0
 17 26  1  0  0  0  0
M  CHG  1  24  -1
M  END
$$$$

  -OEChem-05262214473D

 47 46  0     1  0  0  0  0  0999 V2000
    0.5093   -4.7265    3.0306 C   0  0  0  0  0  0  0  0  0  0  0  0
    1.2735   -4.4402    3.9448 O   0  0  0  0  0  0  0  0  0  0  0  0
   -0.4465   -5.8608    3.1982 C   0  0  0  0  0  0  0  0  0  0  0  0
   -0.0219   -6.8213    2.8645 H   0  0  0  0  0  0  0  0  0  0  0  0
   -0.7314   -6.0185    4.2509 H   0  0  0  0  0  0  0  0  0  0  0  0
   -1.3983   -5.7596    2.6527 H   0  0  0  0  0  0  0  0  0  0  0  0
    0.4252   -4.0886    1.8040 N   0  0  0  0  0  0  0  0  0  0  0  0
    1.2532   -2.9707    1.4349 C   0  0  2  0  0  0  0  0  0  0  0  0
    0.3395   -1.8293    1.0083 C   0  0  0  0  0  0  0  0  0  0  0  0
   -0.8136   -2.0027    0.6194 O   0  0  0  0  0  0  0  0  0  0  0  0
    2.2176   -3.3411    0.3189 C   0  0  0  0  0  0  0  0  0  0  0  0
   -0.2574   -4.4279    1.1287 H   0  0  0  0  0  0  0  0  0  0  0  0
    1.8087   -2.6785    2.3327 H   0  0  0  0  0  0  0  0  0  0  0  0
    1.6793   -3.6366   -0.5890 H   0  0  0  0  0  0  0  0  0  0  0  0
    2.8662   -2.4980    0.0589 H   0  0  0  0  0  0  0  0  0  0  0  0
    2.8538   -4.1816    0.6166 H   0  0  0  0  0  0  0  0  0  0  0  0
    0.9758   -0.5952    1.0708 N   0  0  0  0  0  0  0  0  0  0  0  0
    0.3258    0.6374    0.7059 C   0  0  2  0  0  0  0  0  0  0  0  0
    1.3004    1.4320   -0.1568 C   0  0  0  0  0  0  0  0  0  0  0  0
    0.9518    2.3704   -0.8704 O   0  0  0  0  0  0  0  0  0  0  0  0
   -0.0870    1.4547    1.9359 C   0  0  0  0  0  0  0  0  0  0  0  0
   -1.1868    0.7934    2.7656 C   0  0  0  0  0  0  0  0  0  0  0  0
   -1.6304    1.5469    4.0238 C   0  0  0  0  0  0  0  0  0  0  0  0
   -0.9289    2.5635    4.2958 O   0  5  0  0  0  0  0  0  0  0  0  0
   -2.6374    1.0845    4.6274 O   0  0  0  0  0  0  0  0  0  0  0  0
    1.9288   -0.5463    1.4242 H   0  0  0  0  0  0  0  0  0  0  0  0
   -0.5431    0.3658    0.0967 H   0  0  0  0  0  0  0  0  0  0  0  0
   -0.4136    2.4560    1.6288 H   0  0  0  0  0  0  0  0  0  0  0  0
    0.7889    1.6078    2.5805 H   0  0  0  0  0  0  0  0  0  0  0  0
   -2.0635    0.5977    2.1367 H   0  0  0  0  0  0  0  0  0  0  0  0
   -0.8227   -0.1845    3.1057 H   0  0  0  0  0  0  0  0  0  0  0  0
    2.5950    0.9389   -0.0706 N   0  0  0  0  0  0  0  0  0  0  0  0
    3.7009    1.5089   -0.8047 C   0  0  2  0  0  0  0  0  0  0  0  0
    4.8252    0.4820   -0.8335 C   0  0  0  0  0  0  0  0  0  0  0  0
    4.9272   -0.4244   -0.0095 O   0  0  0  0  0  0  0  0  0  0  0  0
    4.1702    2.8113   -0.1752 C   0  0  0  0  0  0  0  0  0  0  0  0
    2.7937    0.1666    0.5585 H   0  0  0  0  0  0  0  0  0  0  0  0
    3.3440    1.6893   -1.8245 H   0  0  0  0  0  0  0  0  0  0  0  0
    4.5315    2.6504    0.8471 H   0  0  0  0  0  0  0  0  0  0  0  0
    4.9896    3.2566   -0.7490 H   0  0  0  0  0  0  0  0  0  0  0  0
    3.3523    3.5384   -0.1281 H   0  0  0  0  0  0  0  0  0  0  0  0
    5.7255    0.7226   -1.8620 N   0  0  0  0  0  0  0  0  0  0  0  0
    6.8864   -0.1053   -2.0916 C   0  0  0  0  0  0  0  0  0  0  0  0
    5.5521    1.4858   -2.5096 H   0  0  0  0  0  0  0  0  0  0  0  0
    7.7500    0.3167   -1.5568 H   0  0  0  0  0  0  0  0  0  0  0  0
    6.6892   -1.1232   -1.7239 H   0  0  0  0  0  0  0  0  0  0  0  0
    7.1042   -0.1406   -3.1693 H   0  0  0  0  0  0  0  0  0  0  0  0
  1  3  1  0  0  0  0
  1  7  1  0  0  0  0
  1  2  2  0  0  0  0
 33 34  1  0  0  0  0
 34 42  1  0  0  0  0
 34 35  2  0  0  0  0
  8  9  1  0  0  0  0
  9 17  1  0  0  0  0
  9 10  2  0  0  0  0
 18 19  1  0  0  0  0
 19 32  1  0  0  0  0
 19 20  2  0  0  0  0
 22 23  1  0  0  0  0
 23 24  1  0  0  0  0
 23 25  2  0  0  0  0
 33 36  1  0  0  0  0
  8 11  1  0  0  0  0
 42 43  1  0  0  0  0
 21 22  1  0  0  0  0
 18 21  1  0  0  0  0
 32 33  1  0  0  0  0
  7  8  1  0  0  0  0
 17 18  1  0  0  0  0
  3  4  1  0  0  0  0
  3  5  1  0  0  0  0
  3  6  1  0  0  0  0
 36 39  1  0  0  0  0
 36 40  1  0  0  0  0
 36 41  1  0  0  0  0
 11 14  1  0  0  0  0
 11 15  1  0  0  0  0
 11 16  1  0  0  0  0
 43 45  1  0  0  0  0
 43 46  1  0  0  0  0
 43 47  1  0  0  0  0
 22 30  1  0  0  0  0
 22 31  1  0  0  0  0
 21 28  1  0  0  0  0
 21 29  1  0  0  0  0
 33 38  1  0  0  0  0
  8 13  1  0  0  0  0
 18 27  1  0  0  0  0
 42 44  1  0  0  0  0
  7 12  1  0  0  0  0
 32 37  1  0  0  0  0
 17 26  1  0  0  0  0
M  CHG  1  24  -1
M  END
$$$$

  -OEChem-05262214473D

 47 46  0     1  0  0  0  0  0999 V2000
    0.5093   -4.7265    3.0306 C   0  0  0  0  0  0  0  0  0  0  0  0
    1.2735   -4.4402    3.9448 O   0  0  0  0  0  0  0  0  0  0  0  0
   -0.4465   -5.8608    3.1982 C   0  0  0  0  0  0  0  0  0  0  0  0
   -0.0219   -6.8213    2.8645 H   0  0  0  0  0  0  0  0  0  0  0  0
   -0.7314   -6.0185    4.2509 H   0  0  0  0  0  0  0  0  0  0  0  0
   -1.3983   -5.7596    2.6527 H   0  0  0  0  0  0  0  0  0  0  0  0
    0.4252   -4.0886    1.8040 N   0  0  0  0  0  0  0  0  0  0  0  0
    1.2532   -2.9707    1.4349 C   0  0  2  0  0  0  0  0  0  0  0  0
    0.3395   -1.8293    1.0083 C   0  0  0  0  0  0  0  0  0  0  0  0
   -0.8136   -2.0027    0.6194 O   0  0  0  0  0  0  0  0  0  0  0  0
    2.2176   -3.3411    0.3189 C   0  0  0  0  0  0  0  0  0  0  0  0
   -0.2574   -4.4279    1.1287 H   0  0  0  0  0  0  0  0  0  0  0  0
    1.8087   -2.6785    2.3327 H   0  0  0  0  0  0  0  0  0  0  0  0
    1.6793   -3.6366   -0.5890 H   0  0  0  0  0  0  0  0  0  0  0  0
    2.8662   -2.4980    0.0589 H   0  0  0  0  0  0  0  0  0  0  0  0
    2.8538   -4.1816    0.6166 H   0  0  0  0  0  0  0  0  0  0  0  0
    0.9758   -0.5952    1.0708 N   0  0  0  0  0  0  0  0  0  0  0  0
    0.3258    0.6374    0.7059 C   0  0  2  0  0  0  0  0  0  0  0  0
    1.3004    1.4320   -0.1568 C   0  0  0  0  0  0  0  0  0  0  0  0
    1.0194    2.5194   -0.6567 O   0  0  0  0  0  0  0  0  0  0  0  0
   -0.0870    1.4547    1.9359 C   0  0  0  0  0  0  0  0  0  0  0  0
   -1.1868    0.7934    2.7656 C   0  0  0  0  0  0  0  0  0  0  0  0
   -1.6304    1.5469    4.0238 C   0  0  0  0  0  0  0  0  0  0  0  0
   -0.9289    2.5635    4.2958 O   0  5  0  0  0  0  0  0  0  0  0  0
   -2.6374    1.0845    4.6274 O   0  0  0  0  0  0  0  0  0  0  0  0
    1.9288   -0.5463    1.4242 H   0  0  0  0  0  0  0  0  0  0  0  0
   -0.5431    0.3658    0.0967 H   0  0  0  0  0  0  0  0  0  0  0  0
   -0.4136    2.4560    1.6288 H   0  0  0  0  0  0  0  0  0  0  0  0
    0.7889    1.6078    2.5805 H   0  0  0  0  0  0  0  0  0  0  0  0
   -2.0635    0.5977    2.1367 H   0  0  0  0  0  0  0  0  0  0  0  0
   -0.8227   -0.1845    3.1057 H   0  0  0  0  0  0  0  0  0  0  0  0
    2.5017    0.7612   -0.3397 N   0  0  0  0  0  0  0  0  0  0  0  0
    3.5852    1.2964   -1.1310 C   0  0  2  0  0  0  0  0  0  0  0  0
    4.5214    0.1482   -1.4842 C   0  0  0  0  0  0  0  0  0  0  0  0
    4.5792   -0.8941   -0.8351 O   0  0  0  0  0  0  0  0  0  0  0  0
    4.3277    2.3926   -0.3829 C   0  0  0  0  0  0  0  0  0  0  0  0
    2.6516   -0.1292    0.1255 H   0  0  0  0  0  0  0  0  0  0  0  0
    3.1391    1.6995   -2.0467 H   0  0  0  0  0  0  0  0  0  0  0  0
    4.7816    2.0076    0.5376 H   0  0  0  0  0  0  0  0  0  0  0  0
    5.1306    2.8169   -0.9948 H   0  0  0  0  0  0  0  0  0  0  0  0
    3.6468    3.2039   -0.1035 H   0  0  0  0  0  0  0  0  0  0  0  0
    5.3154    0.4417   -2.5840 N   0  0  0  0  0  0  0  0  0  0  0  0
    6.2942   -0.4822   -3.1078 C   0  0  0  0  0  0  0  0  0  0  0  0
    5.1866    1.3230   -3.0724 H   0  0  0  0  0  0  0  0  0  0  0  0
    7.2725   -0.2812   -2.6469 H   0  0  0  0  0  0  0  0  0  0  0  0
    5.9855   -1.5126   -2.8777 H   0  0  0  0  0  0  0  0  0  0  0  0
    6.3699   -0.3569   -4.1980 H   0  0  0  0  0  0  0  0  0  0  0  0
  1  3  1  0  0  0  0
  1  7  1  0  0  0  0
  1  2  2  0  0  0  0
 33 34  1  0  0  0  0
 34 42  1  0  0  0  0
 34 35  2  0  0  0  0
  8  9  1  0  0  0  0
  9 17  1  0  0  0  0
  9 10  2  0  0  0  0
 18 19  1  0  0  0  0
 19 32  1  0  0  0  0
 19 20  2  0  0  0  0
 22 23  1  0  0  0  0
 23 24  1  0  0  0  0
 23 25  2  0  0  0  0
 33 36  1  0  0  0  0
  8 11  1  0  0  0  0
 42 43  1  0  0  0  0
 21 22  1  0  0  0  0
 18 21  1  0  0  0  0
 32 33  1  0  0  0  0
  7  8  1  0  0  0  0
 17 18  1  0  0  0  0
  3  4  1  0  0  0  0
  3  5  1  0  0  0  0
  3  6  1  0  0  0  0
 36 39  1  0  0  0  0
 36 40  1  0  0  0  0
 36 41  1  0  0  0  0
 11 14  1  0  0  0  0
 11 15  1  0  0  0  0
 11 16  1  0  0  0  0
 43 45  1  0  0  0  0
 43 46  1  0  0  0  0
 43 47  1  0  0  0  0
 22 30  1  0  0  0  0
 22 31  1  0  0  0  0
 21 28  1  0  0  0  0
 21 29  1  0  0  0  0
 33 38  1  0  0  0  0
  8 13  1  0  0  0  0
 18 27  1  0  0  0  0
 42 44  1  0  0  0  0
  7 12  1  0  0  0  0
 32 37  1  0  0  0  0
 17 26  1  0  0  0  0
M  CHG  1  24  -1
M  END
$$$$

  -OEChem-05262214473D

 47 46  0     1  0  0  0  0  0999 V2000
    0.5093   -4.7265    3.0306 C   0  0  0  0  0  0  0  0  0  0  0  0
    1.2735   -4.4402    3.9448 O   0  0  0  0  0  0  0  0  0  0  0  0
   -0.4465   -5.8608    3.1982 C   0  0  0  0  0  0  0  0  0  0  0  0
   -0.0219   -6.8213    2.8645 H   0  0  0  0  0  0  0  0  0  0  0  0
   -0.7314   -6.0185    4.2509 H   0  0  0  0  0  0  0  0  0  0  0  0
   -1.3983   -5.7596    2.6527 H   0  0  0  0  0  0  0  0  0  0  0  0
    0.4252   -4.0886    1.8040 N   0  0  0  0  0  0  0  0  0  0  0  0
    1.2532   -2.9707    1.4349 C   0  0  2  0  0  0  0  0  0  0  0  0
    0.3395   -1.8293    1.0083 C   0  0  0  0  0  0  0  0  0  0  0  0
   -0.8136   -2.0027    0.6194 O   0  0  0  0  0  0  0  0  0  0  0  0
    2.2176   -3.3411    0.3189 C   0  0  0  0  0  0  0  0  0  0  0  0
   -0.2574   -4.4279    1.1287 H   0  0  0  0  0  0  0  0  0  0  0  0
    1.8087   -2.6785    2.3327 H   0  0  0  0  0  0  0  0  0  0  0  0
    1.6793   -3.6366   -0.5890 H   0  0  0  0  0  0  0  0  0  0  0  0
    2.8662   -2.4980    0.0589 H   0  0  0  0  0  0  0  0  0  0  0  0
    2.8538   -4.1816    0.6166 H   0  0  0  0  0  0  0  0  0  0  0  0
    0.9758   -0.5952    1.0708 N   0  0  0  0  0  0  0  0  0  0  0  0
    0.3258    0.6374    0.7059 C   0  0  2  0  0  0  0  0  0  0  0  0
    1.3004    1.4320   -0.1568 C   0  0  0  0  0  0  0  0  0  0  0  0
    1.1354    2.6180   -0.4348 O   0  0  0  0  0  0  0  0  0  0  0  0
   -0.0870    1.4547    1.9359 C   0  0  0  0  0  0  0  0  0  0  0  0
   -1.1868    0.7934    2.7656 C   0  0  0  0  0  0  0  0  0  0  0  0
   -1.6304    1.5469    4.0238 C   0  0  0  0  0  0  0  0  0  0  0  0
   -0.9289    2.5635    4.2958 O   0  5  0  0  0  0  0  0  0  0  0  0
   -2.6374    1.0845    4.6274 O   0  0  0  0  0  0  0  0  0  0  0  0
    1.9288   -0.5463    1.4242 H   0  0  0  0  0  0  0  0  0  0  0  0
   -0.5431    0.3658    0.0967 H   0  0  0  0  0  0  0  0  0  0  0  0
   -0.4136    2.4560    1.6288 H   0  0  0  0  0  0  0  0  0  0  0  0
    0.7889    1.6078    2.5805 H   0  0  0  0  0  0  0  0  0  0  0  0
   -2.0635    0.5977    2.1367 H   0  0  0  0  0  0  0  0  0  0  0  0
   -0.8227   -0.1845    3.1057 H   0  0  0  0  0  0  0  0  0  0  0  0
    2.3492    0.6477   -0.6165 N   0  0  0  0  0  0  0  0  0  0  0  0
    3.3984    1.1621   -1.4658 C   0  0  2  0  0  0  0  0  0  0  0  0
    4.0913   -0.0221   -2.1270 C   0  0  0  0  0  0  0  0  0  0  0  0
    4.0631   -1.1602   -1.6634 O   0  0  0  0  0  0  0  0  0  0  0  0
    4.3906    1.9995   -0.6739 C   0  0  0  0  0  0  0  0  0  0  0  0
    2.4126   -0.3225   -0.3225 H   0  0  0  0  0  0  0  0  0  0  0  0
    2.9127    1.7761   -2.2319 H   0  0  0  0  0  0  0  0  0  0  0  0
    4.8873    1.4013    0.0986 H   0  0  0  0  0  0  0  0  0  0  0  0
    5.1692    2.4122   -1.3239 H   0  0  0  0  0  0  0  0  0  0  0  0
    3.8856    2.8336   -0.1748 H   0  0  0  0  0  0  0  0  0  0  0  0
    4.7809    0.3499   -3.2725 N   0  0  0  0  0  0  0  0  0  0  0  0
    5.5299   -0.5915   -4.0718 C   0  0  0  0  0  0  0  0  0  0  0  0
    4.7338    1.3123   -3.5938 H   0  0  0  0  0  0  0  0  0  0  0  0
    6.5767   -0.6084   -3.7343 H   0  0  0  0  0  0  0  0  0  0  0  0
    5.0930   -1.5950   -3.9617 H   0  0  0  0  0  0  0  0  0  0  0  0
    5.4903   -0.2882   -5.1284 H   0  0  0  0  0  0  0  0  0  0  0  0
  1  3  1  0  0  0  0
  1  7  1  0  0  0  0
  1  2  2  0  0  0  0
 33 34  1  0  0  0  0
 34 42  1  0  0  0  0
 34 35  2  0  0  0  0
  8  9  1  0  0  0  0
  9 17  1  0  0  0  0
  9 10  2  0  0  0  0
 18 19  1  0  0  0  0
 19 32  1  0  0  0  0
 19 20  2  0  0  0  0
 22 23  1  0  0  0  0
 23 24  1  0  0  0  0
 23 25  2  0  0  0  0
 33 36  1  0  0  0  0
  8 11  1  0  0  0  0
 42 43  1  0  0  0  0
 21 22  1  0  0  0  0
 18 21  1  0  0  0  0
 32 33  1  0  0  0  0
  7  8  1  0  0  0  0
 17 18  1  0  0  0  0
  3  4  1  0  0  0  0
  3  5  1  0  0  0  0
  3  6  1  0  0  0  0
 36 39  1  0  0  0  0
 36 40  1  0  0  0  0
 36 41  1  0  0  0  0
 11 14  1  0  0  0  0
 11 15  1  0  0  0  0
 11 16  1  0  0  0  0
 43 45  1  0  0  0  0
 43 46  1  0  0  0  0
 43 47  1  0  0  0  0
 22 30  1  0  0  0  0
 22 31  1  0  0  0  0
 21 28  1  0  0  0  0
 21 29  1  0  0  0  0
 33 38  1  0  0  0  0
  8 13  1  0  0  0  0
 18 27  1  0  0  0  0
 42 44  1  0  0  0  0
  7 12  1  0  0  0  0
 32 37  1  0  0  0  0
 17 26  1  0  0  0  0
M  CHG  1  24  -1
M  END
$$$$

  -OEChem-05262214473D

 47 46  0     1  0  0  0  0  0999 V2000
    0.5093   -4.7265    3.0306 C   0  0  0  0  0  0  0  0  0  0  0  0
    1.2735   -4.4402    3.9448 O   0  0  0  0  0  0  0  0  0  0  0  0
   -0.4465   -5.8608    3.1982 C   0  0  0  0  0  0  0  0  0  0  0  0
   -0.0219   -6.8213    2.8645 H   0  0  0  0  0  0  0  0  0  0  0  0
   -0.7314   -6.0185    4.2509 H   0  0  0  0  0  0  0  0  0  0  0  0
   -1.3983   -5.7596    2.6527 H   0  0  0  0  0  0  0  0  0  0  0  0
    0.4252   -4.0886    1.8040 N   0  0  0  0  0  0  0  0  0  0  0  0
    1.2532   -2.9707    1.4349 C   0  0  2  0  0  0  0  0  0  0  0  0
    0.3395   -1.8293    1.0083 C   0  0  0  0  0  0  0  0  0  0  0  0
   -0.8136   -2.0027    0.6194 O   0  0  0  0  0  0  0  0  0  0  0  0
    2.2176   -3.3411    0.3189 C   0  0  0  0  0  0  0  0  0  0  0  0
   -0.2574   -4.4279    1.1287 H   0  0  0  0  0  0  0  0  0  0  0  0
    1.8087   -2.6785    2.3327 H   0  0  0  0  0  0  0  0  0  0  0  0
    1.6793   -3.6366   -0.5890 H   0  0  0  0  0  0  0  0  0  0  0  0
    2.8662   -2.4980    0.0589 H   0  0  0  0  0  0  0  0  0  0  0  0
    2.8538   -4.1816    0.6166 H   0  0  0  0  0  0  0  0  0  0  0  0
    0.9758   -0.5952    1.0708 N   0  0  0  0  0  0  0  0  0  0  0  0
    0.3258    0.6374    0.7059 C   0  0  2  0  0  0  0  0  0  0  0  0
    1.3004    1.4320   -0.1568 C   0  0  0  0  0  0  0  0  0  0  0  0
    1.2917    2.6597   -0.2198 O   0  0  0  0  0  0  0  0  0  0  0  0
   -0.0870    1.4547    1.9359 C   0  0  0  0  0  0  0  0  0  0  0  0
   -1.1868    0.7934    2.7656 C   0  0  0  0  0  0  0  0  0  0  0  0
   -1.6304    1.5469    4.0238 C   0  0  0  0  0  0  0  0  0  0  0  0
   -0.9289    2.5635    4.2958 O   0  5  0  0  0  0  0  0  0  0  0  0
   -2.6374    1.0845    4.6274 O   0  0  0  0  0  0  0  0  0  0  0  0
    1.9288   -0.5463    1.4242 H   0  0  0  0  0  0  0  0  0  0  0  0
   -0.5431    0.3658    0.0967 H   0  0  0  0  0  0  0  0  0  0  0  0
   -0.4136    2.4560    1.6288 H   0  0  0  0  0  0  0  0  0  0  0  0
    0.7889    1.6078    2.5805 H   0  0  0  0  0  0  0  0  0  0  0  0
   -2.0635    0.5977    2.1367 H   0  0  0  0  0  0  0  0  0  0  0  0
   -0.8227   -0.1845    3.1057 H   0  0  0  0  0  0  0  0  0  0  0  0
    2.1480    0.6061   -0.8821 N   0  0  0  0  0  0  0  0  0  0  0  0
    3.1532    1.1151   -1.7862 C   0  0  2  0  0  0  0  0  0  0  0  0
    3.5642   -0.0173   -2.7180 C   0  0  0  0  0  0  0  0  0  0  0  0
    3.4138   -1.2047   -2.4378 O   0  0  0  0  0  0  0  0  0  0  0  0
    4.3545    1.6588   -1.0286 C   0  0  0  0  0  0  0  0  0  0  0  0
    2.0931   -0.4001   -0.7549 H   0  0  0  0  0  0  0  0  0  0  0  0
    2.6802    1.9139   -2.3677 H   0  0  0  0  0  0  0  0  0  0  0  0
    4.8415    0.8727   -0.4400 H   0  0  0  0  0  0  0  0  0  0  0  0
    5.1028    2.0701   -1.7140 H   0  0  0  0  0  0  0  0  0  0  0  0
    4.0524    2.4528   -0.3371 H   0  0  0  0  0  0  0  0  0  0  0  0
    4.1582    0.4533   -3.8807 N   0  0  0  0  0  0  0  0  0  0  0  0
    4.6457   -0.4256   -4.9180 C   0  0  0  0  0  0  0  0  0  0  0  0
    4.2245    1.4546   -4.0381 H   0  0  0  0  0  0  0  0  0  0  0  0
    5.7101   -0.6427   -4.7450 H   0  0  0  0  0  0  0  0  0  0  0  0
    4.0728   -1.3645   -4.9021 H   0  0  0  0  0  0  0  0  0  0  0  0
    4.5253    0.0609   -5.8972 H   0  0  0  0  0  0  0  0  0  0  0  0
  1  3  1  0  0  0  0
  1  7  1  0  0  0  0
  1  2  2  0  0  0  0
 33 34  1  0  0  0  0
 34 42  1  0  0  0  0
 34 35  2  0  0  0  0
  8  9  1  0  0  0  0
  9 17  1  0  0  0  0
  9 10  2  0  0  0  0
 18 19  1  0  0  0  0
 19 32  1  0  0  0  0
 19 20  2  0  0  0  0
 22 23  1  0  0  0  0
 23 24  1  0  0  0  0
 23 25  2  0  0  0  0
 33 36  1  0  0  0  0
  8 11  1  0  0  0  0
 42 43  1  0  0  0  0
 21 22  1  0  0  0  0
 18 21  1  0  0  0  0
 32 33  1  0  0  0  0
  7  8  1  0  0  0  0
 17 18  1  0  0  0  0
  3  4  1  0  0  0  0
  3  5  1  0  0  0  0
  3  6  1  0  0  0  0
 36 39  1  0  0  0  0
 36 40  1  0  0  0  0
 36 41  1  0  0  0  0
 11 14  1  0  0  0  0
 11 15  1  0  0  0  0
 11 16  1  0  0  0  0
 43 45  1  0  0  0  0
 43 46  1  0  0  0  0
 43 47  1  0  0  0  0
 22 30  1  0  0  0  0
 22 31  1  0  0  0  0
 21 28  1  0  0  0  0
 21 29  1  0  0  0  0
 33 38  1  0  0  0  0
  8 13  1  0  0  0  0
 18 27  1  0  0  0  0
 42 44  1  0  0  0  0
  7 12  1  0  0  0  0
 32 37  1  0  0  0  0
 17 26  1  0  0  0  0
M  CHG  1  24  -1
M  END
$$$$

  -OEChem-05262214473D

 47 46  0     1  0  0  0  0  0999 V2000
    0.5093   -4.7265    3.0306 C   0  0  0  0  0  0  0  0  0  0  0  0
    1.2735   -4.4402    3.9448 O   0  0  0  0  0  0  0  0  0  0  0  0
   -0.4465   -5.8608    3.1982 C   0  0  0  0  0  0  0  0  0  0  0  0
   -0.0219   -6.8213    2.8645 H   0  0  0  0  0  0  0  0  0  0  0  0
   -0.7314   -6.0185    4.2509 H   0  0  0  0  0  0  0  0  0  0  0  0
   -1.3983   -5.7596    2.6527 H   0  0  0  0  0  0  0  0  0  0  0  0
    0.4252   -4.0886    1.8040 N   0  0  0  0  0  0  0  0  0  0  0  0
    1.2532   -2.9707    1.4349 C   0  0  2  0  0  0  0  0  0  0  0  0
    0.3395   -1.8293    1.0083 C   0  0  0  0  0  0  0  0  0  0  0  0
   -0.8136   -2.0027    0.6194 O   0  0  0  0  0  0  0  0  0  0  0  0
    2.2176   -3.3411    0.3189 C   0  0  0  0  0  0  0  0  0  0  0  0
   -0.2574   -4.4279    1.1287 H   0  0  0  0  0  0  0  0  0  0  0  0
    1.8087   -2.6785    2.3327 H   0  0  0  0  0  0  0  0  0  0  0  0
    1.6793   -3.6366   -0.5890 H   0  0  0  0  0  0  0  0  0  0  0  0
    2.8662   -2.4980    0.0589 H   0  0  0  0  0  0  0  0  0  0  0  0
    2.8538   -4.1816    0.6166 H   0  0  0  0  0  0  0  0  0  0  0  0
    0.9758   -0.5952    1.0708 N   0  0  0  0  0  0  0  0  0  0  0  0
    0.3258    0.6374    0.7059 C   0  0  2  0  0  0  0  0  0  0  0  0
    1.3004    1.4320   -0.1568 C   0  0  0  0  0  0  0  0  0  0  0  0
    1.4779    2.6414   -0.0263 O   0  0  0  0  0  0  0  0  0  0  0  0
   -0.0870    1.4547    1.9359 C   0  0  0  0  0  0  0  0  0  0  0  0
   -1.1868    0.7934    2.7656 C   0  0  0  0  0  0  0  0  0  0  0  0
   -1.6304    1.5469    4.0238 C   0  0  0  0  0  0  0  0  0  0  0  0
   -0.9289    2.5635    4.2958 O   0  5  0  0  0  0  0  0  0  0  0  0
   -2.6374    1.0845    4.6274 O   0  0  0  0  0  0  0  0  0  0  0  0
    1.9288   -0.5463    1.4242 H   0  0  0  0  0  0  0  0  0  0  0  0
   -0.5431    0.3658    0.0967 H   0  0  0  0  0  0  0  0  0  0  0  0
   -0.4136    2.4560    1.6288 H   0  0  0  0  0  0  0  0  0  0  0  0
    0.7889    1.6078    2.5805 H   0  0  0  0  0  0  0  0  0  0  0  0
   -2.0635    0.5977    2.1367 H   0  0  0  0  0  0  0  0  0  0  0  0
   -0.8227   -0.1845    3.1057 H   0  0  0  0  0  0  0  0  0  0  0  0
    1.9118    0.6394   -1.1183 N   0  0  0  0  0  0  0  0  0  0  0  0
    2.8662    1.1586   -2.0703 C   0  0  2  0  0  0  0  0  0  0  0  0
    2.9761    0.1623   -3.2170 C   0  0  0  0  0  0  0  0  0  0  0  0
    2.6757   -1.0245   -3.1057 O   0  0  0  0  0  0  0  0  0  0  0  0
    4.2219    1.3936   -1.4226 C   0  0  0  0  0  0  0  0  0  0  0  0
    1.7148   -0.3568   -1.1424 H   0  0  0  0  0  0  0  0  0  0  0  0
    2.4575    2.1035   -2.4446 H   0  0  0  0  0  0  0  0  0  0  0  0
    4.6472    0.4580   -1.0415 H   0  0  0  0  0  0  0  0  0  0  0  0
    4.9361    1.8139   -2.1384 H   0  0  0  0  0  0  0  0  0  0  0  0
    4.1359    2.0874   -0.5794 H   0  0  0  0  0  0  0  0  0  0  0  0
    3.4899    0.7450   -4.3671 N   0  0  0  0  0  0  0  0  0  0  0  0
    3.7018    0.0040   -5.5886 C   0  0  0  0  0  0  0  0  0  0  0  0
    3.6936    1.7401   -4.3750 H   0  0  0  0  0  0  0  0  0  0  0  0
    4.7317   -0.3818   -5.6101 H   0  0  0  0  0  0  0  0  0  0  0  0
    2.9943   -0.8369   -5.6347 H   0  0  0  0  0  0  0  0  0  0  0  0
    3.5406    0.6665   -6.4518 H   0  0  0  0  0  0  0  0  0  0  0  0
  1  3  1  0  0  0  0
  1  7  1  0  0  0  0
  1  2  2  0  0  0  0
 33 34  1  0  0  0  0
 34 42  1  0  0  0  0
 34 35  2  0  0  0  0
  8  9  1  0  0  0  0
  9 17  1  0  0  0  0
  9 10  2  0  0  0  0
 18 19  1  0  0  0  0
 19 32  1  0  0  0  0
 19 20  2  0  0  0  0
 22 23  1  0  0  0  0
 23 24  1  0  0  0  0
 23 25  2  0  0  0  0
 33 36  1  0  0  0  0
  8 11  1  0  0  0  0
 42 43  1  0  0  0  0
 21 22  1  0  0  0  0
 18 21  1  0  0  0  0
 32 33  1  0  0  0  0
  7  8  1  0  0  0  0
 17 18  1  0  0  0  0
  3  4  1  0  0  0  0
  3  5  1  0  0  0  0
  3  6  1  0  0  0  0
 36 39  1  0  0  0  0
 36 40  1  0  0  0  0
 36 41  1  0  0  0  0
 11 14  1  0  0  0  0
 11 15  1  0  0  0  0
 11 16  1  0  0  0  0
 43 45  1  0  0  0  0
 43 46  1  0  0  0  0
 43 47  1  0  0  0  0
 22 30  1  0  0  0  0
 22 31  1  0  0  0  0
 21 28  1  0  0  0  0
 21 29  1  0  0  0  0
 33 38  1  0  0  0  0
  8 13  1  0  0  0  0
 18 27  1  0  0  0  0
 42 44  1  0  0  0  0
  7 12  1  0  0  0  0
 32 37  1  0  0  0  0
 17 26  1  0  0  0  0
M  CHG  1  24  -1
M  END
$$$$

  -OEChem-05262214473D

 47 46  0     1  0  0  0  0  0999 V2000
    0.5093   -4.7265    3.0306 C   0  0  0  0  0  0  0  0  0  0  0  0
    1.2735   -4.4402    3.9448 O   0  0  0  0  0  0  0  0  0  0  0  0
   -0.4465   -5.8608    3.1982 C   0  0  0  0  0  0  0  0  0  0  0  0
   -0.0219   -6.8213    2.8645 H   0  0  0  0  0  0  0  0  0  0  0  0
   -0.7314   -6.0185    4.2509 H   0  0  0  0  0  0  0  0  0  0  0  0
   -1.3983   -5.7596    2.6527 H   0  0  0  0  0  0  0  0  0  0  0  0
    0.4252   -4.0886    1.8040 N   0  0  0  0  0  0  0  0  0  0  0  0
    1.2532   -2.9707    1.4349 C   0  0  2  0  0  0  0  0  0  0  0  0
    0.3395   -1.8293    1.0083 C   0  0  0  0  0  0  0  0  0  0  0  0
   -0.8136   -2.0027    0.6194 O   0  0  0  0  0  0  0  0  0  0  0  0
    2.2176   -3.3411    0.3189 C   0  0  0  0  0  0  0  0  0  0  0  0
   -0.2574   -4.4279    1.1287 H   0  0  0  0  0  0  0  0  0  0  0  0
    1.8087   -2.6785    2.3327 H   0  0  0  0  0  0  0  0  0  0  0  0
    1.6793   -3.6366   -0.5890 H   0  0  0  0  0  0  0  0  0  0  0  0
    2.8662   -2.4980    0.0589 H   0  0  0  0  0  0  0  0  0  0  0  0
    2.8538   -4.1816    0.6166 H   0  0  0  0  0  0  0  0  0  0  0  0
    0.9758   -0.5952    1.0708 N   0  0  0  0  0  0  0  0  0  0  0  0
    0.3258    0.6374    0.7059 C   0  0  2  0  0  0  0  0  0  0  0  0
    1.3004    1.4320   -0.1568 C   0  0  0  0  0  0  0  0  0  0  0  0
    1.6811    2.5645    0.1324 O   0  0  0  0  0  0  0  0  0  0  0  0
   -0.0870    1.4547    1.9359 C   0  0  0  0  0  0  0  0  0  0  0  0
   -1.1868    0.7934    2.7656 C   0  0  0  0  0  0  0  0  0  0  0  0
   -1.6304    1.5469    4.0238 C   0  0  0  0  0  0  0  0  0  0  0  0
   -0.9289    2.5635    4.2958 O   0  5  0  0  0  0  0  0  0  0  0  0
   -2.6374    1.0845    4.6274 O   0  0  0  0  0  0  0  0  0  0  0  0
    1.9288   -0.5463    1.4242 H   0  0  0  0  0  0  0  0  0  0  0  0
   -0.5431    0.3658    0.0967 H   0  0  0  0  0  0  0  0  0  0  0  0
   -0.4136    2.4560    1.6288 H   0  0  0  0  0  0  0  0  0  0  0  0
    0.7889    1.6078    2.5805 H   0  0  0  0  0  0  0  0  0  0  0  0
   -2.0635    0.5977    2.1367 H   0  0  0  0  0  0  0  0  0  0  0  0
   -0.8227   -0.1845    3.1057 H   0  0  0  0  0  0  0  0  0  0  0  0
    1.6566    0.7452   -1.3092 N   0  0  0  0  0  0  0  0  0  0  0  0
    2.5570    1.2896   -2.2989 C   0  0  2  0  0  0  0  0  0  0  0  0
    2.3670    0.5044   -3.5900 C   0  0  0  0  0  0  0  0  0  0  0  0
    1.8991   -0.6319   -3.6214 O   0  0  0  0  0  0  0  0  0  0  0  0
    4.0018    1.2220   -1.8292 C   0  0  0  0  0  0  0  0  0  0  0  0
    1.3035   -0.1954   -1.4584 H   0  0  0  0  0  0  0  0  0  0  0  0
    2.2598    2.3320   -2.4576 H   0  0  0  0  0  0  0  0  0  0  0  0
    4.3176    0.1853   -1.6649 H   0  0  0  0  0  0  0  0  0  0  0  0
    4.6802    1.6610   -2.5682 H   0  0  0  0  0  0  0  0  0  0  0  0
    4.1304    1.7622   -0.8851 H   0  0  0  0  0  0  0  0  0  0  0  0
    2.8214    1.2050   -4.6986 N   0  0  0  0  0  0  0  0  0  0  0  0
    2.7625    0.6682   -6.0381 C   0  0  0  0  0  0  0  0  0  0  0  0
    3.1770    2.1493   -4.5816 H   0  0  0  0  0  0  0  0  0  0  0  0
    3.7081    0.1565   -6.2705 H   0  0  0  0  0  0  0  0  0  0  0  0
    1.9309   -0.0483   -6.1096 H   0  0  0  0  0  0  0  0  0  0  0  0
    2.6033    1.4875   -6.7546 H   0  0  0  0  0  0  0  0  0  0  0  0
  1  3  1  0  0  0  0
  1  7  1  0  0  0  0
  1  2  2  0  0  0  0
 33 34  1  0  0  0  0
 34 42  1  0  0  0  0
 34 35  2  0  0  0  0
  8  9  1  0  0  0  0
  9 17  1  0  0  0  0
  9 10  2  0  0  0  0
 18 19  1  0  0  0  0
 19 32  1  0  0  0  0
 19 20  2  0  0  0  0
 22 23  1  0  0  0  0
 23 24  1  0  0  0  0
 23 25  2  0  0  0  0
 33 36  1  0  0  0  0
  8 11  1  0  0  0  0
 42 43  1  0  0  0  0
 21 22  1  0  0  0  0
 18 21  1  0  0  0  0
 32 33  1  0  0  0  0
  7  8  1  0  0  0  0
 17 18  1  0  0  0  0
  3  4  1  0  0  0  0
  3  5  1  0  0  0  0
  3  6  1  0  0  0  0
 36 39  1  0  0  0  0
 36 40  1  0  0  0  0
 36 41  1  0  0  0  0
 11 14  1  0  0  0  0
 11 15  1  0  0  0  0
 11 16  1  0  0  0  0
 43 45  1  0  0  0  0
 43 46  1  0  0  0  0
 43 47  1  0  0  0  0
 22 30  1  0  0  0  0
 22 31  1  0  0  0  0
 21 28  1  0  0  0  0
 21 29  1  0  0  0  0
 33 38  1  0  0  0  0
  8 13  1  0  0  0  0
 18 27  1  0  0  0  0
 42 44  1  0  0  0  0
  7 12  1  0  0  0  0
 32 37  1  0  0  0  0
 17 26  1  0  0  0  0
M  CHG  1  24  -1
M  END
$$$$

  -OEChem-05262214473D

 47 46  0     1  0  0  0  0  0999 V2000
    0.5093   -4.7265    3.0306 C   0  0  0  0  0  0  0  0  0  0  0  0
    1.2735   -4.4402    3.9448 O   0  0  0  0  0  0  0  0  0  0  0  0
   -0.4465   -5.8608    3.1982 C   0  0  0  0  0  0  0  0  0  0  0  0
   -0.0219   -6.8213    2.8645 H   0  0  0  0  0  0  0  0  0  0  0  0
   -0.7314   -6.0185    4.2509 H   0  0  0  0  0  0  0  0  0  0  0  0
   -1.3983   -5.7596    2.6527 H   0  0  0  0  0  0  0  0  0  0  0  0
    0.4252   -4.0886    1.8040 N   0  0  0  0  0  0  0  0  0  0  0  0
    1.2532   -2.9707    1.4349 C   0  0  2  0  0  0  0  0  0  0  0  0
    0.3395   -1.8293    1.0083 C   0  0  0  0  0  0  0  0  0  0  0  0
   -0.8136   -2.0027    0.6194 O   0  0  0  0  0  0  0  0  0  0  0  0
    2.2176   -3.3411    0.3189 C   0  0  0  0  0  0  0  0  0  0  0  0
   -0.2574   -4.4279    1.1287 H   0  0  0  0  0  0  0  0  0  0  0  0
    1.8087   -2.6785    2.3327 H   0  0  0  0  0  0  0  0  0  0  0  0
    1.6793   -3.6366   -0.5890 H   0  0  0  0  0  0  0  0  0  0  0  0
    2.8662   -2.4980    0.0589 H   0  0  0  0  0  0  0  0  0  0  0  0
    2.8538   -4.1816    0.6166 H   0  0  0  0  0  0  0  0  0  0  0  0
    0.9758   -0.5952    1.0708 N   0  0  0  0  0  0  0  0  0  0  0  0
    0.3258    0.6374    0.7059 C   0  0  2  0  0  0  0  0  0  0  0  0
    1.3004    1.4320   -0.1568 C   0  0  0  0  0  0  0  0  0  0  0  0
    1.8876    2.4343    0.2457 O   0  0  0  0  0  0  0  0  0  0  0  0
   -0.0870    1.4547    1.9359 C   0  0  0  0  0  0  0  0  0  0  0  0
   -1.1868    0.7934    2.7656 C   0  0  0  0  0  0  0  0  0  0  0  0
   -1.6304    1.5469    4.0238 C   0  0  0  0  0  0  0  0  0  0  0  0
   -0.9289    2.5635    4.2958 O   0  5  0  0  0  0  0  0  0  0  0  0
   -2.6374    1.0845    4.6274 O   0  0  0  0  0  0  0  0  0  0  0  0
    1.9288   -0.5463    1.4242 H   0  0  0  0  0  0  0  0  0  0  0  0
   -0.5431    0.3658    0.0967 H   0  0  0  0  0  0  0  0  0  0  0  0
   -0.4136    2.4560    1.6288 H   0  0  0  0  0  0  0  0  0  0  0  0
    0.7889    1.6078    2.5805 H   0  0  0  0  0  0  0  0  0  0  0  0
   -2.0635    0.5977    2.1367 H   0  0  0  0  0  0  0  0  0  0  0  0
   -0.8227   -0.1845    3.1057 H   0  0  0  0  0  0  0  0  0  0  0  0
    1.3998    0.9163   -1.4416 N   0  0  0  0  0  0  0  0  0  0  0  0
    2.2467    1.4993   -2.4564 C   0  0  2  0  0  0  0  0  0  0  0  0
    1.7785    0.9858   -3.8116 C   0  0  0  0  0  0  0  0  0  0  0  0
    1.1369   -0.0536   -3.9499 O   0  0  0  0  0  0  0  0  0  0  0  0
    3.7093    1.1558   -2.2207 C   0  0  0  0  0  0  0  0  0  0  0  0
    0.8872    0.0729   -1.6816 H   0  0  0  0  0  0  0  0  0  0  0  0
    2.1005    2.5837   -2.4057 H   0  0  0  0  0  0  0  0  0  0  0  0
    3.8753    0.0733   -2.2677 H   0  0  0  0  0  0  0  0  0  0  0  0
    4.3527    1.6219   -2.9742 H   0  0  0  0  0  0  0  0  0  0  0  0
    4.0362    1.4996   -1.2334 H   0  0  0  0  0  0  0  0  0  0  0  0
    2.1984    1.8021   -4.8524 N   0  0  0  0  0  0  0  0  0  0  0  0
    1.8919    1.5216   -6.2357 C   0  0  0  0  0  0  0  0  0  0  0  0
    2.7102    2.6544   -4.6438 H   0  0  0  0  0  0  0  0  0  0  0  0
    2.7092    0.9357   -6.6814 H   0  0  0  0  0  0  0  0  0  0  0  0
    0.9552    0.9478   -6.2944 H   0  0  0  0  0  0  0  0  0  0  0  0
    1.7773    2.4677   -6.7849 H   0  0  0  0  0  0  0  0  0  0  0  0
  1  3  1  0  0  0  0
  1  7  1  0  0  0  0
  1  2  2  0  0  0  0
 33 34  1  0  0  0  0
 34 42  1  0  0  0  0
 34 35  2  0  0  0  0
  8  9  1  0  0  0  0
  9 17  1  0  0  0  0
  9 10  2  0  0  0  0
 18 19  1  0  0  0  0
 19 32  1  0  0  0  0
 19 20  2  0  0  0  0
 22 23  1  0  0  0  0
 23 24  1  0  0  0  0
 23 25  2  0  0  0  0
 33 36  1  0  0  0  0
  8 11  1  0  0  0  0
 42 43  1  0  0  0  0
 21 22  1  0  0  0  0
 18 21  1  0  0  0  0
 32 33  1  0  0  0  0
  7  8  1  0  0  0  0
 17 18  1  0  0  0  0
  3  4  1  0  0  0  0
  3  5  1  0  0  0  0
  3  6  1  0  0  0  0
 36 39  1  0  0  0  0
 36 40  1  0  0  0  0
 36 41  1  0  0  0  0
 11 14  1  0  0  0  0
 11 15  1  0  0  0  0
 11 16  1  0  0  0  0
 43 45  1  0  0  0  0
 43 46  1  0  0  0  0
 43 47  1  0  0  0  0
 22 30  1  0  0  0  0
 22 31  1  0  0  0  0
 21 28  1  0  0  0  0
 21 29  1  0  0  0  0
 33 38  1  0  0  0  0
  8 13  1  0  0  0  0
 18 27  1  0  0  0  0
 42 44  1  0  0  0  0
  7 12  1  0  0  0  0
 32 37  1  0  0  0  0
 17 26  1  0  0  0  0
M  CHG  1  24  -1
M  END
$$$$

  -OEChem-05262214473D

 47 46  0     1  0  0  0  0  0999 V2000
    0.5093   -4.7265    3.0306 C   0  0  0  0  0  0  0  0  0  0  0  0
    1.2735   -4.4402    3.9448 O   0  0  0  0  0  0  0  0  0  0  0  0
   -0.4465   -5.8608    3.1982 C   0  0  0  0  0  0  0  0  0  0  0  0
   -0.0219   -6.8213    2.8645 H   0  0  0  0  0  0  0  0  0  0  0  0
   -0.7314   -6.0185    4.2509 H   0  0  0  0  0  0  0  0  0  0  0  0
   -1.3983   -5.7596    2.6527 H   0  0  0  0  0  0  0  0  0  0  0  0
    0.4252   -4.0886    1.8040 N   0  0  0  0  0  0  0  0  0  0  0  0
    1.2532   -2.9707    1.4349 C   0  0  2  0  0  0  0  0  0  0  0  0
    0.3395   -1.8293    1.0083 C   0  0  0  0  0  0  0  0  0  0  0  0
   -0.8136   -2.0027    0.6194 O   0  0  0  0  0  0  0  0  0  0  0  0
    2.2176   -3.3411    0.3189 C   0  0  0  0  0  0  0  0  0  0  0  0
   -0.2574   -4.4279    1.1287 H   0  0  0  0  0  0  0  0  0  0  0  0
    1.8087   -2.6785    2.3327 H   0  0  0  0  0  0  0  0  0  0  0  0
    1.6793   -3.6366   -0.5890 H   0  0  0  0  0  0  0  0  0  0  0  0
    2.8662   -2.4980    0.0589 H   0  0  0  0  0  0  0  0  0  0  0  0
    2.8538   -4.1816    0.6166 H   0  0  0  0  0  0  0  0  0  0  0  0
    0.9758   -0.5952    1.0708 N   0  0  0  0  0  0  0  0  0  0  0  0
    0.3258    0.6374    0.7059 C   0  0  2  0  0  0  0  0  0  0  0  0
    1.3004    1.4320   -0.1568 C   0  0  0  0  0  0  0  0  0  0  0  0
    2.0832    2.2594    0.3056 O   0  0  0  0  0  0  0  0  0  0  0  0
   -0.0870    1.4547    1.9359 C   0  0  0  0  0  0  0  0  0  0  0  0
   -1.1868    0.7934    2.7656 C   0  0  0  0  0  0  0  0  0  0  0  0
   -1.6304    1.5469    4.0238 C   0  0  0  0  0  0  0  0  0  0  0  0
   -0.9289    2.5635    4.2958 O   0  5  0  0  0  0  0  0  0  0  0  0
   -2.6374    1.0845    4.6274 O   0  0  0  0  0  0  0  0  0  0  0  0
    1.9288   -0.5463    1.4242 H   0  0  0  0  0  0  0  0  0  0  0  0
   -0.5431    0.3658    0.0967 H   0  0  0  0  0  0  0  0  0  0  0  0
   -0.4136    2.4560    1.6288 H   0  0  0  0  0  0  0  0  0  0  0  0
    0.7889    1.6078    2.5805 H   0  0  0  0  0  0  0  0  0  0  0  0
   -2.0635    0.5977    2.1367 H   0  0  0  0  0  0  0  0  0  0  0  0
   -0.8227   -0.1845    3.1057 H   0  0  0  0  0  0  0  0  0  0  0  0
    1.1590    1.1411   -1.5066 N   0  0  0  0  0  0  0  0  0  0  0  0
    1.9565    1.7732   -2.5319 C   0  0  2  0  0  0  0  0  0  0  0  0
    1.2506    1.5735   -3.8666 C   0  0  0  0  0  0  0  0  0  0  0  0
    0.4410    0.6709   -4.0688 O   0  0  0  0  0  0  0  0  0  0  0  0
    3.3643    1.1994   -2.5703 C   0  0  0  0  0  0  0  0  0  0  0  0
    0.4943    0.4300   -1.7966 H   0  0  0  0  0  0  0  0  0  0  0  0
    1.9905    2.8416   -2.2924 H   0  0  0  0  0  0  0  0  0  0  0  0
    3.3504    0.1296   -2.8089 H   0  0  0  0  0  0  0  0  0  0  0  0
    3.9759    1.6992   -3.3287 H   0  0  0  0  0  0  0  0  0  0  0  0
    3.8598    1.3173   -1.6006 H   0  0  0  0  0  0  0  0  0  0  0  0
    1.6633    2.4955   -4.8183 N   0  0  0  0  0  0  0  0  0  0  0  0
    1.1492    2.5060   -6.1680 C   0  0  0  0  0  0  0  0  0  0  0  0
    2.3248    3.2209   -4.5574 H   0  0  0  0  0  0  0  0  0  0  0  0
    1.8030    1.9025   -6.8147 H   0  0  0  0  0  0  0  0  0  0  0  0
    0.1337    2.0833   -6.1766 H   0  0  0  0  0  0  0  0  0  0  0  0
    1.1189    3.5406   -6.5406 H   0  0  0  0  0  0  0  0  0  0  0  0
  1  3  1  0  0  0  0
  1  7  1  0  0  0  0
  1  2  2  0  0  0  0
 33 34  1  0  0  0  0
 34 42  1  0  0  0  0
 34 35  2  0  0  0  0
  8  9  1  0  0  0  0
  9 17  1  0  0  0  0
  9 10  2  0  0  0  0
 18 19  1  0  0  0  0
 19 32  1  0  0  0  0
 19 20  2  0  0  0  0
 22 23  1  0  0  0  0
 23 24  1  0  0  0  0
 23 25  2  0  0  0  0
 33 36  1  0  0  0  0
  8 11  1  0  0  0  0
 42 43  1  0  0  0  0
 21 22  1  0  0  0  0
 18 21  1  0  0  0  0
 32 33  1  0  0  0  0
  7  8  1  0  0  0  0
 17 18  1  0  0  0  0
  3  4  1  0  0  0  0
  3  5  1  0  0  0  0
  3  6  1  0  0  0  0
 36 39  1  0  0  0  0
 36 40  1  0  0  0  0
 36 41  1  0  0  0  0
 11 14  1  0  0  0  0
 11 15  1  0  0  0  0
 11 16  1  0  0  0  0
 43 45  1  0  0  0  0
 43 46  1  0  0  0  0
 43 47  1  0  0  0  0
 22 30  1  0  0  0  0
 22 31  1  0  0  0  0
 21 28  1  0  0  0  0
 21 29  1  0  0  0  0
 33 38  1  0  0  0  0
  8 13  1  0  0  0  0
 18 27  1  0  0  0  0
 42 44  1  0  0  0  0
  7 12  1  0  0  0  0
 32 37  1  0  0  0  0
 17 26  1  0  0  0  0
M  CHG  1  24  -1
M  END
$$$$

  -OEChem-05262214473D

 47 46  0     1  0  0  0  0  0999 V2000
    0.5093   -4.7265    3.0306 C   0  0  0  0  0  0  0  0  0  0  0  0
    1.2735   -4.4402    3.9448 O   0  0  0  0  0  0  0  0  0  0  0  0
   -0.4465   -5.8608    3.1982 C   0  0  0  0  0  0  0  0  0  0  0  0
   -0.0219   -6.8213    2.8645 H   0  0  0  0  0  0  0  0  0  0  0  0
   -0.7314   -6.0185    4.2509 H   0  0  0  0  0  0  0  0  0  0  0  0
   -1.3983   -5.7596    2.6527 H   0  0  0  0  0  0  0  0  0  0  0  0
    0.4252   -4.0886    1.8040 N   0  0  0  0  0  0  0  0  0  0  0  0
    1.2532   -2.9707    1.4349 C   0  0  2  0  0  0  0  0  0  0  0  0
    0.3395   -1.8293    1.0083 C   0  0  0  0  0  0  0  0  0  0  0  0
   -0.8136   -2.0027    0.6194 O   0  0  0  0  0  0  0  0  0  0  0  0
    2.2176   -3.3411    0.3189 C   0  0  0  0  0  0  0  0  0  0  0  0
   -0.2574   -4.4279    1.1287 H   0  0  0  0  0  0  0  0  0  0  0  0
    1.8087   -2.6785    2.3327 H   0  0  0  0  0  0  0  0  0  0  0  0
    1.6793   -3.6366   -0.5890 H   0  0  0  0  0  0  0  0  0  0  0  0
    2.8662   -2.4980    0.0589 H   0  0  0  0  0  0  0  0  0  0  0  0
    2.8538   -4.1816    0.6166 H   0  0  0  0  0  0  0  0  0  0  0  0
    0.9758   -0.5952    1.0708 N   0  0  0  0  0  0  0  0  0  0  0  0
    0.3258    0.6374    0.7059 C   0  0  2  0  0  0  0  0  0  0  0  0
    1.3004    1.4320   -0.1568 C   0  0  0  0  0  0  0  0  0  0  0  0
    2.2546    2.0520    0.3083 O   0  0  0  0  0  0  0  0  0  0  0  0
   -0.0870    1.4547    1.9359 C   0  0  0  0  0  0  0  0  0  0  0  0
   -1.1868    0.7934    2.7656 C   0  0  0  0  0  0  0  0  0  0  0  0
   -1.6304    1.5469    4.0238 C   0  0  0  0  0  0  0  0  0  0  0  0
   -0.9289    2.5635    4.2958 O   0  5  0  0  0  0  0  0  0  0  0  0
   -2.6374    1.0845    4.6274 O   0  0  0  0  0  0  0  0  0  0  0  0
    1.9288   -0.5463    1.4242 H   0  0  0  0  0  0  0  0  0  0  0  0
   -0.5431    0.3658    0.0967 H   0  0  0  0  0  0  0  0  0  0  0  0
   -0.4136    2.4560    1.6288 H   0  0  0  0  0  0  0  0  0  0  0  0
    0.7889    1.6078    2.5805 H   0  0  0  0  0  0  0  0  0  0  0  0
   -2.0635    0.5977    2.1367 H   0  0  0  0  0  0  0  0  0  0  0  0
   -0.8227   -0.1845    3.1057 H   0  0  0  0  0  0  0  0  0  0  0  0
    0.9506    1.4043   -1.4997 N   0  0  0  0  0  0  0  0  0  0  0  0
    1.7061    2.0929   -2.5204 C   0  0  2  0  0  0  0  0  0  0  0  0
    0.8194    2.2276   -3.7513 C   0  0  0  0  0  0  0  0  0  0  0  0
   -0.1411    1.4922   -3.9699 O   0  0  0  0  0  0  0  0  0  0  0  0
    2.9903    1.3499   -2.8543 C   0  0  0  0  0  0  0  0  0  0  0  0
    0.1515    0.8515   -1.7956 H   0  0  0  0  0  0  0  0  0  0  0  0
    1.9373    3.0881   -2.1254 H   0  0  0  0  0  0  0  0  0  0  0  0
    2.7787    0.3504   -3.2515 H   0  0  0  0  0  0  0  0  0  0  0  0
    3.5755    1.8877   -3.6074 H   0  0  0  0  0  0  0  0  0  0  0  0
    3.6132    1.2277   -1.9616 H   0  0  0  0  0  0  0  0  0  0  0  0
    1.2526    3.2380   -4.5985 N   0  0  0  0  0  0  0  0  0  0  0  0
    0.5851    3.5545   -5.8395 C   0  0  0  0  0  0  0  0  0  0  0  0
    2.0471    3.8102   -4.3283 H   0  0  0  0  0  0  0  0  0  0  0  0
    1.0513    2.9911   -6.6613 H   0  0  0  0  0  0  0  0  0  0  0  0
   -0.4777    3.2809   -5.7643 H   0  0  0  0  0  0  0  0  0  0  0  0
    0.6730    4.6328   -6.0383 H   0  0  0  0  0  0  0  0  0  0  0  0
  1  3  1  0  0  0  0
  1  7  1  0  0  0  0
  1  2  2  0  0  0  0
 33 34  1  0  0  0  0
 34 42  1  0  0  0  0
 34 35  2  0  0  0  0
  8  9  1  0  0  0  0
  9 17  1  0  0  0  0
  9 10  2  0  0  0  0
 18 19  1  0  0  0  0
 19 32  1  0  0  0  0
 19 20  2  0  0  0  0
 22 23  1  0  0  0  0
 23 24  1  0  0  0  0
 23 25  2  0  0  0  0
 33 36  1  0  0  0  0
  8 11  1  0  0  0  0
 42 43  1  0  0  0  0
 21 22  1  0  0  0  0
 18 21  1  0  0  0  0
 32 33  1  0  0  0  0
  7  8  1  0  0  0  0
 17 18  1  0  0  0  0
  3  4  1  0  0  0  0
  3  5  1  0  0  0  0
  3  6  1  0  0  0  0
 36 39  1  0  0  0  0
 36 40  1  0  0  0  0
 36 41  1  0  0  0  0
 11 14  1  0  0  0  0
 11 15  1  0  0  0  0
 11 16  1  0  0  0  0
 43 45  1  0  0  0  0
 43 46  1  0  0  0  0
 43 47  1  0  0  0  0
 22 30  1  0  0  0  0
 22 31  1  0  0  0  0
 21 28  1  0  0  0  0
 21 29  1  0  0  0  0
 33 38  1  0  0  0  0
  8 13  1  0  0  0  0
 18 27  1  0  0  0  0
 42 44  1  0  0  0  0
  7 12  1  0  0  0  0
 32 37  1  0  0  0  0
 17 26  1  0  0  0  0
M  CHG  1  24  -1
M  END
$$$$

  -OEChem-05262214473D

 47 46  0     1  0  0  0  0  0999 V2000
    0.5093   -4.7265    3.0306 C   0  0  0  0  0  0  0  0  0  0  0  0
    1.2735   -4.4402    3.9448 O   0  0  0  0  0  0  0  0  0  0  0  0
   -0.4465   -5.8608    3.1982 C   0  0  0  0  0  0  0  0  0  0  0  0
   -0.0219   -6.8213    2.8645 H   0  0  0  0  0  0  0  0  0  0  0  0
   -0.7314   -6.0185    4.2509 H   0  0  0  0  0  0  0  0  0  0  0  0
   -1.3983   -5.7596    2.6527 H   0  0  0  0  0  0  0  0  0  0  0  0
    0.4252   -4.0886    1.8040 N   0  0  0  0  0  0  0  0  0  0  0  0
    1.2532   -2.9707    1.4349 C   0  0  2  0  0  0  0  0  0  0  0  0
    0.3395   -1.8293    1.0083 C   0  0  0  0  0  0  0  0  0  0  0  0
   -0.8136   -2.0027    0.6194 O   0  0  0  0  0  0  0  0  0  0  0  0
    2.2176   -3.3411    0.3189 C   0  0  0  0  0  0  0  0  0  0  0  0
   -0.2574   -4.4279    1.1287 H   0  0  0  0  0  0  0  0  0  0  0  0
    1.8087   -2.6785    2.3327 H   0  0  0  0  0  0  0  0  0  0  0  0
    1.6793   -3.6366   -0.5890 H   0  0  0  0  0  0  0  0  0  0  0  0
    2.8662   -2.4980    0.0589 H   0  0  0  0  0  0  0  0  0  0  0  0
    2.8538   -4.1816    0.6166 H   0  0  0  0  0  0  0  0  0  0  0  0
    0.9758   -0.5952    1.0708 N   0  0  0  0  0  0  0  0  0  0  0  0
    0.3258    0.6374    0.7059 C   0  0  2  0  0  0  0  0  0  0  0  0
    1.3004    1.4320   -0.1568 C   0  0  0  0  0  0  0  0  0  0  0  0
    2.3902    1.8261    0.2534 O   0  0  0  0  0  0  0  0  0  0  0  0
   -0.0870    1.4547    1.9359 C   0  0  0  0  0  0  0  0  0  0  0  0
   -1.1868    0.7934    2.7656 C   0  0  0  0  0  0  0  0  0  0  0  0
   -1.6304    1.5469    4.0238 C   0  0  0  0  0  0  0  0  0  0  0  0
   -0.9289    2.5635    4.2958 O   0  5  0  0  0  0  0  0  0  0  0  0
   -2.6374    1.0845    4.6274 O   0  0  0  0  0  0  0  0  0  0  0  0
    1.9288   -0.5463    1.4242 H   0  0  0  0  0  0  0  0  0  0  0  0
   -0.5431    0.3658    0.0967 H   0  0  0  0  0  0  0  0  0  0  0  0
   -0.4136    2.4560    1.6288 H   0  0  0  0  0  0  0  0  0  0  0  0
    0.7889    1.6078    2.5805 H   0  0  0  0  0  0  0  0  0  0  0  0
   -2.0635    0.5977    2.1367 H   0  0  0  0  0  0  0  0  0  0  0  0
   -0.8227   -0.1845    3.1057 H   0  0  0  0  0  0  0  0  0  0  0  0
    0.7887    1.6878   -1.4214 N   0  0  0  0  0  0  0  0  0  0  0  0
    1.5125    2.4364   -2.4227 C   0  0  2  0  0  0  0  0  0  0  0  0
    0.5141    2.9036   -3.4736 C   0  0  0  0  0  0  0  0  0  0  0  0
   -0.5698    2.3545   -3.6601 O   0  0  0  0  0  0  0  0  0  0  0  0
    2.6127    1.5970   -3.0533 C   0  0  0  0  0  0  0  0  0  0  0  0
   -0.1177    1.3086   -1.6788 H   0  0  0  0  0  0  0  0  0  0  0  0
    1.9445    3.3064   -1.9162 H   0  0  0  0  0  0  0  0  0  0  0  0
    2.1990    0.7206   -3.5654 H   0  0  0  0  0  0  0  0  0  0  0  0
    3.1787    2.1746   -3.7915 H   0  0  0  0  0  0  0  0  0  0  0  0
    3.3132    1.2371   -2.2920 H   0  0  0  0  0  0  0  0  0  0  0  0
    0.9942    3.9789   -4.2079 N   0  0  0  0  0  0  0  0  0  0  0  0
    0.2380    4.5955   -5.2728 C   0  0  0  0  0  0  0  0  0  0  0  0
    1.8961    4.3823   -3.9720 H   0  0  0  0  0  0  0  0  0  0  0  0
    0.5052    4.1273   -6.2317 H   0  0  0  0  0  0  0  0  0  0  0  0
   -0.8373    4.4591   -5.0854 H   0  0  0  0  0  0  0  0  0  0  0  0
    0.4699    5.6701   -5.3124 H   0  0  0  0  0  0  0  0  0  0  0  0
  1  3  1  0  0  0  0
  1  7  1  0  0  0  0
  1  2  2  0  0  0  0
 33 34  1  0  0  0  0
 34 42  1  0  0  0  0
 34 35  2  0  0  0  0
  8  9  1  0  0  0  0
  9 17  1  0  0  0  0
  9 10  2  0  0  0  0
 18 19  1  0  0  0  0
 19 32  1  0  0  0  0
 19 20  2  0  0  0  0
 22 23  1  0  0  0  0
 23 24  1  0  0  0  0
 23 25  2  0  0  0  0
 33 36  1  0  0  0  0
  8 11  1  0  0  0  0
 42 43  1  0  0  0  0
 21 22  1  0  0  0  0
 18 21  1  0  0  0  0
 32 33  1  0  0  0  0
  7  8  1  0  0  0  0
 17 18  1  0  0  0  0
  3  4  1  0  0  0  0
  3  5  1  0  0  0  0
  3  6  1  0  0  0  0
 36 39  1  0  0  0  0
 36 40  1  0  0  0  0
 36 41  1  0  0  0  0
 11 14  1  0  0  0  0
 11 15  1  0  0  0  0
 11 16  1  0  0  0  0
 43 45  1  0  0  0  0
 43 46  1  0  0  0  0
 43 47  1  0  0  0  0
 22 30  1  0  0  0  0
 22 31  1  0  0  0  0
 21 28  1  0  0  0  0
 21 29  1  0  0  0  0
 33 38  1  0  0  0  0
  8 13  1  0  0  0  0
 18 27  1  0  0  0  0
 42 44  1  0  0  0  0
  7 12  1  0  0  0  0
 32 37  1  0  0  0  0
 17 26  1  0  0  0  0
M  CHG  1  24  -1
M  END
$$$$

  -OEChem-05262214473D

 47 46  0     1  0  0  0  0  0999 V2000
    0.5093   -4.7265    3.0306 C   0  0  0  0  0  0  0  0  0  0  0  0
    1.2735   -4.4402    3.9448 O   0  0  0  0  0  0  0  0  0  0  0  0
   -0.4465   -5.8608    3.1982 C   0  0  0  0  0  0  0  0  0  0  0  0
   -0.0219   -6.8213    2.8645 H   0  0  0  0  0  0  0  0  0  0  0  0
   -0.7314   -6.0185    4.2509 H   0  0  0  0  0  0  0  0  0  0  0  0
   -1.3983   -5.7596    2.6527 H   0  0  0  0  0  0  0  0  0  0  0  0
    0.4252   -4.0886    1.8040 N   0  0  0  0  0  0  0  0  0  0  0  0
    1.2532   -2.9707    1.4349 C   0  0  2  0  0  0  0  0  0  0  0  0
    0.3395   -1.8293    1.0083 C   0  0  0  0  0  0  0  0  0  0  0  0
   -0.8136   -2.0027    0.6194 O   0  0  0  0  0  0  0  0  0  0  0  0
    2.2176   -3.3411    0.3189 C   0  0  0  0  0  0  0  0  0  0  0  0
   -0.2574   -4.4279    1.1287 H   0  0  0  0  0  0  0  0  0  0  0  0
    1.8087   -2.6785    2.3327 H   0  0  0  0  0  0  0  0  0  0  0  0
    1.6793   -3.6366   -0.5890 H   0  0  0  0  0  0  0  0  0  0  0  0
    2.8662   -2.4980    0.0589 H   0  0  0  0  0  0  0  0  0  0  0  0
    2.8538   -4.1816    0.6166 H   0  0  0  0  0  0  0  0  0  0  0  0
    0.9758   -0.5952    1.0708 N   0  0  0  0  0  0  0  0  0  0  0  0
    0.3258    0.6374    0.7059 C   0  0  2  0  0  0  0  0  0  0  0  0
    1.3004    1.4320   -0.1568 C   0  0  0  0  0  0  0  0  0  0  0  0
    2.4807    1.5972    0.1448 O   0  0  0  0  0  0  0  0  0  0  0  0
   -0.0870    1.4547    1.9359 C   0  0  0  0  0  0  0  0  0  0  0  0
   -1.1868    0.7934    2.7656 C   0  0  0  0  0  0  0  0  0  0  0  0
   -1.6304    1.5469    4.0238 C   0  0  0  0  0  0  0  0  0  0  0  0
   -0.9289    2.5635    4.2958 O   0  5  0  0  0  0  0  0  0  0  0  0
   -2.6374    1.0845    4.6274 O   0  0  0  0  0  0  0  0  0  0  0  0
    1.9288   -0.5463    1.4242 H   0  0  0  0  0  0  0  0  0  0  0  0
   -0.5431    0.3658    0.0967 H   0  0  0  0  0  0  0  0  0  0  0  0
   -0.4136    2.4560    1.6288 H   0  0  0  0  0  0  0  0  0  0  0  0
    0.7889    1.6078    2.5805 H   0  0  0  0  0  0  0  0  0  0  0  0
   -2.0635    0.5977    2.1367 H   0  0  0  0  0  0  0  0  0  0  0  0
   -0.8227   -0.1845    3.1057 H   0  0  0  0  0  0  0  0  0  0  0  0
    0.6845    1.9725   -1.2770 N   0  0  0  0  0  0  0  0  0  0  0  0
    1.3891    2.7804   -2.2453 C   0  0  2  0  0  0  0  0  0  0  0  0
    0.3557    3.5552   -3.0524 C   0  0  0  0  0  0  0  0  0  0  0  0
   -0.8158    3.1989   -3.1603 O   0  0  0  0  0  0  0  0  0  0  0  0
    2.2573    1.9238   -3.1537 C   0  0  0  0  0  0  0  0  0  0  0  0
   -0.2951    1.7703   -1.4539 H   0  0  0  0  0  0  0  0  0  0  0  0
    2.0117    3.4816   -1.6790 H   0  0  0  0  0  0  0  0  0  0  0  0
    1.6510    1.2149   -3.7292 H   0  0  0  0  0  0  0  0  0  0  0  0
    2.8126    2.5402   -3.8684 H   0  0  0  0  0  0  0  0  0  0  0  0
    2.9802    1.3447   -2.5690 H   0  0  0  0  0  0  0  0  0  0  0  0
    0.9058    4.6679   -3.6733 N   0  0  0  0  0  0  0  0  0  0  0  0
    0.1316    5.5581   -4.5064 C   0  0  0  0  0  0  0  0  0  0  0  0
    1.8820    4.8980   -3.5129 H   0  0  0  0  0  0  0  0  0  0  0  0
    0.2021    5.2337   -5.5551 H   0  0  0  0  0  0  0  0  0  0  0  0
   -0.9205    5.5375   -4.1862 H   0  0  0  0  0  0  0  0  0  0  0  0
    0.5235    6.5817   -4.4122 H   0  0  0  0  0  0  0  0  0  0  0  0
  1  3  1  0  0  0  0
  1  7  1  0  0  0  0
  1  2  2  0  0  0  0
 33 34  1  0  0  0  0
 34 42  1  0  0  0  0
 34 35  2  0  0  0  0
  8  9  1  0  0  0  0
  9 17  1  0  0  0  0
  9 10  2  0  0  0  0
 18 19  1  0  0  0  0
 19 32  1  0  0  0  0
 19 20  2  0  0  0  0
 22 23  1  0  0  0  0
 23 24  1  0  0  0  0
 23 25  2  0  0  0  0
 33 36  1  0  0  0  0
  8 11  1  0  0  0  0
 42 43  1  0  0  0  0
 21 22  1  0  0  0  0
 18 21  1  0  0  0  0
 32 33  1  0  0  0  0
  7  8  1  0  0  0  0
 17 18  1  0  0  0  0
  3  4  1  0  0  0  0
  3  5  1  0  0  0  0
  3  6  1  0  0  0  0
 36 39  1  0  0  0  0
 36 40  1  0  0  0  0
 36 41  1  0  0  0  0
 11 14  1  0  0  0  0
 11 15  1  0  0  0  0
 11 16  1  0  0  0  0
 43 45  1  0  0  0  0
 43 46  1  0  0  0  0
 43 47  1  0  0  0  0
 22 30  1  0  0  0  0
 22 31  1  0  0  0  0
 21 28  1  0  0  0  0
 21 29  1  0  0  0  0
 33 38  1  0  0  0  0
  8 13  1  0  0  0  0
 18 27  1  0  0  0  0
 42 44  1  0  0  0  0
  7 12  1  0  0  0  0
 32 37  1  0  0  0  0
 17 26  1  0  0  0  0
M  CHG  1  24  -1
M  END
$$$$

  -OEChem-05262214473D

 47 46  0     1  0  0  0  0  0999 V2000
    0.5093   -4.7265    3.0306 C   0  0  0  0  0  0  0  0  0  0  0  0
    1.2735   -4.4402    3.9448 O   0  0  0  0  0  0  0  0  0  0  0  0
   -0.4465   -5.8608    3.1982 C   0  0  0  0  0  0  0  0  0  0  0  0
   -0.0219   -6.8213    2.8645 H   0  0  0  0  0  0  0  0  0  0  0  0
   -0.7314   -6.0185    4.2509 H   0  0  0  0  0  0  0  0  0  0  0  0
   -1.3983   -5.7596    2.6527 H   0  0  0  0  0  0  0  0  0  0  0  0
    0.4252   -4.0886    1.8040 N   0  0  0  0  0  0  0  0  0  0  0  0
    1.2532   -2.9707    1.4349 C   0  0  2  0  0  0  0  0  0  0  0  0
    0.3395   -1.8293    1.0083 C   0  0  0  0  0  0  0  0  0  0  0  0
   -0.8136   -2.0027    0.6194 O   0  0  0  0  0  0  0  0  0  0  0  0
    2.2176   -3.3411    0.3189 C   0  0  0  0  0  0  0  0  0  0  0  0
   -0.2574   -4.4279    1.1287 H   0  0  0  0  0  0  0  0  0  0  0  0
    1.8087   -2.6785    2.3327 H   0  0  0  0  0  0  0  0  0  0  0  0
    1.6793   -3.6366   -0.5890 H   0  0  0  0  0  0  0  0  0  0  0  0
    2.8662   -2.4980    0.0589 H   0  0  0  0  0  0  0  0  0  0  0  0
    2.8538   -4.1816    0.6166 H   0  0  0  0  0  0  0  0  0  0  0  0
    0.9758   -0.5952    1.0708 N   0  0  0  0  0  0  0  0  0  0  0  0
    0.3258    0.6374    0.7059 C   0  0  2  0  0  0  0  0  0  0  0  0
    1.3004    1.4320   -0.1568 C   0  0  0  0  0  0  0  0  0  0  0  0
    2.5199    1.3807   -0.0103 O   0  0  0  0  0  0  0  0  0  0  0  0
   -0.0870    1.4547    1.9359 C   0  0  0  0  0  0  0  0  0  0  0  0
   -1.1868    0.7934    2.7656 C   0  0  0  0  0  0  0  0  0  0  0  0
   -1.6304    1.5469    4.0238 C   0  0  0  0  0  0  0  0  0  0  0  0
   -0.9289    2.5635    4.2958 O   0  5  0  0  0  0  0  0  0  0  0  0
   -2.6374    1.0845    4.6274 O   0  0  0  0  0  0  0  0  0  0  0  0
    1.9288   -0.5463    1.4242 H   0  0  0  0  0  0  0  0  0  0  0  0
   -0.5431    0.3658    0.0967 H   0  0  0  0  0  0  0  0  0  0  0  0
   -0.4136    2.4560    1.6288 H   0  0  0  0  0  0  0  0  0  0  0  0
    0.7889    1.6078    2.5805 H   0  0  0  0  0  0  0  0  0  0  0  0
   -2.0635    0.5977    2.1367 H   0  0  0  0  0  0  0  0  0  0  0  0
   -0.8227   -0.1845    3.1057 H   0  0  0  0  0  0  0  0  0  0  0  0
    0.6449    2.2388   -1.0765 N   0  0  0  0  0  0  0  0  0  0  0  0
    1.3441    3.1014   -2.0005 C   0  0  2  0  0  0  0  0  0  0  0  0
    0.3549    4.1381   -2.5164 C   0  0  0  0  0  0  0  0  0  0  0  0
   -0.8624    3.9678   -2.5047 O   0  0  0  0  0  0  0  0  0  0  0  0
    1.9484    2.3082   -3.1486 C   0  0  0  0  0  0  0  0  0  0  0  0
   -0.3685    2.2050   -1.1365 H   0  0  0  0  0  0  0  0  0  0  0  0
    2.1341    3.6017   -1.4300 H   0  0  0  0  0  0  0  0  0  0  0  0
    1.1719    1.7998   -3.7318 H   0  0  0  0  0  0  0  0  0  0  0  0
    2.5022    2.9596   -3.8328 H   0  0  0  0  0  0  0  0  0  0  0  0
    2.6370    1.5432   -2.7739 H   0  0  0  0  0  0  0  0  0  0  0  0
    0.9934    5.2578   -3.0310 N   0  0  0  0  0  0  0  0  0  0  0  0
    0.2732    6.3768   -3.5925 C   0  0  0  0  0  0  0  0  0  0  0  0
    2.0059    5.3222   -2.9823 H   0  0  0  0  0  0  0  0  0  0  0  0
    0.1625    6.2349   -4.6777 H   0  0  0  0  0  0  0  0  0  0  0  0
   -0.7218    6.4425   -3.1281 H   0  0  0  0  0  0  0  0  0  0  0  0
    0.8301    7.3054   -3.3992 H   0  0  0  0  0  0  0  0  0  0  0  0
  1  3  1  0  0  0  0
  1  7  1  0  0  0  0
  1  2  2  0  0  0  0
 33 34  1  0  0  0  0
 34 42  1  0  0  0  0
 34 35  2  0  0  0  0
  8  9  1  0  0  0  0
  9 17  1  0  0  0  0
  9 10  2  0  0  0  0
 18 19  1  0  0  0  0
 19 32  1  0  0  0  0
 19 20  2  0  0  0  0
 22 23  1  0  0  0  0
 23 24  1  0  0  0  0
 23 25  2  0  0  0  0
 33 36  1  0  0  0  0
  8 11  1  0  0  0  0
 42 43  1  0  0  0  0
 21 22  1  0  0  0  0
 18 21  1  0  0  0  0
 32 33  1  0  0  0  0
  7  8  1  0  0  0  0
 17 18  1  0  0  0  0
  3  4  1  0  0  0  0
  3  5  1  0  0  0  0
  3  6  1  0  0  0  0
 36 39  1  0  0  0  0
 36 40  1  0  0  0  0
 36 41  1  0  0  0  0
 11 14  1  0  0  0  0
 11 15  1  0  0  0  0
 11 16  1  0  0  0  0
 43 45  1  0  0  0  0
 43 46  1  0  0  0  0
 43 47  1  0  0  0  0
 22 30  1  0  0  0  0
 22 31  1  0  0  0  0
 21 28  1  0  0  0  0
 21 29  1  0  0  0  0
 33 38  1  0  0  0  0
  8 13  1  0  0  0  0
 18 27  1  0  0  0  0
 42 44  1  0  0  0  0
  7 12  1  0  0  0  0
 32 37  1  0  0  0  0
 17 26  1  0  0  0  0
M  CHG  1  24  -1
M  END
$$$$

  -OEChem-05262214473D

 47 46  0     1  0  0  0  0  0999 V2000
    0.5093   -4.7265    3.0306 C   0  0  0  0  0  0  0  0  0  0  0  0
    1.2735   -4.4402    3.9448 O   0  0  0  0  0  0  0  0  0  0  0  0
   -0.4465   -5.8608    3.1982 C   0  0  0  0  0  0  0  0  0  0  0  0
   -0.0219   -6.8213    2.8645 H   0  0  0  0  0  0  0  0  0  0  0  0
   -0.7314   -6.0185    4.2509 H   0  0  0  0  0  0  0  0  0  0  0  0
   -1.3983   -5.7596    2.6527 H   0  0  0  0  0  0  0  0  0  0  0  0
    0.4252   -4.0886    1.8040 N   0  0  0  0  0  0  0  0  0  0  0  0
    1.2532   -2.9707    1.4349 C   0  0  2  0  0  0  0  0  0  0  0  0
    0.3395   -1.8293    1.0083 C   0  0  0  0  0  0  0  0  0  0  0  0
   -0.8136   -2.0027    0.6194 O   0  0  0  0  0  0  0  0  0  0  0  0
    2.2176   -3.3411    0.3189 C   0  0  0  0  0  0  0  0  0  0  0  0
   -0.2574   -4.4279    1.1287 H   0  0  0  0  0  0  0  0  0  0  0  0
    1.8087   -2.6785    2.3327 H   0  0  0  0  0  0  0  0  0  0  0  0
    1.6793   -3.6366   -0.5890 H   0  0  0  0  0  0  0  0  0  0  0  0
    2.8662   -2.4980    0.0589 H   0  0  0  0  0  0  0  0  0  0  0  0
    2.8538   -4.1816    0.6166 H   0  0  0  0  0  0  0  0  0  0  0  0
    0.9758   -0.5952    1.0708 N   0  0  0  0  0  0  0  0  0  0  0  0
    0.3258    0.6374    0.7059 C   0  0  2  0  0  0  0  0  0  0  0  0
    1.3004    1.4320   -0.1568 C   0  0  0  0  0  0  0  0  0  0  0  0
    2.5052    1.1916   -0.2011 O   0  0  0  0  0  0  0  0  0  0  0  0
   -0.0870    1.4547    1.9359 C   0  0  0  0  0  0  0  0  0  0  0  0
   -1.1868    0.7934    2.7656 C   0  0  0  0  0  0  0  0  0  0  0  0
   -1.6304    1.5469    4.0238 C   0  0  0  0  0  0  0  0  0  0  0  0
   -0.9289    2.5635    4.2958 O   0  5  0  0  0  0  0  0  0  0  0  0
   -2.6374    1.0845    4.6274 O   0  0  0  0  0  0  0  0  0  0  0  0
    1.9288   -0.5463    1.4242 H   0  0  0  0  0  0  0  0  0  0  0  0
   -0.5431    0.3658    0.0967 H   0  0  0  0  0  0  0  0  0  0  0  0
   -0.4136    2.4560    1.6288 H   0  0  0  0  0  0  0  0  0  0  0  0
    0.7889    1.6078    2.5805 H   0  0  0  0  0  0  0  0  0  0  0  0
   -2.0635    0.5977    2.1367 H   0  0  0  0  0  0  0  0  0  0  0  0
   -0.8227   -0.1845    3.1057 H   0  0  0  0  0  0  0  0  0  0  0  0
    0.6727    2.4687   -0.8333 N   0  0  0  0  0  0  0  0  0  0  0  0
    1.3806    3.3775   -1.7048 C   0  0  2  0  0  0  0  0  0  0  0  0
    0.5118    4.6127   -1.9021 C   0  0  0  0  0  0  0  0  0  0  0  0
   -0.7065    4.6090   -1.7380 O   0  0  0  0  0  0  0  0  0  0  0  0
    1.7070    2.7238   -3.0386 C   0  0  0  0  0  0  0  0  0  0  0  0
   -0.3330    2.5831   -0.7481 H   0  0  0  0  0  0  0  0  0  0  0  0
    2.3036    3.6586   -1.1861 H   0  0  0  0  0  0  0  0  0  0  0  0
    0.7945    2.4352   -3.5729 H   0  0  0  0  0  0  0  0  0  0  0  0
    2.2685    3.4044   -3.6871 H   0  0  0  0  0  0  0  0  0  0  0  0
    2.3069    1.8191   -2.8927 H   0  0  0  0  0  0  0  0  0  0  0  0
    1.2509    5.7086   -2.3248 N   0  0  0  0  0  0  0  0  0  0  0  0
    0.6530    6.9956   -2.5935 C   0  0  0  0  0  0  0  0  0  0  0  0
    2.2592    5.6261   -2.4162 H   0  0  0  0  0  0  0  0  0  0  0  0
    0.3892    7.0626   -3.6593 H   0  0  0  0  0  0  0  0  0  0  0  0
   -0.2547    7.1126   -1.9832 H   0  0  0  0  0  0  0  0  0  0  0  0
    1.3689    7.7920   -2.3423 H   0  0  0  0  0  0  0  0  0  0  0  0
  1  3  1  0  0  0  0
  1  7  1  0  0  0  0
  1  2  2  0  0  0  0
 33 34  1  0  0  0  0
 34 42  1  0  0  0  0
 34 35  2  0  0  0  0
  8  9  1  0  0  0  0
  9 17  1  0  0  0  0
  9 10  2  0  0  0  0
 18 19  1  0  0  0  0
 19 32  1  0  0  0  0
 19 20  2  0  0  0  0
 22 23  1  0  0  0  0
 23 24  1  0  0  0  0
 23 25  2  0  0  0  0
 33 36  1  0  0  0  0
  8 11  1  0  0  0  0
 42 43  1  0  0  0  0
 21 22  1  0  0  0  0
 18 21  1  0  0  0  0
 32 33  1  0  0  0  0
  7  8  1  0  0  0  0
 17 18  1  0  0  0  0
  3  4  1  0  0  0  0
  3  5  1  0  0  0  0
  3  6  1  0  0  0  0
 36 39  1  0  0  0  0
 36 40  1  0  0  0  0
 36 41  1  0  0  0  0
 11 14  1  0  0  0  0
 11 15  1  0  0  0  0
 11 16  1  0  0  0  0
 43 45  1  0  0  0  0
 43 46  1  0  0  0  0
 43 47  1  0  0  0  0
 22 30  1  0  0  0  0
 22 31  1  0  0  0  0
 21 28  1  0  0  0  0
 21 29  1  0  0  0  0
 33 38  1  0  0  0  0
  8 13  1  0  0  0  0
 18 27  1  0  0  0  0
 42 44  1  0  0  0  0
  7 12  1  0  0  0  0
 32 37  1  0  0  0  0
 17 26  1  0  0  0  0
M  CHG  1  24  -1
M  END
$$$$

  -OEChem-05262214473D

 47 46  0     1  0  0  0  0  0999 V2000
    0.5093   -4.7265    3.0306 C   0  0  0  0  0  0  0  0  0  0  0  0
    1.2735   -4.4402    3.9448 O   0  0  0  0  0  0  0  0  0  0  0  0
   -0.4465   -5.8608    3.1982 C   0  0  0  0  0  0  0  0  0  0  0  0
   -0.0219   -6.8213    2.8645 H   0  0  0  0  0  0  0  0  0  0  0  0
   -0.7314   -6.0185    4.2509 H   0  0  0  0  0  0  0  0  0  0  0  0
   -1.3983   -5.7596    2.6527 H   0  0  0  0  0  0  0  0  0  0  0  0
    0.4252   -4.0886    1.8040 N   0  0  0  0  0  0  0  0  0  0  0  0
    1.2532   -2.9707    1.4349 C   0  0  2  0  0  0  0  0  0  0  0  0
    0.3395   -1.8293    1.0083 C   0  0  0  0  0  0  0  0  0  0  0  0
   -0.8136   -2.0027    0.6194 O   0  0  0  0  0  0  0  0  0  0  0  0
    2.2176   -3.3411    0.3189 C   0  0  0  0  0  0  0  0  0  0  0  0
   -0.2574   -4.4279    1.1287 H   0  0  0  0  0  0  0  0  0  0  0  0
    1.8087   -2.6785    2.3327 H   0  0  0  0  0  0  0  0  0  0  0  0
    1.6793   -3.6366   -0.5890 H   0  0  0  0  0  0  0  0  0  0  0  0
    2.8662   -2.4980    0.0589 H   0  0  0  0  0  0  0  0  0  0  0  0
    2.8538   -4.1816    0.6166 H   0  0  0  0  0  0  0  0  0  0  0  0
    0.9758   -0.5952    1.0708 N   0  0  0  0  0  0  0  0  0  0  0  0
    0.3258    0.6374    0.7059 C   0  0  2  0  0  0  0  0  0  0  0  0
    1.1212    1.2536   -0.4401 C   0  0  0  0  0  0  0  0  0  0  0  0
    2.1490    0.7500   -0.8888 O   0  0  0  0  0  0  0  0  0  0  0  0
    0.2442    1.6144    1.8849 C   0  0  0  0  0  0  0  0  0  0  0  0
   -0.6734    1.1364    3.0096 C   0  0  0  0  0  0  0  0  0  0  0  0
   -0.7820    2.0557    4.2306 C   0  0  0  0  0  0  0  0  0  0  0  0
    0.0151    3.0375    4.2151 O   0  5  0  0  0  0  0  0  0  0  0  0
   -1.6499    1.7428    5.0915 O   0  0  0  0  0  0  0  0  0  0  0  0
    1.9288   -0.5463    1.4242 H   0  0  0  0  0  0  0  0  0  0  0  0
   -0.6711    0.3701    0.3388 H   0  0  0  0  0  0  0  0  0  0  0  0
   -0.0903    2.5986    1.5344 H   0  0  0  0  0  0  0  0  0  0  0  0
    1.2497    1.7676    2.2994 H   0  0  0  0  0  0  0  0  0  0  0  0
   -1.6783    0.9427    2.6158 H   0  0  0  0  0  0  0  0  0  0  0  0
   -0.2938    0.1760    3.3811 H   0  0  0  0  0  0  0  0  0  0  0  0
    0.5731    2.4545   -0.8690 N   0  0  0  0  0  0  0  0  0  0  0  0
    1.1495    3.2428   -1.9334 C   0  0  2  0  0  0  0  0  0  0  0  0
    0.5871    4.6544   -1.8307 C   0  0  0  0  0  0  0  0  0  0  0  0
   -0.4719    4.9149   -1.2635 O   0  0  0  0  0  0  0  0  0  0  0  0
    0.8505    2.6363   -3.2955 C   0  0  0  0  0  0  0  0  0  0  0  0
   -0.2895    2.7874   -0.4485 H   0  0  0  0  0  0  0  0  0  0  0  0
    2.2309    3.2664   -1.7595 H   0  0  0  0  0  0  0  0  0  0  0  0
   -0.2282    2.6043   -3.4875 H   0  0  0  0  0  0  0  0  0  0  0  0
    1.3121    3.2192   -4.0994 H   0  0  0  0  0  0  0  0  0  0  0  0
    1.2296    1.6105   -3.3571 H   0  0  0  0  0  0  0  0  0  0  0  0
    1.3850    5.5830   -2.4844 N   0  0  0  0  0  0  0  0  0  0  0  0
    1.0587    6.9888   -2.5410 C   0  0  0  0  0  0  0  0  0  0  0  0
    2.2556    5.2809   -2.9117 H   0  0  0  0  0  0  0  0  0  0  0  0
    0.4821    7.1954   -3.4546 H   0  0  0  0  0  0  0  0  0  0  0  0
    0.4596    7.2618   -1.6598 H   0  0  0  0  0  0  0  0  0  0  0  0
    1.9862    7.5802   -2.5513 H   0  0  0  0  0  0  0  0  0  0  0  0
  1  3  1  0  0  0  0
  1  7  1  0  0  0  0
  1  2  2  0  0  0  0
 33 34  1  0  0  0  0
 34 42  1  0  0  0  0
 34 35  2  0  0  0  0
  8  9  1  0  0  0  0
  9 17  1  0  0  0  0
  9 10  2  0  0  0  0
 18 19  1  0  0  0  0
 19 32  1  0  0  0  0
 19 20  2  0  0  0  0
 22 23  1  0  0  0  0
 23 24  1  0  0  0  0
 23 25  2  0  0  0  0
 33 36  1  0  0  0  0
  8 11  1  0  0  0  0
 42 43  1  0  0  0  0
 21 22  1  0  0  0  0
 18 21  1  0  0  0  0
 32 33  1  0  0  0  0
  7  8  1  0  0  0  0
 17 18  1  0  0  0  0
  3  4  1  0  0  0  0
  3  5  1  0  0  0  0
  3  6  1  0  0  0  0
 36 39  1  0  0  0  0
 36 40  1  0  0  0  0
 36 41  1  0  0  0  0
 11 14  1  0  0  0  0
 11 15  1  0  0  0  0
 11 16  1  0  0  0  0
 43 45  1  0  0  0  0
 43 46  1  0  0  0  0
 43 47  1  0  0  0  0
 22 30  1  0  0  0  0
 22 31  1  0  0  0  0
 21 28  1  0  0  0  0
 21 29  1  0  0  0  0
 33 38  1  0  0  0  0
  8 13  1  0  0  0  0
 18 27  1  0  0  0  0
 42 44  1  0  0  0  0
  7 12  1  0  0  0  0
 32 37  1  0  0  0  0
 17 26  1  0  0  0  0
M  CHG  1  24  -1
M  END
$$$$

  -OEChem-05262214473D

 47 46  0     1  0  0  0  0  0999 V2000
    0.5093   -4.7265    3.0306 C   0  0  0  0  0  0  0  0  0  0  0  0
    1.2735   -4.4402    3.9448 O   0  0  0  0  0  0  0  0  0  0  0  0
   -0.4465   -5.8608    3.1982 C   0  0  0  0  0  0  0  0  0  0  0  0
   -0.0219   -6.8213    2.8645 H   0  0  0  0  0  0  0  0  0  0  0  0
   -0.7314   -6.0185    4.2509 H   0  0  0  0  0  0  0  0  0  0  0  0
   -1.3983   -5.7596    2.6527 H   0  0  0  0  0  0  0  0  0  0  0  0
    0.4252   -4.0886    1.8040 N   0  0  0  0  0  0  0  0  0  0  0  0
    1.2532   -2.9707    1.4349 C   0  0  2  0  0  0  0  0  0  0  0  0
    0.3395   -1.8293    1.0083 C   0  0  0  0  0  0  0  0  0  0  0  0
   -0.8136   -2.0027    0.6194 O   0  0  0  0  0  0  0  0  0  0  0  0
    2.2176   -3.3411    0.3189 C   0  0  0  0  0  0  0  0  0  0  0  0
   -0.2574   -4.4279    1.1287 H   0  0  0  0  0  0  0  0  0  0  0  0
    1.8087   -2.6785    2.3327 H   0  0  0  0  0  0  0  0  0  0  0  0
    1.6793   -3.6366   -0.5890 H   0  0  0  0  0  0  0  0  0  0  0  0
    2.8662   -2.4980    0.0589 H   0  0  0  0  0  0  0  0  0  0  0  0
    2.8538   -4.1816    0.6166 H   0  0  0  0  0  0  0  0  0  0  0  0
    0.9758   -0.5952    1.0708 N   0  0  0  0  0  0  0  0  0  0  0  0
    0.3258    0.6374    0.7059 C   0  0  2  0  0  0  0  0  0  0  0  0
    1.1212    1.2536   -0.4401 C   0  0  0  0  0  0  0  0  0  0  0  0
    1.9810    0.6371   -1.0661 O   0  0  0  0  0  0  0  0  0  0  0  0
    0.2442    1.6144    1.8849 C   0  0  0  0  0  0  0  0  0  0  0  0
   -0.6734    1.1364    3.0096 C   0  0  0  0  0  0  0  0  0  0  0  0
   -0.7820    2.0557    4.2306 C   0  0  0  0  0  0  0  0  0  0  0  0
    0.0151    3.0375    4.2151 O   0  5  0  0  0  0  0  0  0  0  0  0
   -1.6499    1.7428    5.0915 O   0  0  0  0  0  0  0  0  0  0  0  0
    1.9288   -0.5463    1.4242 H   0  0  0  0  0  0  0  0  0  0  0  0
   -0.6711    0.3701    0.3388 H   0  0  0  0  0  0  0  0  0  0  0  0
   -0.0903    2.5986    1.5344 H   0  0  0  0  0  0  0  0  0  0  0  0
    1.2497    1.7676    2.2994 H   0  0  0  0  0  0  0  0  0  0  0  0
   -1.6783    0.9427    2.6158 H   0  0  0  0  0  0  0  0  0  0  0  0
   -0.2938    0.1760    3.3811 H   0  0  0  0  0  0  0  0  0  0  0  0
    0.7898    2.5852   -0.6483 N   0  0  0  0  0  0  0  0  0  0  0  0
    1.4138    3.3978   -1.6666 C   0  0  2  0  0  0  0  0  0  0  0  0
    1.1593    4.8596   -1.3232 C   0  0  0  0  0  0  0  0  0  0  0  0
    0.2309    5.2286   -0.6070 O   0  0  0  0  0  0  0  0  0  0  0  0
    0.8756    3.0626   -3.0489 C   0  0  0  0  0  0  0  0  0  0  0  0
    0.0541    3.0091   -0.0909 H   0  0  0  0  0  0  0  0  0  0  0  0
    2.4889    3.1930   -1.6199 H   0  0  0  0  0  0  0  0  0  0  0  0
   -0.2003    3.2614   -3.1148 H   0  0  0  0  0  0  0  0  0  0  0  0
    1.3700    3.6592   -3.8226 H   0  0  0  0  0  0  0  0  0  0  0  0
    1.0328    2.0040   -3.2821 H   0  0  0  0  0  0  0  0  0  0  0  0
    2.0651    5.7073   -1.9455 N   0  0  0  0  0  0  0  0  0  0  0  0
    2.0252    7.1423   -1.7875 C   0  0  0  0  0  0  0  0  0  0  0  0
    2.8142    5.3128   -2.5068 H   0  0  0  0  0  0  0  0  0  0  0  0
    1.4212    7.5839   -2.5939 H   0  0  0  0  0  0  0  0  0  0  0  0
    1.5764    7.3917   -0.8147 H   0  0  0  0  0  0  0  0  0  0  0  0
    3.0480    7.5447   -1.8334 H   0  0  0  0  0  0  0  0  0  0  0  0
  1  3  1  0  0  0  0
  1  7  1  0  0  0  0
  1  2  2  0  0  0  0
 33 34  1  0  0  0  0
 34 42  1  0  0  0  0
 34 35  2  0  0  0  0
  8  9  1  0  0  0  0
  9 17  1  0  0  0  0
  9 10  2  0  0  0  0
 18 19  1  0  0  0  0
 19 32  1  0  0  0  0
 19 20  2  0  0  0  0
 22 23  1  0  0  0  0
 23 24  1  0  0  0  0
 23 25  2  0  0  0  0
 33 36  1  0  0  0  0
  8 11  1  0  0  0  0
 42 43  1  0  0  0  0
 21 22  1  0  0  0  0
 18 21  1  0  0  0  0
 32 33  1  0  0  0  0
  7  8  1  0  0  0  0
 17 18  1  0  0  0  0
  3  4  1  0  0  0  0
  3  5  1  0  0  0  0
  3  6  1  0  0  0  0
 36 39  1  0  0  0  0
 36 40  1  0  0  0  0
 36 41  1  0  0  0  0
 11 14  1  0  0  0  0
 11 15  1  0  0  0  0
 11 16  1  0  0  0  0
 43 45  1  0  0  0  0
 43 46  1  0  0  0  0
 43 47  1  0  0  0  0
 22 30  1  0  0  0  0
 22 31  1  0  0  0  0
 21 28  1  0  0  0  0
 21 29  1  0  0  0  0
 33 38  1  0  0  0  0
  8 13  1  0  0  0  0
 18 27  1  0  0  0  0
 42 44  1  0  0  0  0
  7 12  1  0  0  0  0
 32 37  1  0  0  0  0
 17 26  1  0  0  0  0
M  CHG  1  24  -1
M  END
$$$$

  -OEChem-05262214473D

 47 46  0     1  0  0  0  0  0999 V2000
    0.5093   -4.7265    3.0306 C   0  0  0  0  0  0  0  0  0  0  0  0
    1.2735   -4.4402    3.9448 O   0  0  0  0  0  0  0  0  0  0  0  0
   -0.4465   -5.8608    3.1982 C   0  0  0  0  0  0  0  0  0  0  0  0
   -0.0219   -6.8213    2.8645 H   0  0  0  0  0  0  0  0  0  0  0  0
   -0.7314   -6.0185    4.2509 H   0  0  0  0  0  0  0  0  0  0  0  0
   -1.3983   -5.7596    2.6527 H   0  0  0  0  0  0  0  0  0  0  0  0
    0.4252   -4.0886    1.8040 N   0  0  0  0  0  0  0  0  0  0  0  0
    1.2532   -2.9707    1.4349 C   0  0  2  0  0  0  0  0  0  0  0  0
    0.3395   -1.8293    1.0083 C   0  0  0  0  0  0  0  0  0  0  0  0
   -0.8136   -2.0027    0.6194 O   0  0  0  0  0  0  0  0  0  0  0  0
    2.2176   -3.3411    0.3189 C   0  0  0  0  0  0  0  0  0  0  0  0
   -0.2574   -4.4279    1.1287 H   0  0  0  0  0  0  0  0  0  0  0  0
    1.8087   -2.6785    2.3327 H   0  0  0  0  0  0  0  0  0  0  0  0
    1.6793   -3.6366   -0.5890 H   0  0  0  0  0  0  0  0  0  0  0  0
    2.8662   -2.4980    0.0589 H   0  0  0  0  0  0  0  0  0  0  0  0
    2.8538   -4.1816    0.6166 H   0  0  0  0  0  0  0  0  0  0  0  0
    0.9758   -0.5952    1.0708 N   0  0  0  0  0  0  0  0  0  0  0  0
    0.3258    0.6374    0.7059 C   0  0  2  0  0  0  0  0  0  0  0  0
    1.1212    1.2536   -0.4401 C   0  0  0  0  0  0  0  0  0  0  0  0
    1.7782    0.5846   -1.2351 O   0  0  0  0  0  0  0  0  0  0  0  0
    0.2442    1.6144    1.8849 C   0  0  0  0  0  0  0  0  0  0  0  0
   -0.6734    1.1364    3.0096 C   0  0  0  0  0  0  0  0  0  0  0  0
   -0.7820    2.0557    4.2306 C   0  0  0  0  0  0  0  0  0  0  0  0
    0.0151    3.0375    4.2151 O   0  5  0  0  0  0  0  0  0  0  0  0
   -1.6499    1.7428    5.0915 O   0  0  0  0  0  0  0  0  0  0  0  0
    1.9288   -0.5463    1.4242 H   0  0  0  0  0  0  0  0  0  0  0  0
   -0.6711    0.3701    0.3388 H   0  0  0  0  0  0  0  0  0  0  0  0
   -0.0903    2.5986    1.5344 H   0  0  0  0  0  0  0  0  0  0  0  0
    1.2497    1.7676    2.2994 H   0  0  0  0  0  0  0  0  0  0  0  0
   -1.6783    0.9427    2.6158 H   0  0  0  0  0  0  0  0  0  0  0  0
   -0.2938    0.1760    3.3811 H   0  0  0  0  0  0  0  0  0  0  0  0
    1.0475    2.6396   -0.4401 N   0  0  0  0  0  0  0  0  0  0  0  0
    1.7271    3.4602   -1.4156 C   0  0  2  0  0  0  0  0  0  0  0  0
    1.8050    4.8780   -0.8651 C   0  0  0  0  0  0  0  0  0  0  0  0
    1.0394    5.3063   -0.0040 O   0  0  0  0  0  0  0  0  0  0  0  0
    1.0085    3.4362   -2.7557 C   0  0  0  0  0  0  0  0  0  0  0  0
    0.4664    3.1082    0.2487 H   0  0  0  0  0  0  0  0  0  0  0  0
    2.7384    3.0530   -1.5220 H   0  0  0  0  0  0  0  0  0  0  0  0
   -0.0067    3.8405   -2.6690 H   0  0  0  0  0  0  0  0  0  0  0  0
    1.5403    4.0357   -3.5019 H   0  0  0  0  0  0  0  0  0  0  0  0
    0.9270    2.4122   -3.1360 H   0  0  0  0  0  0  0  0  0  0  0  0
    2.8025    5.6223   -1.4793 N   0  0  0  0  0  0  0  0  0  0  0  0
    3.0674    7.0010   -1.1401 C   0  0  0  0  0  0  0  0  0  0  0  0
    3.4022    5.1804   -2.1698 H   0  0  0  0  0  0  0  0  0  0  0  0
    2.4939    7.6602   -1.8082 H   0  0  0  0  0  0  0  0  0  0  0  0
    2.7687    7.1859   -0.0977 H   0  0  0  0  0  0  0  0  0  0  0  0
    4.1418    7.2069   -1.2557 H   0  0  0  0  0  0  0  0  0  0  0  0
  1  3  1  0  0  0  0
  1  7  1  0  0  0  0
  1  2  2  0  0  0  0
 33 34  1  0  0  0  0
 34 42  1  0  0  0  0
 34 35  2  0  0  0  0
  8  9  1  0  0  0  0
  9 17  1  0  0  0  0
  9 10  2  0  0  0  0
 18 19  1  0  0  0  0
 19 32  1  0  0  0  0
 19 20  2  0  0  0  0
 22 23  1  0  0  0  0
 23 24  1  0  0  0  0
 23 25  2  0  0  0  0
 33 36  1  0  0  0  0
  8 11  1  0  0  0  0
 42 43  1  0  0  0  0
 21 22  1  0  0  0  0
 18 21  1  0  0  0  0
 32 33  1  0  0  0  0
  7  8  1  0  0  0  0
 17 18  1  0  0  0  0
  3  4  1  0  0  0  0
  3  5  1  0  0  0  0
  3  6  1  0  0  0  0
 36 39  1  0  0  0  0
 36 40  1  0  0  0  0
 36 41  1  0  0  0  0
 11 14  1  0  0  0  0
 11 15  1  0  0  0  0
 11 16  1  0  0  0  0
 43 45  1  0  0  0  0
 43 46  1  0  0  0  0
 43 47  1  0  0  0  0
 22 30  1  0  0  0  0
 22 31  1  0  0  0  0
 21 28  1  0  0  0  0
 21 29  1  0  0  0  0
 33 38  1  0  0  0  0
  8 13  1  0  0  0  0
 18 27  1  0  0  0  0
 42 44  1  0  0  0  0
  7 12  1  0  0  0  0
 32 37  1  0  0  0  0
 17 26  1  0  0  0  0
M  CHG  1  24  -1
M  END
$$$$

  -OEChem-05262214473D

 47 46  0     1  0  0  0  0  0999 V2000
    0.5093   -4.7265    3.0306 C   0  0  0  0  0  0  0  0  0  0  0  0
    1.2735   -4.4402    3.9448 O   0  0  0  0  0  0  0  0  0  0  0  0
   -0.4465   -5.8608    3.1982 C   0  0  0  0  0  0  0  0  0  0  0  0
   -0.0219   -6.8213    2.8645 H   0  0  0  0  0  0  0  0  0  0  0  0
   -0.7314   -6.0185    4.2509 H   0  0  0  0  0  0  0  0  0  0  0  0
   -1.3983   -5.7596    2.6527 H   0  0  0  0  0  0  0  0  0  0  0  0
    0.4252   -4.0886    1.8040 N   0  0  0  0  0  0  0  0  0  0  0  0
    1.2532   -2.9707    1.4349 C   0  0  2  0  0  0  0  0  0  0  0  0
    0.3395   -1.8293    1.0083 C   0  0  0  0  0  0  0  0  0  0  0  0
   -0.8136   -2.0027    0.6194 O   0  0  0  0  0  0  0  0  0  0  0  0
    2.2176   -3.3411    0.3189 C   0  0  0  0  0  0  0  0  0  0  0  0
   -0.2574   -4.4279    1.1287 H   0  0  0  0  0  0  0  0  0  0  0  0
    1.8087   -2.6785    2.3327 H   0  0  0  0  0  0  0  0  0  0  0  0
    1.6793   -3.6366   -0.5890 H   0  0  0  0  0  0  0  0  0  0  0  0
    2.8662   -2.4980    0.0589 H   0  0  0  0  0  0  0  0  0  0  0  0
    2.8538   -4.1816    0.6166 H   0  0  0  0  0  0  0  0  0  0  0  0
    0.9758   -0.5952    1.0708 N   0  0  0  0  0  0  0  0  0  0  0  0
    0.3258    0.6374    0.7059 C   0  0  2  0  0  0  0  0  0  0  0  0
    1.1212    1.2536   -0.4401 C   0  0  0  0  0  0  0  0  0  0  0  0
    1.5545    0.5962   -1.3842 O   0  0  0  0  0  0  0  0  0  0  0  0
    0.2442    1.6144    1.8849 C   0  0  0  0  0  0  0  0  0  0  0  0
   -0.6734    1.1364    3.0096 C   0  0  0  0  0  0  0  0  0  0  0  0
   -0.7820    2.0557    4.2306 C   0  0  0  0  0  0  0  0  0  0  0  0
    0.0151    3.0375    4.2151 O   0  5  0  0  0  0  0  0  0  0  0  0
   -1.6499    1.7428    5.0915 O   0  0  0  0  0  0  0  0  0  0  0  0
    1.9288   -0.5463    1.4242 H   0  0  0  0  0  0  0  0  0  0  0  0
   -0.6711    0.3701    0.3388 H   0  0  0  0  0  0  0  0  0  0  0  0
   -0.0903    2.5986    1.5344 H   0  0  0  0  0  0  0  0  0  0  0  0
    1.2497    1.7676    2.2994 H   0  0  0  0  0  0  0  0  0  0  0  0
   -1.6783    0.9427    2.6158 H   0  0  0  0  0  0  0  0  0  0  0  0
   -0.2938    0.1760    3.3811 H   0  0  0  0  0  0  0  0  0  0  0  0
    1.3289    2.6139   -0.2586 N   0  0  0  0  0  0  0  0  0  0  0  0
    2.0680    3.4256   -1.1976 C   0  0  2  0  0  0  0  0  0  0  0  0
    2.4802    4.7084   -0.4876 C   0  0  0  0  0  0  0  0  0  0  0  0
    1.8985    5.1427    0.5044 O   0  0  0  0  0  0  0  0  0  0  0  0
    1.2402    3.7316   -2.4360 C   0  0  0  0  0  0  0  0  0  0  0  0
    0.9195    3.0779    0.5468 H   0  0  0  0  0  0  0  0  0  0  0  0
    2.9625    2.8560   -1.4724 H   0  0  0  0  0  0  0  0  0  0  0  0
    0.3397    4.3019   -2.1804 H   0  0  0  0  0  0  0  0  0  0  0  0
    1.8117    4.3229   -3.1591 H   0  0  0  0  0  0  0  0  0  0  0  0
    0.9196    2.8074   -2.9287 H   0  0  0  0  0  0  0  0  0  0  0  0
    3.5470    5.3339   -1.1176 N   0  0  0  0  0  0  0  0  0  0  0  0
    4.1144    6.5743   -0.6429 C   0  0  0  0  0  0  0  0  0  0  0  0
    3.9798    4.8926   -1.9237 H   0  0  0  0  0  0  0  0  0  0  0  0
    3.6270    7.4193   -1.1512 H   0  0  0  0  0  0  0  0  0  0  0  0
    3.9555    6.6584    0.4424 H   0  0  0  0  0  0  0  0  0  0  0  0
    5.1930    6.5900   -0.8578 H   0  0  0  0  0  0  0  0  0  0  0  0
  1  3  1  0  0  0  0
  1  7  1  0  0  0  0
  1  2  2  0  0  0  0
 33 34  1  0  0  0  0
 34 42  1  0  0  0  0
 34 35  2  0  0  0  0
  8  9  1  0  0  0  0
  9 17  1  0  0  0  0
  9 10  2  0  0  0  0
 18 19  1  0  0  0  0
 19 32  1  0  0  0  0
 19 20  2  0  0  0  0
 22 23  1  0  0  0  0
 23 24  1  0  0  0  0
 23 25  2  0  0  0  0
 33 36  1  0  0  0  0
  8 11  1  0  0  0  0
 42 43  1  0  0  0  0
 21 22  1  0  0  0  0
 18 21  1  0  0  0  0
 32 33  1  0  0  0  0
  7  8  1  0  0  0  0
 17 18  1  0  0  0  0
  3  4  1  0  0  0  0
  3  5  1  0  0  0  0
  3  6  1  0  0  0  0
 36 39  1  0  0  0  0
 36 40  1  0  0  0  0
 36 41  1  0  0  0  0
 11 14  1  0  0  0  0
 11 15  1  0  0  0  0
 11 16  1  0  0  0  0
 43 45  1  0  0  0  0
 43 46  1  0  0  0  0
 43 47  1  0  0  0  0
 22 30  1  0  0  0  0
 22 31  1  0  0  0  0
 21 28  1  0  0  0  0
 21 29  1  0  0  0  0
 33 38  1  0  0  0  0
  8 13  1  0  0  0  0
 18 27  1  0  0  0  0
 42 44  1  0  0  0  0
  7 12  1  0  0  0  0
 32 37  1  0  0  0  0
 17 26  1  0  0  0  0
M  CHG  1  24  -1
M  END
$$$$

  -OEChem-05262214473D

 47 46  0     1  0  0  0  0  0999 V2000
    0.5093   -4.7265    3.0306 C   0  0  0  0  0  0  0  0  0  0  0  0
    1.2735   -4.4402    3.9448 O   0  0  0  0  0  0  0  0  0  0  0  0
   -0.4465   -5.8608    3.1982 C   0  0  0  0  0  0  0  0  0  0  0  0
   -0.0219   -6.8213    2.8645 H   0  0  0  0  0  0  0  0  0  0  0  0
   -0.7314   -6.0185    4.2509 H   0  0  0  0  0  0  0  0  0  0  0  0
   -1.3983   -5.7596    2.6527 H   0  0  0  0  0  0  0  0  0  0  0  0
    0.4252   -4.0886    1.8040 N   0  0  0  0  0  0  0  0  0  0  0  0
    1.2532   -2.9707    1.4349 C   0  0  2  0  0  0  0  0  0  0  0  0
    0.3395   -1.8293    1.0083 C   0  0  0  0  0  0  0  0  0  0  0  0
   -0.8136   -2.0027    0.6194 O   0  0  0  0  0  0  0  0  0  0  0  0
    2.2176   -3.3411    0.3189 C   0  0  0  0  0  0  0  0  0  0  0  0
   -0.2574   -4.4279    1.1287 H   0  0  0  0  0  0  0  0  0  0  0  0
    1.8087   -2.6785    2.3327 H   0  0  0  0  0  0  0  0  0  0  0  0
    1.6793   -3.6366   -0.5890 H   0  0  0  0  0  0  0  0  0  0  0  0
    2.8662   -2.4980    0.0589 H   0  0  0  0  0  0  0  0  0  0  0  0
    2.8538   -4.1816    0.6166 H   0  0  0  0  0  0  0  0  0  0  0  0
    0.9758   -0.5952    1.0708 N   0  0  0  0  0  0  0  0  0  0  0  0
    0.3258    0.6374    0.7059 C   0  0  2  0  0  0  0  0  0  0  0  0
    1.1212    1.2536   -0.4401 C   0  0  0  0  0  0  0  0  0  0  0  0
    1.3250    0.6710   -1.5032 O   0  0  0  0  0  0  0  0  0  0  0  0
    0.2442    1.6144    1.8849 C   0  0  0  0  0  0  0  0  0  0  0  0
   -0.6734    1.1364    3.0096 C   0  0  0  0  0  0  0  0  0  0  0  0
   -0.7820    2.0557    4.2306 C   0  0  0  0  0  0  0  0  0  0  0  0
    0.0151    3.0375    4.2151 O   0  5  0  0  0  0  0  0  0  0  0  0
   -1.6499    1.7428    5.0915 O   0  0  0  0  0  0  0  0  0  0  0  0
    1.9288   -0.5463    1.4242 H   0  0  0  0  0  0  0  0  0  0  0  0
   -0.6711    0.3701    0.3388 H   0  0  0  0  0  0  0  0  0  0  0  0
   -0.0903    2.5986    1.5344 H   0  0  0  0  0  0  0  0  0  0  0  0
    1.2497    1.7676    2.2994 H   0  0  0  0  0  0  0  0  0  0  0  0
   -1.6783    0.9427    2.6158 H   0  0  0  0  0  0  0  0  0  0  0  0
   -0.2938    0.1760    3.3811 H   0  0  0  0  0  0  0  0  0  0  0  0
    1.6146    2.5098   -0.1163 N   0  0  0  0  0  0  0  0  0  0  0  0
    2.4135    3.2964   -1.0272 C   0  0  2  0  0  0  0  0  0  0  0  0
    3.1389    4.3623   -0.2166 C   0  0  0  0  0  0  0  0  0  0  0  0
    2.7497    4.7490    0.8835 O   0  0  0  0  0  0  0  0  0  0  0  0
    1.5549    3.9288   -2.1115 C   0  0  0  0  0  0  0  0  0  0  0  0
    1.3824    2.9202    0.7834 H   0  0  0  0  0  0  0  0  0  0  0  0
    3.1458    2.6155   -1.4745 H   0  0  0  0  0  0  0  0  0  0  0  0
    0.8150    4.6144   -1.6825 H   0  0  0  0  0  0  0  0  0  0  0  0
    2.1655    4.5012   -2.8176 H   0  0  0  0  0  0  0  0  0  0  0  0
    1.0109    3.1625   -2.6743 H   0  0  0  0  0  0  0  0  0  0  0  0
    4.2479    4.8617   -0.8851 N   0  0  0  0  0  0  0  0  0  0  0  0
    5.0946    5.8915   -0.3296 C   0  0  0  0  0  0  0  0  0  0  0  0
    4.5074    4.4691   -1.7852 H   0  0  0  0  0  0  0  0  0  0  0  0
    4.7434    6.8776   -0.6676 H   0  0  0  0  0  0  0  0  0  0  0  0
    5.0556    5.8452    0.7687 H   0  0  0  0  0  0  0  0  0  0  0  0
    6.1301    5.7359   -0.6666 H   0  0  0  0  0  0  0  0  0  0  0  0
  1  3  1  0  0  0  0
  1  7  1  0  0  0  0
  1  2  2  0  0  0  0
 33 34  1  0  0  0  0
 34 42  1  0  0  0  0
 34 35  2  0  0  0  0
  8  9  1  0  0  0  0
  9 17  1  0  0  0  0
  9 10  2  0  0  0  0
 18 19  1  0  0  0  0
 19 32  1  0  0  0  0
 19 20  2  0  0  0  0
 22 23  1  0  0  0  0
 23 24  1  0  0  0  0
 23 25  2  0  0  0  0
 33 36  1  0  0  0  0
  8 11  1  0  0  0  0
 42 43  1  0  0  0  0
 21 22  1  0  0  0  0
 18 21  1  0  0  0  0
 32 33  1  0  0  0  0
  7  8  1  0  0  0  0
 17 18  1  0  0  0  0
  3  4  1  0  0  0  0
  3  5  1  0  0  0  0
  3  6  1  0  0  0  0
 36 39  1  0  0  0  0
 36 40  1  0  0  0  0
 36 41  1  0  0  0  0
 11 14  1  0  0  0  0
 11 15  1  0  0  0  0
 11 16  1  0  0  0  0
 43 45  1  0  0  0  0
 43 46  1  0  0  0  0
 43 47  1  0  0  0  0
 22 30  1  0  0  0  0
 22 31  1  0  0  0  0
 21 28  1  0  0  0  0
 21 29  1  0  0  0  0
 33 38  1  0  0  0  0
  8 13  1  0  0  0  0
 18 27  1  0  0  0  0
 42 44  1  0  0  0  0
  7 12  1  0  0  0  0
 32 37  1  0  0  0  0
 17 26  1  0  0  0  0
M  CHG  1  24  -1
M  END
$$$$

  -OEChem-05262214473D

 47 46  0     1  0  0  0  0  0999 V2000
    0.5093   -4.7265    3.0306 C   0  0  0  0  0  0  0  0  0  0  0  0
    1.2735   -4.4402    3.9448 O   0  0  0  0  0  0  0  0  0  0  0  0
   -0.4465   -5.8608    3.1982 C   0  0  0  0  0  0  0  0  0  0  0  0
   -0.0219   -6.8213    2.8645 H   0  0  0  0  0  0  0  0  0  0  0  0
   -0.7314   -6.0185    4.2509 H   0  0  0  0  0  0  0  0  0  0  0  0
   -1.3983   -5.7596    2.6527 H   0  0  0  0  0  0  0  0  0  0  0  0
    0.4252   -4.0886    1.8040 N   0  0  0  0  0  0  0  0  0  0  0  0
    1.2532   -2.9707    1.4349 C   0  0  2  0  0  0  0  0  0  0  0  0
    0.3395   -1.8293    1.0083 C   0  0  0  0  0  0  0  0  0  0  0  0
   -0.8136   -2.0027    0.6194 O   0  0  0  0  0  0  0  0  0  0  0  0
    2.2176   -3.3411    0.3189 C   0  0  0  0  0  0  0  0  0  0  0  0
   -0.2574   -4.4279    1.1287 H   0  0  0  0  0  0  0  0  0  0  0  0
    1.8087   -2.6785    2.3327 H   0  0  0  0  0  0  0  0  0  0  0  0
    1.6793   -3.6366   -0.5890 H   0  0  0  0  0  0  0  0  0  0  0  0
    2.8662   -2.4980    0.0589 H   0  0  0  0  0  0  0  0  0  0  0  0
    2.8538   -4.1816    0.6166 H   0  0  0  0  0  0  0  0  0  0  0  0
    0.9758   -0.5952    1.0708 N   0  0  0  0  0  0  0  0  0  0  0  0
    0.3258    0.6374    0.7059 C   0  0  2  0  0  0  0  0  0  0  0  0
    1.1212    1.2536   -0.4401 C   0  0  0  0  0  0  0  0  0  0  0  0
    1.1055    0.8040   -1.5841 O   0  0  0  0  0  0  0  0  0  0  0  0
    0.2442    1.6144    1.8849 C   0  0  0  0  0  0  0  0  0  0  0  0
   -0.6734    1.1364    3.0096 C   0  0  0  0  0  0  0  0  0  0  0  0
   -0.7820    2.0557    4.2306 C   0  0  0  0  0  0  0  0  0  0  0  0
    0.0151    3.0375    4.2151 O   0  5  0  0  0  0  0  0  0  0  0  0
   -1.6499    1.7428    5.0915 O   0  0  0  0  0  0  0  0  0  0  0  0
    1.9288   -0.5463    1.4242 H   0  0  0  0  0  0  0  0  0  0  0  0
   -0.6711    0.3701    0.3388 H   0  0  0  0  0  0  0  0  0  0  0  0
   -0.0903    2.5986    1.5344 H   0  0  0  0  0  0  0  0  0  0  0  0
    1.2497    1.7676    2.2994 H   0  0  0  0  0  0  0  0  0  0  0  0
   -1.6783    0.9427    2.6158 H   0  0  0  0  0  0  0  0  0  0  0  0
   -0.2938    0.1760    3.3811 H   0  0  0  0  0  0  0  0  0  0  0  0
    1.8852    2.3345   -0.0227 N   0  0  0  0  0  0  0  0  0  0  0  0
    2.7398    3.0815   -0.9163 C   0  0  2  0  0  0  0  0  0  0  0  0
    3.7361    3.8632   -0.0703 C   0  0  0  0  0  0  0  0  0  0  0  0
    3.5349    4.1519    1.1075 O   0  0  0  0  0  0  0  0  0  0  0  0
    1.9311    4.0142   -1.8044 C   0  0  0  0  0  0  0  0  0  0  0  0
    1.8237    2.6459    0.9422 H   0  0  0  0  0  0  0  0  0  0  0  0
    3.2759    2.3478   -1.5282 H   0  0  0  0  0  0  0  0  0  0  0  0
    1.3870    4.7565   -1.2090 H   0  0  0  0  0  0  0  0  0  0  0  0
    2.5776    4.5586   -2.5007 H   0  0  0  0  0  0  0  0  0  0  0  0
    1.1948    3.4535   -2.3902 H   0  0  0  0  0  0  0  0  0  0  0  0
    4.8573    4.2378   -0.7975 N   0  0  0  0  0  0  0  0  0  0  0  0
    5.9415    4.9989   -0.2218 C   0  0  0  0  0  0  0  0  0  0  0  0
    4.9491    3.9386   -1.7638 H   0  0  0  0  0  0  0  0  0  0  0  0
    5.7670    6.0718   -0.3904 H   0  0  0  0  0  0  0  0  0  0  0  0
    5.9943    4.8017    0.8591 H   0  0  0  0  0  0  0  0  0  0  0  0
    6.8891    4.7028   -0.6953 H   0  0  0  0  0  0  0  0  0  0  0  0
  1  3  1  0  0  0  0
  1  7  1  0  0  0  0
  1  2  2  0  0  0  0
 33 34  1  0  0  0  0
 34 42  1  0  0  0  0
 34 35  2  0  0  0  0
  8  9  1  0  0  0  0
  9 17  1  0  0  0  0
  9 10  2  0  0  0  0
 18 19  1  0  0  0  0
 19 32  1  0  0  0  0
 19 20  2  0  0  0  0
 22 23  1  0  0  0  0
 23 24  1  0  0  0  0
 23 25  2  0  0  0  0
 33 36  1  0  0  0  0
  8 11  1  0  0  0  0
 42 43  1  0  0  0  0
 21 22  1  0  0  0  0
 18 21  1  0  0  0  0
 32 33  1  0  0  0  0
  7  8  1  0  0  0  0
 17 18  1  0  0  0  0
  3  4  1  0  0  0  0
  3  5  1  0  0  0  0
  3  6  1  0  0  0  0
 36 39  1  0  0  0  0
 36 40  1  0  0  0  0
 36 41  1  0  0  0  0
 11 14  1  0  0  0  0
 11 15  1  0  0  0  0
 11 16  1  0  0  0  0
 43 45  1  0  0  0  0
 43 46  1  0  0  0  0
 43 47  1  0  0  0  0
 22 30  1  0  0  0  0
 22 31  1  0  0  0  0
 21 28  1  0  0  0  0
 21 29  1  0  0  0  0
 33 38  1  0  0  0  0
  8 13  1  0  0  0  0
 18 27  1  0  0  0  0
 42 44  1  0  0  0  0
  7 12  1  0  0  0  0
 32 37  1  0  0  0  0
 17 26  1  0  0  0  0
M  CHG  1  24  -1
M  END
$$$$

  -OEChem-05262214473D

 47 46  0     1  0  0  0  0  0999 V2000
    0.5093   -4.7265    3.0306 C   0  0  0  0  0  0  0  0  0  0  0  0
    1.2735   -4.4402    3.9448 O   0  0  0  0  0  0  0  0  0  0  0  0
   -0.4465   -5.8608    3.1982 C   0  0  0  0  0  0  0  0  0  0  0  0
   -0.0219   -6.8213    2.8645 H   0  0  0  0  0  0  0  0  0  0  0  0
   -0.7314   -6.0185    4.2509 H   0  0  0  0  0  0  0  0  0  0  0  0
   -1.3983   -5.7596    2.6527 H   0  0  0  0  0  0  0  0  0  0  0  0
    0.4252   -4.0886    1.8040 N   0  0  0  0  0  0  0  0  0  0  0  0
    1.2532   -2.9707    1.4349 C   0  0  2  0  0  0  0  0  0  0  0  0
    0.3395   -1.8293    1.0083 C   0  0  0  0  0  0  0  0  0  0  0  0
   -0.8136   -2.0027    0.6194 O   0  0  0  0  0  0  0  0  0  0  0  0
    2.2176   -3.3411    0.3189 C   0  0  0  0  0  0  0  0  0  0  0  0
   -0.2574   -4.4279    1.1287 H   0  0  0  0  0  0  0  0  0  0  0  0
    1.8087   -2.6785    2.3327 H   0  0  0  0  0  0  0  0  0  0  0  0
    1.6793   -3.6366   -0.5890 H   0  0  0  0  0  0  0  0  0  0  0  0
    2.8662   -2.4980    0.0589 H   0  0  0  0  0  0  0  0  0  0  0  0
    2.8538   -4.1816    0.6166 H   0  0  0  0  0  0  0  0  0  0  0  0
    0.9758   -0.5952    1.0708 N   0  0  0  0  0  0  0  0  0  0  0  0
    0.3258    0.6374    0.7059 C   0  0  2  0  0  0  0  0  0  0  0  0
    1.1212    1.2536   -0.4401 C   0  0  0  0  0  0  0  0  0  0  0  0
    0.9108    0.9860   -1.6213 O   0  0  0  0  0  0  0  0  0  0  0  0
    0.2442    1.6144    1.8849 C   0  0  0  0  0  0  0  0  0  0  0  0
   -0.6734    1.1364    3.0096 C   0  0  0  0  0  0  0  0  0  0  0  0
   -0.7820    2.0557    4.2306 C   0  0  0  0  0  0  0  0  0  0  0  0
    0.0151    3.0375    4.2151 O   0  5  0  0  0  0  0  0  0  0  0  0
   -1.6499    1.7428    5.0915 O   0  0  0  0  0  0  0  0  0  0  0  0
    1.9288   -0.5463    1.4242 H   0  0  0  0  0  0  0  0  0  0  0  0
   -0.6711    0.3701    0.3388 H   0  0  0  0  0  0  0  0  0  0  0  0
   -0.0903    2.5986    1.5344 H   0  0  0  0  0  0  0  0  0  0  0  0
    1.2497    1.7676    2.2994 H   0  0  0  0  0  0  0  0  0  0  0  0
   -1.6783    0.9427    2.6158 H   0  0  0  0  0  0  0  0  0  0  0  0
   -0.2938    0.1760    3.3811 H   0  0  0  0  0  0  0  0  0  0  0  0
    2.1224    2.0999    0.0158 N   0  0  0  0  0  0  0  0  0  0  0  0
    3.0248    2.7954   -0.8723 C   0  0  2  0  0  0  0  0  0  0  0  0
    4.2313    3.2453   -0.0589 C   0  0  0  0  0  0  0  0  0  0  0  0
    4.2007    3.3923    1.1611 O   0  0  0  0  0  0  0  0  0  0  0  0
    2.3433    3.9821   -1.5356 C   0  0  0  0  0  0  0  0  0  0  0  0
    2.2131    2.2738    1.0124 H   0  0  0  0  0  0  0  0  0  0  0  0
    3.3438    2.0712   -1.6298 H   0  0  0  0  0  0  0  0  0  0  0  0
    2.0167    4.7186   -0.7923 H   0  0  0  0  0  0  0  0  0  0  0  0
    3.0200    4.4911   -2.2299 H   0  0  0  0  0  0  0  0  0  0  0  0
    1.4587    3.6604   -2.0957 H   0  0  0  0  0  0  0  0  0  0  0  0
    5.3339    3.5049   -0.8608 N   0  0  0  0  0  0  0  0  0  0  0  0
    6.5971    3.9576   -0.3266 C   0  0  0  0  0  0  0  0  0  0  0  0
    5.2749    3.3375   -1.8609 H   0  0  0  0  0  0  0  0  0  0  0  0
    6.6280    5.0571   -0.3385 H   0  0  0  0  0  0  0  0  0  0  0  0
    6.7075    3.5989    0.7074 H   0  0  0  0  0  0  0  0  0  0  0  0
    7.4184    3.5612   -0.9418 H   0  0  0  0  0  0  0  0  0  0  0  0
  1  3  1  0  0  0  0
  1  7  1  0  0  0  0
  1  2  2  0  0  0  0
 33 34  1  0  0  0  0
 34 42  1  0  0  0  0
 34 35  2  0  0  0  0
  8  9  1  0  0  0  0
  9 17  1  0  0  0  0
  9 10  2  0  0  0  0
 18 19  1  0  0  0  0
 19 32  1  0  0  0  0
 19 20  2  0  0  0  0
 22 23  1  0  0  0  0
 23 24  1  0  0  0  0
 23 25  2  0  0  0  0
 33 36  1  0  0  0  0
  8 11  1  0  0  0  0
 42 43  1  0  0  0  0
 21 22  1  0  0  0  0
 18 21  1  0  0  0  0
 32 33  1  0  0  0  0
  7  8  1  0  0  0  0
 17 18  1  0  0  0  0
  3  4  1  0  0  0  0
  3  5  1  0  0  0  0
  3  6  1  0  0  0  0
 36 39  1  0  0  0  0
 36 40  1  0  0  0  0
 36 41  1  0  0  0  0
 11 14  1  0  0  0  0
 11 15  1  0  0  0  0
 11 16  1  0  0  0  0
 43 45  1  0  0  0  0
 43 46  1  0  0  0  0
 43 47  1  0  0  0  0
 22 30  1  0  0  0  0
 22 31  1  0  0  0  0
 21 28  1  0  0  0  0
 21 29  1  0  0  0  0
 33 38  1  0  0  0  0
  8 13  1  0  0  0  0
 18 27  1  0  0  0  0
 42 44  1  0  0  0  0
  7 12  1  0  0  0  0
 32 37  1  0  0  0  0
 17 26  1  0  0  0  0
M  CHG  1  24  -1
M  END
$$$$

  -OEChem-05262214473D

 47 46  0     1  0  0  0  0  0999 V2000
    0.5093   -4.7265    3.0306 C   0  0  0  0  0  0  0  0  0  0  0  0
    1.2735   -4.4402    3.9448 O   0  0  0  0  0  0  0  0  0  0  0  0
   -0.4465   -5.8608    3.1982 C   0  0  0  0  0  0  0  0  0  0  0  0
   -0.0219   -6.8213    2.8645 H   0  0  0  0  0  0  0  0  0  0  0  0
   -0.7314   -6.0185    4.2509 H   0  0  0  0  0  0  0  0  0  0  0  0
   -1.3983   -5.7596    2.6527 H   0  0  0  0  0  0  0  0  0  0  0  0
    0.4252   -4.0886    1.8040 N   0  0  0  0  0  0  0  0  0  0  0  0
    1.2532   -2.9707    1.4349 C   0  0  2  0  0  0  0  0  0  0  0  0
    0.3395   -1.8293    1.0083 C   0  0  0  0  0  0  0  0  0  0  0  0
   -0.8136   -2.0027    0.6194 O   0  0  0  0  0  0  0  0  0  0  0  0
    2.2176   -3.3411    0.3189 C   0  0  0  0  0  0  0  0  0  0  0  0
   -0.2574   -4.4279    1.1287 H   0  0  0  0  0  0  0  0  0  0  0  0
    1.8087   -2.6785    2.3327 H   0  0  0  0  0  0  0  0  0  0  0  0
    1.6793   -3.6366   -0.5890 H   0  0  0  0  0  0  0  0  0  0  0  0
    2.8662   -2.4980    0.0589 H   0  0  0  0  0  0  0  0  0  0  0  0
    2.8538   -4.1816    0.6166 H   0  0  0  0  0  0  0  0  0  0  0  0
    0.9758   -0.5952    1.0708 N   0  0  0  0  0  0  0  0  0  0  0  0
    0.3258    0.6374    0.7059 C   0  0  2  0  0  0  0  0  0  0  0  0
    1.1212    1.2536   -0.4401 C   0  0  0  0  0  0  0  0  0  0  0  0
    0.7543    1.2047   -1.6123 O   0  0  0  0  0  0  0  0  0  0  0  0
    0.2442    1.6144    1.8849 C   0  0  0  0  0  0  0  0  0  0  0  0
   -0.6734    1.1364    3.0096 C   0  0  0  0  0  0  0  0  0  0  0  0
   -0.7820    2.0557    4.2306 C   0  0  0  0  0  0  0  0  0  0  0  0
    0.0151    3.0375    4.2151 O   0  5  0  0  0  0  0  0  0  0  0  0
   -1.6499    1.7428    5.0915 O   0  0  0  0  0  0  0  0  0  0  0  0
    1.9288   -0.5463    1.4242 H   0  0  0  0  0  0  0  0  0  0  0  0
   -0.6711    0.3701    0.3388 H   0  0  0  0  0  0  0  0  0  0  0  0
   -0.0903    2.5986    1.5344 H   0  0  0  0  0  0  0  0  0  0  0  0
    1.2497    1.7676    2.2994 H   0  0  0  0  0  0  0  0  0  0  0  0
   -1.6783    0.9427    2.6158 H   0  0  0  0  0  0  0  0  0  0  0  0
   -0.2938    0.1760    3.3811 H   0  0  0  0  0  0  0  0  0  0  0  0
    2.3098    1.8220   -0.0036 N   0  0  0  0  0  0  0  0  0  0  0  0
    3.2491    2.4577   -0.8982 C   0  0  2  0  0  0  0  0  0  0  0  0
    4.5906    2.5506   -0.1831 C   0  0  0  0  0  0  0  0  0  0  0  0
    4.7017    2.5218    1.0408 O   0  0  0  0  0  0  0  0  0  0  0  0
    2.7633    3.8346   -1.3234 C   0  0  0  0  0  0  0  0  0  0  0  0
    2.5243    1.8290    0.9892 H   0  0  0  0  0  0  0  0  0  0  0  0
    3.3450    1.8045   -1.7723 H   0  0  0  0  0  0  0  0  0  0  0  0
    2.6611    4.5032   -0.4608 H   0  0  0  0  0  0  0  0  0  0  0  0
    3.4625    4.3033   -2.0237 H   0  0  0  0  0  0  0  0  0  0  0  0
    1.7847    3.7693   -1.8109 H   0  0  0  0  0  0  0  0  0  0  0  0
    5.6450    2.7128   -1.0708 N   0  0  0  0  0  0  0  0  0  0  0  0
    7.0170    2.8383   -0.6371 C   0  0  0  0  0  0  0  0  0  0  0  0
    5.4625    2.7066   -2.0700 H   0  0  0  0  0  0  0  0  0  0  0  0
    7.2677    3.9024   -0.5153 H   0  0  0  0  0  0  0  0  0  0  0  0
    7.1466    2.3189    0.3239 H   0  0  0  0  0  0  0  0  0  0  0  0
    7.6818    2.3889   -1.3894 H   0  0  0  0  0  0  0  0  0  0  0  0
  1  3  1  0  0  0  0
  1  7  1  0  0  0  0
  1  2  2  0  0  0  0
 33 34  1  0  0  0  0
 34 42  1  0  0  0  0
 34 35  2  0  0  0  0
  8  9  1  0  0  0  0
  9 17  1  0  0  0  0
  9 10  2  0  0  0  0
 18 19  1  0  0  0  0
 19 32  1  0  0  0  0
 19 20  2  0  0  0  0
 22 23  1  0  0  0  0
 23 24  1  0  0  0  0
 23 25  2  0  0  0  0
 33 36  1  0  0  0  0
  8 11  1  0  0  0  0
 42 43  1  0  0  0  0
 21 22  1  0  0  0  0
 18 21  1  0  0  0  0
 32 33  1  0  0  0  0
  7  8  1  0  0  0  0
 17 18  1  0  0  0  0
  3  4  1  0  0  0  0
  3  5  1  0  0  0  0
  3  6  1  0  0  0  0
 36 39  1  0  0  0  0
 36 40  1  0  0  0  0
 36 41  1  0  0  0  0
 11 14  1  0  0  0  0
 11 15  1  0  0  0  0
 11 16  1  0  0  0  0
 43 45  1  0  0  0  0
 43 46  1  0  0  0  0
 43 47  1  0  0  0  0
 22 30  1  0  0  0  0
 22 31  1  0  0  0  0
 21 28  1  0  0  0  0
 21 29  1  0  0  0  0
 33 38  1  0  0  0  0
  8 13  1  0  0  0  0
 18 27  1  0  0  0  0
 42 44  1  0  0  0  0
  7 12  1  0  0  0  0
 32 37  1  0  0  0  0
 17 26  1  0  0  0  0
M  CHG  1  24  -1
M  END
$$$$

  -OEChem-05262214473D

 47 46  0     1  0  0  0  0  0999 V2000
    0.5093   -4.7265    3.0306 C   0  0  0  0  0  0  0  0  0  0  0  0
    1.2735   -4.4402    3.9448 O   0  0  0  0  0  0  0  0  0  0  0  0
   -0.4465   -5.8608    3.1982 C   0  0  0  0  0  0  0  0  0  0  0  0
   -0.0219   -6.8213    2.8645 H   0  0  0  0  0  0  0  0  0  0  0  0
   -0.7314   -6.0185    4.2509 H   0  0  0  0  0  0  0  0  0  0  0  0
   -1.3983   -5.7596    2.6527 H   0  0  0  0  0  0  0  0  0  0  0  0
    0.4252   -4.0886    1.8040 N   0  0  0  0  0  0  0  0  0  0  0  0
    1.2532   -2.9707    1.4349 C   0  0  2  0  0  0  0  0  0  0  0  0
    0.3395   -1.8293    1.0083 C   0  0  0  0  0  0  0  0  0  0  0  0
   -0.8136   -2.0027    0.6194 O   0  0  0  0  0  0  0  0  0  0  0  0
    2.2176   -3.3411    0.3189 C   0  0  0  0  0  0  0  0  0  0  0  0
   -0.2574   -4.4279    1.1287 H   0  0  0  0  0  0  0  0  0  0  0  0
    1.8087   -2.6785    2.3327 H   0  0  0  0  0  0  0  0  0  0  0  0
    1.6793   -3.6366   -0.5890 H   0  0  0  0  0  0  0  0  0  0  0  0
    2.8662   -2.4980    0.0589 H   0  0  0  0  0  0  0  0  0  0  0  0
    2.8538   -4.1816    0.6166 H   0  0  0  0  0  0  0  0  0  0  0  0
    0.9758   -0.5952    1.0708 N   0  0  0  0  0  0  0  0  0  0  0  0
    0.3258    0.6374    0.7059 C   0  0  2  0  0  0  0  0  0  0  0  0
    1.1212    1.2536   -0.4401 C   0  0  0  0  0  0  0  0  0  0  0  0
    0.6466    1.4452   -1.5578 O   0  0  0  0  0  0  0  0  0  0  0  0
    0.2442    1.6144    1.8849 C   0  0  0  0  0  0  0  0  0  0  0  0
   -0.6734    1.1364    3.0096 C   0  0  0  0  0  0  0  0  0  0  0  0
   -0.7820    2.0557    4.2306 C   0  0  0  0  0  0  0  0  0  0  0  0
    0.0151    3.0375    4.2151 O   0  5  0  0  0  0  0  0  0  0  0  0
   -1.6499    1.7428    5.0915 O   0  0  0  0  0  0  0  0  0  0  0  0
    1.9288   -0.5463    1.4242 H   0  0  0  0  0  0  0  0  0  0  0  0
   -0.6711    0.3701    0.3388 H   0  0  0  0  0  0  0  0  0  0  0  0
   -0.0903    2.5986    1.5344 H   0  0  0  0  0  0  0  0  0  0  0  0
    1.2497    1.7676    2.2994 H   0  0  0  0  0  0  0  0  0  0  0  0
   -1.6783    0.9427    2.6158 H   0  0  0  0  0  0  0  0  0  0  0  0
   -0.2938    0.1760    3.3811 H   0  0  0  0  0  0  0  0  0  0  0  0
    2.4348    1.5198   -0.0794 N   0  0  0  0  0  0  0  0  0  0  0  0
    3.3974    2.0914   -0.9923 C   0  0  2  0  0  0  0  0  0  0  0  0
    4.7895    1.8264   -0.4344 C   0  0  0  0  0  0  0  0  0  0  0  0
    5.0037    1.5997    0.7546 O   0  0  0  0  0  0  0  0  0  0  0  0
    3.1625    3.5819   -1.1822 C   0  0  0  0  0  0  0  0  0  0  0  0
    2.7359    1.3421    0.8743 H   0  0  0  0  0  0  0  0  0  0  0  0
    3.2794    1.5659   -1.9462 H   0  0  0  0  0  0  0  0  0  0  0  0
    3.2764    4.1252   -0.2370 H   0  0  0  0  0  0  0  0  0  0  0  0
    3.8750    4.0080   -1.8962 H   0  0  0  0  0  0  0  0  0  0  0  0
    2.1505    3.7725   -1.5553 H   0  0  0  0  0  0  0  0  0  0  0  0
    5.7696    1.9155   -1.4131 N   0  0  0  0  0  0  0  0  0  0  0  0
    7.1723    1.7175   -1.1320 C   0  0  0  0  0  0  0  0  0  0  0  0
    5.4992    2.0889   -2.3767 H   0  0  0  0  0  0  0  0  0  0  0  0
    7.6425    2.6866   -0.9090 H   0  0  0  0  0  0  0  0  0  0  0  0
    7.2817    1.0489   -0.2653 H   0  0  0  0  0  0  0  0  0  0  0  0
    7.6614    1.2657   -2.0076 H   0  0  0  0  0  0  0  0  0  0  0  0
  1  3  1  0  0  0  0
  1  7  1  0  0  0  0
  1  2  2  0  0  0  0
 33 34  1  0  0  0  0
 34 42  1  0  0  0  0
 34 35  2  0  0  0  0
  8  9  1  0  0  0  0
  9 17  1  0  0  0  0
  9 10  2  0  0  0  0
 18 19  1  0  0  0  0
 19 32  1  0  0  0  0
 19 20  2  0  0  0  0
 22 23  1  0  0  0  0
 23 24  1  0  0  0  0
 23 25  2  0  0  0  0
 33 36  1  0  0  0  0
  8 11  1  0  0  0  0
 42 43  1  0  0  0  0
 21 22  1  0  0  0  0
 18 21  1  0  0  0  0
 32 33  1  0  0  0  0
  7  8  1  0  0  0  0
 17 18  1  0  0  0  0
  3  4  1  0  0  0  0
  3  5  1  0  0  0  0
  3  6  1  0  0  0  0
 36 39  1  0  0  0  0
 36 40  1  0  0  0  0
 36 41  1  0  0  0  0
 11 14  1  0  0  0  0
 11 15  1  0  0  0  0
 11 16  1  0  0  0  0
 43 45  1  0  0  0  0
 43 46  1  0  0  0  0
 43 47  1  0  0  0  0
 22 30  1  0  0  0  0
 22 31  1  0  0  0  0
 21 28  1  0  0  0  0
 21 29  1  0  0  0  0
 33 38  1  0  0  0  0
  8 13  1  0  0  0  0
 18 27  1  0  0  0  0
 42 44  1  0  0  0  0
  7 12  1  0  0  0  0
 32 37  1  0  0  0  0
 17 26  1  0  0  0  0
M  CHG  1  24  -1
M  END
$$$$

  -OEChem-05262214473D

 47 46  0     1  0  0  0  0  0999 V2000
    0.5093   -4.7265    3.0306 C   0  0  0  0  0  0  0  0  0  0  0  0
    1.2735   -4.4402    3.9448 O   0  0  0  0  0  0  0  0  0  0  0  0
   -0.4465   -5.8608    3.1982 C   0  0  0  0  0  0  0  0  0  0  0  0
   -0.0219   -6.8213    2.8645 H   0  0  0  0  0  0  0  0  0  0  0  0
   -0.7314   -6.0185    4.2509 H   0  0  0  0  0  0  0  0  0  0  0  0
   -1.3983   -5.7596    2.6527 H   0  0  0  0  0  0  0  0  0  0  0  0
    0.4252   -4.0886    1.8040 N   0  0  0  0  0  0  0  0  0  0  0  0
    1.2532   -2.9707    1.4349 C   0  0  2  0  0  0  0  0  0  0  0  0
    0.3395   -1.8293    1.0083 C   0  0  0  0  0  0  0  0  0  0  0  0
   -0.8136   -2.0027    0.6194 O   0  0  0  0  0  0  0  0  0  0  0  0
    2.2176   -3.3411    0.3189 C   0  0  0  0  0  0  0  0  0  0  0  0
   -0.2574   -4.4279    1.1287 H   0  0  0  0  0  0  0  0  0  0  0  0
    1.8087   -2.6785    2.3327 H   0  0  0  0  0  0  0  0  0  0  0  0
    1.6793   -3.6366   -0.5890 H   0  0  0  0  0  0  0  0  0  0  0  0
    2.8662   -2.4980    0.0589 H   0  0  0  0  0  0  0  0  0  0  0  0
    2.8538   -4.1816    0.6166 H   0  0  0  0  0  0  0  0  0  0  0  0
    0.9758   -0.5952    1.0708 N   0  0  0  0  0  0  0  0  0  0  0  0
    0.3258    0.6374    0.7059 C   0  0  2  0  0  0  0  0  0  0  0  0
    1.1212    1.2536   -0.4401 C   0  0  0  0  0  0  0  0  0  0  0  0
    0.5950    1.6911   -1.4613 O   0  0  0  0  0  0  0  0  0  0  0  0
    0.2442    1.6144    1.8849 C   0  0  0  0  0  0  0  0  0  0  0  0
   -0.6734    1.1364    3.0096 C   0  0  0  0  0  0  0  0  0  0  0  0
   -0.7820    2.0557    4.2306 C   0  0  0  0  0  0  0  0  0  0  0  0
    0.0151    3.0375    4.2151 O   0  5  0  0  0  0  0  0  0  0  0  0
   -1.6499    1.7428    5.0915 O   0  0  0  0  0  0  0  0  0  0  0  0
    1.9288   -0.5463    1.4242 H   0  0  0  0  0  0  0  0  0  0  0  0
   -0.6711    0.3701    0.3388 H   0  0  0  0  0  0  0  0  0  0  0  0
   -0.0903    2.5986    1.5344 H   0  0  0  0  0  0  0  0  0  0  0  0
    1.2497    1.7676    2.2994 H   0  0  0  0  0  0  0  0  0  0  0  0
   -1.6783    0.9427    2.6158 H   0  0  0  0  0  0  0  0  0  0  0  0
   -0.2938    0.1760    3.3811 H   0  0  0  0  0  0  0  0  0  0  0  0
    2.4888    1.2137   -0.2065 N   0  0  0  0  0  0  0  0  0  0  0  0
    3.4595    1.7214   -1.1481 C   0  0  2  0  0  0  0  0  0  0  0  0
    4.8146    1.1222   -0.7957 C   0  0  0  0  0  0  0  0  0  0  0  0
    5.0862    0.6890    0.3221 O   0  0  0  0  0  0  0  0  0  0  0  0
    3.5137    3.2410   -1.1217 C   0  0  0  0  0  0  0  0  0  0  0  0
    2.8336    0.8461    0.6753 H   0  0  0  0  0  0  0  0  0  0  0  0
    3.1515    1.3716   -2.1394 H   0  0  0  0  0  0  0  0  0  0  0  0
    3.8206    3.6101   -0.1363 H   0  0  0  0  0  0  0  0  0  0  0  0
    4.2293    3.6253   -1.8561 H   0  0  0  0  0  0  0  0  0  0  0  0
    2.5312    3.6700   -1.3461 H   0  0  0  0  0  0  0  0  0  0  0  0
    5.6990    1.1674   -1.8643 N   0  0  0  0  0  0  0  0  0  0  0  0
    7.0527    0.6714   -1.7776 C   0  0  0  0  0  0  0  0  0  0  0  0
    5.3823    1.5266   -2.7602 H   0  0  0  0  0  0  0  0  0  0  0  0
    7.7270    1.4924   -1.4925 H   0  0  0  0  0  0  0  0  0  0  0  0
    7.1035   -0.1245   -1.0200 H   0  0  0  0  0  0  0  0  0  0  0  0
    7.3586    0.2681   -2.7542 H   0  0  0  0  0  0  0  0  0  0  0  0
  1  3  1  0  0  0  0
  1  7  1  0  0  0  0
  1  2  2  0  0  0  0
 33 34  1  0  0  0  0
 34 42  1  0  0  0  0
 34 35  2  0  0  0  0
  8  9  1  0  0  0  0
  9 17  1  0  0  0  0
  9 10  2  0  0  0  0
 18 19  1  0  0  0  0
 19 32  1  0  0  0  0
 19 20  2  0  0  0  0
 22 23  1  0  0  0  0
 23 24  1  0  0  0  0
 23 25  2  0  0  0  0
 33 36  1  0  0  0  0
  8 11  1  0  0  0  0
 42 43  1  0  0  0  0
 21 22  1  0  0  0  0
 18 21  1  0  0  0  0
 32 33  1  0  0  0  0
  7  8  1  0  0  0  0
 17 18  1  0  0  0  0
  3  4  1  0  0  0  0
  3  5  1  0  0  0  0
  3  6  1  0  0  0  0
 36 39  1  0  0  0  0
 36 40  1  0  0  0  0
 36 41  1  0  0  0  0
 11 14  1  0  0  0  0
 11 15  1  0  0  0  0
 11 16  1  0  0  0  0
 43 45  1  0  0  0  0
 43 46  1  0  0  0  0
 43 47  1  0  0  0  0
 22 30  1  0  0  0  0
 22 31  1  0  0  0  0
 21 28  1  0  0  0  0
 21 29  1  0  0  0  0
 33 38  1  0  0  0  0
  8 13  1  0  0  0  0
 18 27  1  0  0  0  0
 42 44  1  0  0  0  0
  7 12  1  0  0  0  0
 32 37  1  0  0  0  0
 17 26  1  0  0  0  0
M  CHG  1  24  -1
M  END
$$$$

  -OEChem-05262214473D

 47 46  0     1  0  0  0  0  0999 V2000
    0.5093   -4.7265    3.0306 C   0  0  0  0  0  0  0  0  0  0  0  0
    1.2735   -4.4402    3.9448 O   0  0  0  0  0  0  0  0  0  0  0  0
   -0.4465   -5.8608    3.1982 C   0  0  0  0  0  0  0  0  0  0  0  0
   -0.0219   -6.8213    2.8645 H   0  0  0  0  0  0  0  0  0  0  0  0
   -0.7314   -6.0185    4.2509 H   0  0  0  0  0  0  0  0  0  0  0  0
   -1.3983   -5.7596    2.6527 H   0  0  0  0  0  0  0  0  0  0  0  0
    0.4252   -4.0886    1.8040 N   0  0  0  0  0  0  0  0  0  0  0  0
    1.2532   -2.9707    1.4349 C   0  0  2  0  0  0  0  0  0  0  0  0
    0.3395   -1.8293    1.0083 C   0  0  0  0  0  0  0  0  0  0  0  0
   -0.8136   -2.0027    0.6194 O   0  0  0  0  0  0  0  0  0  0  0  0
    2.2176   -3.3411    0.3189 C   0  0  0  0  0  0  0  0  0  0  0  0
   -0.2574   -4.4279    1.1287 H   0  0  0  0  0  0  0  0  0  0  0  0
    1.8087   -2.6785    2.3327 H   0  0  0  0  0  0  0  0  0  0  0  0
    1.6793   -3.6366   -0.5890 H   0  0  0  0  0  0  0  0  0  0  0  0
    2.8662   -2.4980    0.0589 H   0  0  0  0  0  0  0  0  0  0  0  0
    2.8538   -4.1816    0.6166 H   0  0  0  0  0  0  0  0  0  0  0  0
    0.9758   -0.5952    1.0708 N   0  0  0  0  0  0  0  0  0  0  0  0
    0.3258    0.6374    0.7059 C   0  0  2  0  0  0  0  0  0  0  0  0
    1.1212    1.2536   -0.4401 C   0  0  0  0  0  0  0  0  0  0  0  0
    0.6032    1.9256   -1.3296 O   0  0  0  0  0  0  0  0  0  0  0  0
    0.2442    1.6144    1.8849 C   0  0  0  0  0  0  0  0  0  0  0  0
   -0.6734    1.1364    3.0096 C   0  0  0  0  0  0  0  0  0  0  0  0
   -0.7820    2.0557    4.2306 C   0  0  0  0  0  0  0  0  0  0  0  0
    0.0151    3.0375    4.2151 O   0  5  0  0  0  0  0  0  0  0  0  0
   -1.6499    1.7428    5.0915 O   0  0  0  0  0  0  0  0  0  0  0  0
    1.9288   -0.5463    1.4242 H   0  0  0  0  0  0  0  0  0  0  0  0
   -0.6711    0.3701    0.3388 H   0  0  0  0  0  0  0  0  0  0  0  0
   -0.0903    2.5986    1.5344 H   0  0  0  0  0  0  0  0  0  0  0  0
    1.2497    1.7676    2.2994 H   0  0  0  0  0  0  0  0  0  0  0  0
   -1.6783    0.9427    2.6158 H   0  0  0  0  0  0  0  0  0  0  0  0
   -0.2938    0.1760    3.3811 H   0  0  0  0  0  0  0  0  0  0  0  0
    2.4681    0.9248   -0.3762 N   0  0  0  0  0  0  0  0  0  0  0  0
    3.4312    1.3730   -1.3551 C   0  0  2  0  0  0  0  0  0  0  0  0
    4.6640    0.4858   -1.2424 C   0  0  0  0  0  0  0  0  0  0  0  0
    4.9436   -0.1483   -0.2272 O   0  0  0  0  0  0  0  0  0  0  0  0
    3.7930    2.8353   -1.1460 C   0  0  0  0  0  0  0  0  0  0  0  0
    2.8107    0.3749    0.4060 H   0  0  0  0  0  0  0  0  0  0  0  0
    2.9699    1.2350   -2.3390 H   0  0  0  0  0  0  0  0  0  0  0  0
    4.2566    2.9932   -0.1654 H   0  0  0  0  0  0  0  0  0  0  0  0
    4.5013    3.1813   -1.9060 H   0  0  0  0  0  0  0  0  0  0  0  0
    2.9009    3.4687   -1.1978 H   0  0  0  0  0  0  0  0  0  0  0  0
    5.4381    0.5195   -2.3939 N   0  0  0  0  0  0  0  0  0  0  0  0
    6.6661   -0.2286   -2.5298 C   0  0  0  0  0  0  0  0  0  0  0  0
    5.1200    1.0579   -3.1943 H   0  0  0  0  0  0  0  0  0  0  0  0
    7.5153    0.4013   -2.2262 H   0  0  0  0  0  0  0  0  0  0  0  0
    6.6243   -1.1214   -1.8887 H   0  0  0  0  0  0  0  0  0  0  0  0
    6.7940   -0.5357   -3.5783 H   0  0  0  0  0  0  0  0  0  0  0  0
  1  3  1  0  0  0  0
  1  7  1  0  0  0  0
  1  2  2  0  0  0  0
 33 34  1  0  0  0  0
 34 42  1  0  0  0  0
 34 35  2  0  0  0  0
  8  9  1  0  0  0  0
  9 17  1  0  0  0  0
  9 10  2  0  0  0  0
 18 19  1  0  0  0  0
 19 32  1  0  0  0  0
 19 20  2  0  0  0  0
 22 23  1  0  0  0  0
 23 24  1  0  0  0  0
 23 25  2  0  0  0  0
 33 36  1  0  0  0  0
  8 11  1  0  0  0  0
 42 43  1  0  0  0  0
 21 22  1  0  0  0  0
 18 21  1  0  0  0  0
 32 33  1  0  0  0  0
  7  8  1  0  0  0  0
 17 18  1  0  0  0  0
  3  4  1  0  0  0  0
  3  5  1  0  0  0  0
  3  6  1  0  0  0  0
 36 39  1  0  0  0  0
 36 40  1  0  0  0  0
 36 41  1  0  0  0  0
 11 14  1  0  0  0  0
 11 15  1  0  0  0  0
 11 16  1  0  0  0  0
 43 45  1  0  0  0  0
 43 46  1  0  0  0  0
 43 47  1  0  0  0  0
 22 30  1  0  0  0  0
 22 31  1  0  0  0  0
 21 28  1  0  0  0  0
 21 29  1  0  0  0  0
 33 38  1  0  0  0  0
  8 13  1  0  0  0  0
 18 27  1  0  0  0  0
 42 44  1  0  0  0  0
  7 12  1  0  0  0  0
 32 37  1  0  0  0  0
 17 26  1  0  0  0  0
M  CHG  1  24  -1
M  END
$$$$

  -OEChem-05262214473D

 47 46  0     1  0  0  0  0  0999 V2000
    0.5093   -4.7265    3.0306 C   0  0  0  0  0  0  0  0  0  0  0  0
    1.2735   -4.4402    3.9448 O   0  0  0  0  0  0  0  0  0  0  0  0
   -0.4465   -5.8608    3.1982 C   0  0  0  0  0  0  0  0  0  0  0  0
   -0.0219   -6.8213    2.8645 H   0  0  0  0  0  0  0  0  0  0  0  0
   -0.7314   -6.0185    4.2509 H   0  0  0  0  0  0  0  0  0  0  0  0
   -1.3983   -5.7596    2.6527 H   0  0  0  0  0  0  0  0  0  0  0  0
    0.4252   -4.0886    1.8040 N   0  0  0  0  0  0  0  0  0  0  0  0
    1.2532   -2.9707    1.4349 C   0  0  2  0  0  0  0  0  0  0  0  0
    0.3395   -1.8293    1.0083 C   0  0  0  0  0  0  0  0  0  0  0  0
   -0.8136   -2.0027    0.6194 O   0  0  0  0  0  0  0  0  0  0  0  0
    2.2176   -3.3411    0.3189 C   0  0  0  0  0  0  0  0  0  0  0  0
   -0.2574   -4.4279    1.1287 H   0  0  0  0  0  0  0  0  0  0  0  0
    1.8087   -2.6785    2.3327 H   0  0  0  0  0  0  0  0  0  0  0  0
    1.6793   -3.6366   -0.5890 H   0  0  0  0  0  0  0  0  0  0  0  0
    2.8662   -2.4980    0.0589 H   0  0  0  0  0  0  0  0  0  0  0  0
    2.8538   -4.1816    0.6166 H   0  0  0  0  0  0  0  0  0  0  0  0
    0.9758   -0.5952    1.0708 N   0  0  0  0  0  0  0  0  0  0  0  0
    0.3258    0.6374    0.7059 C   0  0  2  0  0  0  0  0  0  0  0  0
    1.1212    1.2536   -0.4401 C   0  0  0  0  0  0  0  0  0  0  0  0
    0.6704    2.1328   -1.1715 O   0  0  0  0  0  0  0  0  0  0  0  0
    0.2442    1.6144    1.8849 C   0  0  0  0  0  0  0  0  0  0  0  0
   -0.6734    1.1364    3.0096 C   0  0  0  0  0  0  0  0  0  0  0  0
   -0.7820    2.0557    4.2306 C   0  0  0  0  0  0  0  0  0  0  0  0
    0.0151    3.0375    4.2151 O   0  5  0  0  0  0  0  0  0  0  0  0
   -1.6499    1.7428    5.0915 O   0  0  0  0  0  0  0  0  0  0  0  0
    1.9288   -0.5463    1.4242 H   0  0  0  0  0  0  0  0  0  0  0  0
   -0.6711    0.3701    0.3388 H   0  0  0  0  0  0  0  0  0  0  0  0
   -0.0903    2.5986    1.5344 H   0  0  0  0  0  0  0  0  0  0  0  0
    1.2497    1.7676    2.2994 H   0  0  0  0  0  0  0  0  0  0  0  0
   -1.6783    0.9427    2.6158 H   0  0  0  0  0  0  0  0  0  0  0  0
   -0.2938    0.1760    3.3811 H   0  0  0  0  0  0  0  0  0  0  0  0
    2.3742    0.6726   -0.5770 N   0  0  0  0  0  0  0  0  0  0  0  0
    3.3146    1.0699   -1.5990 C   0  0  2  0  0  0  0  0  0  0  0  0
    4.3481   -0.0392   -1.7441 C   0  0  0  0  0  0  0  0  0  0  0  0
    4.5854   -0.8553   -0.8559 O   0  0  0  0  0  0  0  0  0  0  0  0
    3.9813    2.3924   -1.2535 C   0  0  0  0  0  0  0  0  0  0  0  0
    2.6688   -0.0395    0.0847 H   0  0  0  0  0  0  0  0  0  0  0  0
    2.7470    1.1652   -2.5312 H   0  0  0  0  0  0  0  0  0  0  0  0
    4.5547    2.3164   -0.3224 H   0  0  0  0  0  0  0  0  0  0  0  0
    4.6725    2.7063   -2.0426 H   0  0  0  0  0  0  0  0  0  0  0  0
    3.2343    3.1823   -1.1203 H   0  0  0  0  0  0  0  0  0  0  0  0
    5.0048    0.0158   -2.9655 N   0  0  0  0  0  0  0  0  0  0  0  0
    6.0390   -0.9212   -3.3376 C   0  0  0  0  0  0  0  0  0  0  0  0
    4.7301    0.7148   -3.6495 H   0  0  0  0  0  0  0  0  0  0  0  0
    7.0218   -0.5125   -3.0601 H   0  0  0  0  0  0  0  0  0  0  0  0
    5.8767   -1.8739   -2.8123 H   0  0  0  0  0  0  0  0  0  0  0  0
    6.0062   -1.0911   -4.4239 H   0  0  0  0  0  0  0  0  0  0  0  0
  1  3  1  0  0  0  0
  1  7  1  0  0  0  0
  1  2  2  0  0  0  0
 33 34  1  0  0  0  0
 34 42  1  0  0  0  0
 34 35  2  0  0  0  0
  8  9  1  0  0  0  0
  9 17  1  0  0  0  0
  9 10  2  0  0  0  0
 18 19  1  0  0  0  0
 19 32  1  0  0  0  0
 19 20  2  0  0  0  0
 22 23  1  0  0  0  0
 23 24  1  0  0  0  0
 23 25  2  0  0  0  0
 33 36  1  0  0  0  0
  8 11  1  0  0  0  0
 42 43  1  0  0  0  0
 21 22  1  0  0  0  0
 18 21  1  0  0  0  0
 32 33  1  0  0  0  0
  7  8  1  0  0  0  0
 17 18  1  0  0  0  0
  3  4  1  0  0  0  0
  3  5  1  0  0  0  0
  3  6  1  0  0  0  0
 36 39  1  0  0  0  0
 36 40  1  0  0  0  0
 36 41  1  0  0  0  0
 11 14  1  0  0  0  0
 11 15  1  0  0  0  0
 11 16  1  0  0  0  0
 43 45  1  0  0  0  0
 43 46  1  0  0  0  0
 43 47  1  0  0  0  0
 22 30  1  0  0  0  0
 22 31  1  0  0  0  0
 21 28  1  0  0  0  0
 21 29  1  0  0  0  0
 33 38  1  0  0  0  0
  8 13  1  0  0  0  0
 18 27  1  0  0  0  0
 42 44  1  0  0  0  0
  7 12  1  0  0  0  0
 32 37  1  0  0  0  0
 17 26  1  0  0  0  0
M  CHG  1  24  -1
M  END
$$$$

  -OEChem-05262214473D

 47 46  0     1  0  0  0  0  0999 V2000
    0.5093   -4.7265    3.0306 C   0  0  0  0  0  0  0  0  0  0  0  0
    1.2735   -4.4402    3.9448 O   0  0  0  0  0  0  0  0  0  0  0  0
   -0.4465   -5.8608    3.1982 C   0  0  0  0  0  0  0  0  0  0  0  0
   -0.0219   -6.8213    2.8645 H   0  0  0  0  0  0  0  0  0  0  0  0
   -0.7314   -6.0185    4.2509 H   0  0  0  0  0  0  0  0  0  0  0  0
   -1.3983   -5.7596    2.6527 H   0  0  0  0  0  0  0  0  0  0  0  0
    0.4252   -4.0886    1.8040 N   0  0  0  0  0  0  0  0  0  0  0  0
    1.2532   -2.9707    1.4349 C   0  0  2  0  0  0  0  0  0  0  0  0
    0.3395   -1.8293    1.0083 C   0  0  0  0  0  0  0  0  0  0  0  0
   -0.8136   -2.0027    0.6194 O   0  0  0  0  0  0  0  0  0  0  0  0
    2.2176   -3.3411    0.3189 C   0  0  0  0  0  0  0  0  0  0  0  0
   -0.2574   -4.4279    1.1287 H   0  0  0  0  0  0  0  0  0  0  0  0
    1.8087   -2.6785    2.3327 H   0  0  0  0  0  0  0  0  0  0  0  0
    1.6793   -3.6366   -0.5890 H   0  0  0  0  0  0  0  0  0  0  0  0
    2.8662   -2.4980    0.0589 H   0  0  0  0  0  0  0  0  0  0  0  0
    2.8538   -4.1816    0.6166 H   0  0  0  0  0  0  0  0  0  0  0  0
    0.9758   -0.5952    1.0708 N   0  0  0  0  0  0  0  0  0  0  0  0
    0.3258    0.6374    0.7059 C   0  0  2  0  0  0  0  0  0  0  0  0
    1.1212    1.2536   -0.4401 C   0  0  0  0  0  0  0  0  0  0  0  0
    0.7921    2.2985   -0.9979 O   0  0  0  0  0  0  0  0  0  0  0  0
    0.2442    1.6144    1.8849 C   0  0  0  0  0  0  0  0  0  0  0  0
   -0.6734    1.1364    3.0096 C   0  0  0  0  0  0  0  0  0  0  0  0
   -0.7820    2.0557    4.2306 C   0  0  0  0  0  0  0  0  0  0  0  0
    0.0151    3.0375    4.2151 O   0  5  0  0  0  0  0  0  0  0  0  0
   -1.6499    1.7428    5.0915 O   0  0  0  0  0  0  0  0  0  0  0  0
    1.9288   -0.5463    1.4242 H   0  0  0  0  0  0  0  0  0  0  0  0
   -0.6711    0.3701    0.3388 H   0  0  0  0  0  0  0  0  0  0  0  0
   -0.0903    2.5986    1.5344 H   0  0  0  0  0  0  0  0  0  0  0  0
    1.2497    1.7676    2.2994 H   0  0  0  0  0  0  0  0  0  0  0  0
   -1.6783    0.9427    2.6158 H   0  0  0  0  0  0  0  0  0  0  0  0
   -0.2938    0.1760    3.3811 H   0  0  0  0  0  0  0  0  0  0  0  0
    2.2135    0.4743   -0.7952 N   0  0  0  0  0  0  0  0  0  0  0  0
    3.1174    0.8328   -1.8634 C   0  0  2  0  0  0  0  0  0  0  0  0
    3.8884   -0.4173   -2.2665 C   0  0  0  0  0  0  0  0  0  0  0  0
    4.0363   -1.3836   -1.5212 O   0  0  0  0  0  0  0  0  0  0  0  0
    4.0658    1.9424   -1.4368 C   0  0  0  0  0  0  0  0  0  0  0  0
    2.4175   -0.3688   -0.2668 H   0  0  0  0  0  0  0  0  0  0  0  0
    2.4981    1.1672   -2.7029 H   0  0  0  0  0  0  0  0  0  0  0  0
    4.6946    1.6259   -0.5966 H   0  0  0  0  0  0  0  0  0  0  0  0
    4.7312    2.2326   -2.2566 H   0  0  0  0  0  0  0  0  0  0  0  0
    3.5088    2.8304   -1.1190 H   0  0  0  0  0  0  0  0  0  0  0  0
    4.4284   -0.3093   -3.5404 N   0  0  0  0  0  0  0  0  0  0  0  0
    5.2141   -1.3592   -4.1457 C   0  0  0  0  0  0  0  0  0  0  0  0
    4.2391    0.5206   -4.0946 H   0  0  0  0  0  0  0  0  0  0  0  0
    6.2803   -1.1865   -3.9373 H   0  0  0  0  0  0  0  0  0  0  0  0
    4.9116   -2.3307   -3.7278 H   0  0  0  0  0  0  0  0  0  0  0  0
    5.0487   -1.3602   -5.2332 H   0  0  0  0  0  0  0  0  0  0  0  0
  1  3  1  0  0  0  0
  1  7  1  0  0  0  0
  1  2  2  0  0  0  0
 33 34  1  0  0  0  0
 34 42  1  0  0  0  0
 34 35  2  0  0  0  0
  8  9  1  0  0  0  0
  9 17  1  0  0  0  0
  9 10  2  0  0  0  0
 18 19  1  0  0  0  0
 19 32  1  0  0  0  0
 19 20  2  0  0  0  0
 22 23  1  0  0  0  0
 23 24  1  0  0  0  0
 23 25  2  0  0  0  0
 33 36  1  0  0  0  0
  8 11  1  0  0  0  0
 42 43  1  0  0  0  0
 21 22  1  0  0  0  0
 18 21  1  0  0  0  0
 32 33  1  0  0  0  0
  7  8  1  0  0  0  0
 17 18  1  0  0  0  0
  3  4  1  0  0  0  0
  3  5  1  0  0  0  0
  3  6  1  0  0  0  0
 36 39  1  0  0  0  0
 36 40  1  0  0  0  0
 36 41  1  0  0  0  0
 11 14  1  0  0  0  0
 11 15  1  0  0  0  0
 11 16  1  0  0  0  0
 43 45  1  0  0  0  0
 43 46  1  0  0  0  0
 43 47  1  0  0  0  0
 22 30  1  0  0  0  0
 22 31  1  0  0  0  0
 21 28  1  0  0  0  0
 21 29  1  0  0  0  0
 33 38  1  0  0  0  0
  8 13  1  0  0  0  0
 18 27  1  0  0  0  0
 42 44  1  0  0  0  0
  7 12  1  0  0  0  0
 32 37  1  0  0  0  0
 17 26  1  0  0  0  0
M  CHG  1  24  -1
M  END
$$$$

  -OEChem-05262214473D

 47 46  0     1  0  0  0  0  0999 V2000
    0.5093   -4.7265    3.0306 C   0  0  0  0  0  0  0  0  0  0  0  0
    1.2735   -4.4402    3.9448 O   0  0  0  0  0  0  0  0  0  0  0  0
   -0.4465   -5.8608    3.1982 C   0  0  0  0  0  0  0  0  0  0  0  0
   -0.0219   -6.8213    2.8645 H   0  0  0  0  0  0  0  0  0  0  0  0
   -0.7314   -6.0185    4.2509 H   0  0  0  0  0  0  0  0  0  0  0  0
   -1.3983   -5.7596    2.6527 H   0  0  0  0  0  0  0  0  0  0  0  0
    0.4252   -4.0886    1.8040 N   0  0  0  0  0  0  0  0  0  0  0  0
    1.2532   -2.9707    1.4349 C   0  0  2  0  0  0  0  0  0  0  0  0
    0.3395   -1.8293    1.0083 C   0  0  0  0  0  0  0  0  0  0  0  0
   -0.8136   -2.0027    0.6194 O   0  0  0  0  0  0  0  0  0  0  0  0
    2.2176   -3.3411    0.3189 C   0  0  0  0  0  0  0  0  0  0  0  0
   -0.2574   -4.4279    1.1287 H   0  0  0  0  0  0  0  0  0  0  0  0
    1.8087   -2.6785    2.3327 H   0  0  0  0  0  0  0  0  0  0  0  0
    1.6793   -3.6366   -0.5890 H   0  0  0  0  0  0  0  0  0  0  0  0
    2.8662   -2.4980    0.0589 H   0  0  0  0  0  0  0  0  0  0  0  0
    2.8538   -4.1816    0.6166 H   0  0  0  0  0  0  0  0  0  0  0  0
    0.9758   -0.5952    1.0708 N   0  0  0  0  0  0  0  0  0  0  0  0
    0.3258    0.6374    0.7059 C   0  0  2  0  0  0  0  0  0  0  0  0
    1.1212    1.2536   -0.4401 C   0  0  0  0  0  0  0  0  0  0  0  0
    0.9601    2.4114   -0.8206 O   0  0  0  0  0  0  0  0  0  0  0  0
    0.2442    1.6144    1.8849 C   0  0  0  0  0  0  0  0  0  0  0  0
   -0.6734    1.1364    3.0096 C   0  0  0  0  0  0  0  0  0  0  0  0
   -0.7820    2.0557    4.2306 C   0  0  0  0  0  0  0  0  0  0  0  0
    0.0151    3.0375    4.2151 O   0  5  0  0  0  0  0  0  0  0  0  0
   -1.6499    1.7428    5.0915 O   0  0  0  0  0  0  0  0  0  0  0  0
    1.9288   -0.5463    1.4242 H   0  0  0  0  0  0  0  0  0  0  0  0
   -0.6711    0.3701    0.3388 H   0  0  0  0  0  0  0  0  0  0  0  0
   -0.0903    2.5986    1.5344 H   0  0  0  0  0  0  0  0  0  0  0  0
    1.2497    1.7676    2.2994 H   0  0  0  0  0  0  0  0  0  0  0  0
   -1.6783    0.9427    2.6158 H   0  0  0  0  0  0  0  0  0  0  0  0
   -0.2938    0.1760    3.3811 H   0  0  0  0  0  0  0  0  0  0  0  0
    1.9968    0.3436   -1.0159 N   0  0  0  0  0  0  0  0  0  0  0  0
    2.8532    0.6778   -2.1302 C   0  0  2  0  0  0  0  0  0  0  0  0
    3.3161   -0.6225   -2.7740 C   0  0  0  0  0  0  0  0  0  0  0  0
    3.3335   -1.6973   -2.1777 O   0  0  0  0  0  0  0  0  0  0  0  0
    4.0407    1.5161   -1.6835 C   0  0  0  0  0  0  0  0  0  0  0  0
    2.0740   -0.5905   -0.6245 H   0  0  0  0  0  0  0  0  0  0  0  0
    2.2401    1.2406   -2.8425 H   0  0  0  0  0  0  0  0  0  0  0  0
    4.6667    0.9687   -0.9693 H   0  0  0  0  0  0  0  0  0  0  0  0
    4.6734    1.7926   -2.5334 H   0  0  0  0  0  0  0  0  0  0  0  0
    3.7056    2.4369   -1.1940 H   0  0  0  0  0  0  0  0  0  0  0  0
    3.7483   -0.4336   -4.0793 N   0  0  0  0  0  0  0  0  0  0  0  0
    4.2476   -1.5127   -4.8991 C   0  0  0  0  0  0  0  0  0  0  0  0
    3.6806    0.4887   -4.4995 H   0  0  0  0  0  0  0  0  0  0  0  0
    5.3412   -1.5750   -4.7980 H   0  0  0  0  0  0  0  0  0  0  0  0
    3.7948   -2.4606   -4.5729 H   0  0  0  0  0  0  0  0  0  0  0  0
    3.9869   -1.3247   -5.9511 H   0  0  0  0  0  0  0  0  0  0  0  0
  1  3  1  0  0  0  0
  1  7  1  0  0  0  0
  1  2  2  0  0  0  0
 33 34  1  0  0  0  0
 34 42  1  0  0  0  0
 34 35  2  0  0  0  0
  8  9  1  0  0  0  0
  9 17  1  0  0  0  0
  9 10  2  0  0  0  0
 18 19  1  0  0  0  0
 19 32  1  0  0  0  0
 19 20  2  0  0  0  0
 22 23  1  0  0  0  0
 23 24  1  0  0  0  0
 23 25  2  0  0  0  0
 33 36  1  0  0  0  0
  8 11  1  0  0  0  0
 42 43  1  0  0  0  0
 21 22  1  0  0  0  0
 18 21  1  0  0  0  0
 32 33  1  0  0  0  0
  7  8  1  0  0  0  0
 17 18  1  0  0  0  0
  3  4  1  0  0  0  0
  3  5  1  0  0  0  0
  3  6  1  0  0  0  0
 36 39  1  0  0  0  0
 36 40  1  0  0  0  0
 36 41  1  0  0  0  0
 11 14  1  0  0  0  0
 11 15  1  0  0  0  0
 11 16  1  0  0  0  0
 43 45  1  0  0  0  0
 43 46  1  0  0  0  0
 43 47  1  0  0  0  0
 22 30  1  0  0  0  0
 22 31  1  0  0  0  0
 21 28  1  0  0  0  0
 21 29  1  0  0  0  0
 33 38  1  0  0  0  0
  8 13  1  0  0  0  0
 18 27  1  0  0  0  0
 42 44  1  0  0  0  0
  7 12  1  0  0  0  0
 32 37  1  0  0  0  0
 17 26  1  0  0  0  0
M  CHG  1  24  -1
M  END
$$$$

  -OEChem-05262214473D

 47 46  0     1  0  0  0  0  0999 V2000
    0.5093   -4.7265    3.0306 C   0  0  0  0  0  0  0  0  0  0  0  0
    1.2735   -4.4402    3.9448 O   0  0  0  0  0  0  0  0  0  0  0  0
   -0.4465   -5.8608    3.1982 C   0  0  0  0  0  0  0  0  0  0  0  0
   -0.0219   -6.8213    2.8645 H   0  0  0  0  0  0  0  0  0  0  0  0
   -0.7314   -6.0185    4.2509 H   0  0  0  0  0  0  0  0  0  0  0  0
   -1.3983   -5.7596    2.6527 H   0  0  0  0  0  0  0  0  0  0  0  0
    0.4252   -4.0886    1.8040 N   0  0  0  0  0  0  0  0  0  0  0  0
    1.2532   -2.9707    1.4349 C   0  0  2  0  0  0  0  0  0  0  0  0
    0.3395   -1.8293    1.0083 C   0  0  0  0  0  0  0  0  0  0  0  0
   -0.8136   -2.0027    0.6194 O   0  0  0  0  0  0  0  0  0  0  0  0
    2.2176   -3.3411    0.3189 C   0  0  0  0  0  0  0  0  0  0  0  0
   -0.2574   -4.4279    1.1287 H   0  0  0  0  0  0  0  0  0  0  0  0
    1.8087   -2.6785    2.3327 H   0  0  0  0  0  0  0  0  0  0  0  0
    1.6793   -3.6366   -0.5890 H   0  0  0  0  0  0  0  0  0  0  0  0
    2.8662   -2.4980    0.0589 H   0  0  0  0  0  0  0  0  0  0  0  0
    2.8538   -4.1816    0.6166 H   0  0  0  0  0  0  0  0  0  0  0  0
    0.9758   -0.5952    1.0708 N   0  0  0  0  0  0  0  0  0  0  0  0
    0.3258    0.6374    0.7059 C   0  0  2  0  0  0  0  0  0  0  0  0
    1.1212    1.2536   -0.4401 C   0  0  0  0  0  0  0  0  0  0  0  0
    1.1629    2.4639   -0.6516 O   0  0  0  0  0  0  0  0  0  0  0  0
    0.2442    1.6144    1.8849 C   0  0  0  0  0  0  0  0  0  0  0  0
   -0.6734    1.1364    3.0096 C   0  0  0  0  0  0  0  0  0  0  0  0
   -0.7820    2.0557    4.2306 C   0  0  0  0  0  0  0  0  0  0  0  0
    0.0151    3.0375    4.2151 O   0  5  0  0  0  0  0  0  0  0  0  0
   -1.6499    1.7428    5.0915 O   0  0  0  0  0  0  0  0  0  0  0  0
    1.9288   -0.5463    1.4242 H   0  0  0  0  0  0  0  0  0  0  0  0
   -0.6711    0.3701    0.3388 H   0  0  0  0  0  0  0  0  0  0  0  0
   -0.0903    2.5986    1.5344 H   0  0  0  0  0  0  0  0  0  0  0  0
    1.2497    1.7676    2.2994 H   0  0  0  0  0  0  0  0  0  0  0  0
   -1.6783    0.9427    2.6158 H   0  0  0  0  0  0  0  0  0  0  0  0
   -0.2938    0.1760    3.3811 H   0  0  0  0  0  0  0  0  0  0  0  0
    1.7391    0.2892   -1.2240 N   0  0  0  0  0  0  0  0  0  0  0  0
    2.5399    0.6154   -2.3812 C   0  0  2  0  0  0  0  0  0  0  0  0
    2.6704   -0.6409   -3.2321 C   0  0  0  0  0  0  0  0  0  0  0  0
    2.5250   -1.7749   -2.7807 O   0  0  0  0  0  0  0  0  0  0  0  0
    3.9078    1.1425   -1.9766 C   0  0  0  0  0  0  0  0  0  0  0  0
    1.6616   -0.6896   -0.9640 H   0  0  0  0  0  0  0  0  0  0  0  0
    1.9905    1.3806   -2.9404 H   0  0  0  0  0  0  0  0  0  0  0  0
    4.4730    0.3897   -1.4152 H   0  0  0  0  0  0  0  0  0  0  0  0
    4.5030    1.4161   -2.8541 H   0  0  0  0  0  0  0  0  0  0  0  0
    3.8114    2.0287   -1.3401 H   0  0  0  0  0  0  0  0  0  0  0  0
    3.0109   -0.3486   -4.5454 N   0  0  0  0  0  0  0  0  0  0  0  0
    3.2054   -1.3713   -5.5465 C   0  0  0  0  0  0  0  0  0  0  0  0
    3.0925    0.6211   -4.8365 H   0  0  0  0  0  0  0  0  0  0  0  0
    4.2685   -1.6514   -5.5837 H   0  0  0  0  0  0  0  0  0  0  0  0
    2.6024   -2.2548   -5.2899 H   0  0  0  0  0  0  0  0  0  0  0  0
    2.8931   -0.9870   -6.5287 H   0  0  0  0  0  0  0  0  0  0  0  0
  1  3  1  0  0  0  0
  1  7  1  0  0  0  0
  1  2  2  0  0  0  0
 33 34  1  0  0  0  0
 34 42  1  0  0  0  0
 34 35  2  0  0  0  0
  8  9  1  0  0  0  0
  9 17  1  0  0  0  0
  9 10  2  0  0  0  0
 18 19  1  0  0  0  0
 19 32  1  0  0  0  0
 19 20  2  0  0  0  0
 22 23  1  0  0  0  0
 23 24  1  0  0  0  0
 23 25  2  0  0  0  0
 33 36  1  0  0  0  0
  8 11  1  0  0  0  0
 42 43  1  0  0  0  0
 21 22  1  0  0  0  0
 18 21  1  0  0  0  0
 32 33  1  0  0  0  0
  7  8  1  0  0  0  0
 17 18  1  0  0  0  0
  3  4  1  0  0  0  0
  3  5  1  0  0  0  0
  3  6  1  0  0  0  0
 36 39  1  0  0  0  0
 36 40  1  0  0  0  0
 36 41  1  0  0  0  0
 11 14  1  0  0  0  0
 11 15  1  0  0  0  0
 11 16  1  0  0  0  0
 43 45  1  0  0  0  0
 43 46  1  0  0  0  0
 43 47  1  0  0  0  0
 22 30  1  0  0  0  0
 22 31  1  0  0  0  0
 21 28  1  0  0  0  0
 21 29  1  0  0  0  0
 33 38  1  0  0  0  0
  8 13  1  0  0  0  0
 18 27  1  0  0  0  0
 42 44  1  0  0  0  0
  7 12  1  0  0  0  0
 32 37  1  0  0  0  0
 17 26  1  0  0  0  0
M  CHG  1  24  -1
M  END
$$$$

  -OEChem-05262214473D

 47 46  0     1  0  0  0  0  0999 V2000
    0.5093   -4.7265    3.0306 C   0  0  0  0  0  0  0  0  0  0  0  0
    1.2735   -4.4402    3.9448 O   0  0  0  0  0  0  0  0  0  0  0  0
   -0.4465   -5.8608    3.1982 C   0  0  0  0  0  0  0  0  0  0  0  0
   -0.0219   -6.8213    2.8645 H   0  0  0  0  0  0  0  0  0  0  0  0
   -0.7314   -6.0185    4.2509 H   0  0  0  0  0  0  0  0  0  0  0  0
   -1.3983   -5.7596    2.6527 H   0  0  0  0  0  0  0  0  0  0  0  0
    0.4252   -4.0886    1.8040 N   0  0  0  0  0  0  0  0  0  0  0  0
    1.2532   -2.9707    1.4349 C   0  0  2  0  0  0  0  0  0  0  0  0
    0.3395   -1.8293    1.0083 C   0  0  0  0  0  0  0  0  0  0  0  0
   -0.8136   -2.0027    0.6194 O   0  0  0  0  0  0  0  0  0  0  0  0
    2.2176   -3.3411    0.3189 C   0  0  0  0  0  0  0  0  0  0  0  0
   -0.2574   -4.4279    1.1287 H   0  0  0  0  0  0  0  0  0  0  0  0
    1.8087   -2.6785    2.3327 H   0  0  0  0  0  0  0  0  0  0  0  0
    1.6793   -3.6366   -0.5890 H   0  0  0  0  0  0  0  0  0  0  0  0
    2.8662   -2.4980    0.0589 H   0  0  0  0  0  0  0  0  0  0  0  0
    2.8538   -4.1816    0.6166 H   0  0  0  0  0  0  0  0  0  0  0  0
    0.9758   -0.5952    1.0708 N   0  0  0  0  0  0  0  0  0  0  0  0
    0.3258    0.6374    0.7059 C   0  0  2  0  0  0  0  0  0  0  0  0
    1.1212    1.2536   -0.4401 C   0  0  0  0  0  0  0  0  0  0  0  0
    1.3866    2.4523   -0.5025 O   0  0  0  0  0  0  0  0  0  0  0  0
    0.2442    1.6144    1.8849 C   0  0  0  0  0  0  0  0  0  0  0  0
   -0.6734    1.1364    3.0096 C   0  0  0  0  0  0  0  0  0  0  0  0
   -0.7820    2.0557    4.2306 C   0  0  0  0  0  0  0  0  0  0  0  0
    0.0151    3.0375    4.2151 O   0  5  0  0  0  0  0  0  0  0  0  0
   -1.6499    1.7428    5.0915 O   0  0  0  0  0  0  0  0  0  0  0  0
    1.9288   -0.5463    1.4242 H   0  0  0  0  0  0  0  0  0  0  0  0
   -0.6711    0.3701    0.3388 H   0  0  0  0  0  0  0  0  0  0  0  0
   -0.0903    2.5986    1.5344 H   0  0  0  0  0  0  0  0  0  0  0  0
    1.2497    1.7676    2.2994 H   0  0  0  0  0  0  0  0  0  0  0  0
   -1.6783    0.9427    2.6158 H   0  0  0  0  0  0  0  0  0  0  0  0
   -0.2938    0.1760    3.3811 H   0  0  0  0  0  0  0  0  0  0  0  0
    1.4577    0.3149   -1.4055 N   0  0  0  0  0  0  0  0  0  0  0  0
    2.1989    0.6500   -2.5992 C   0  0  2  0  0  0  0  0  0  0  0  0
    1.9952   -0.4712   -3.6096 C   0  0  0  0  0  0  0  0  0  0  0  0
    1.6659   -1.6114   -3.2890 O   0  0  0  0  0  0  0  0  0  0  0  0
    3.6761    0.8471   -2.2963 C   0  0  0  0  0  0  0  0  0  0  0  0
    1.2085   -0.6593   -1.2622 H   0  0  0  0  0  0  0  0  0  0  0  0
    1.7665    1.5776   -2.9900 H   0  0  0  0  0  0  0  0  0  0  0  0
    4.1267   -0.0718   -1.9037 H   0  0  0  0  0  0  0  0  0  0  0  0
    4.2316    1.1289   -3.1968 H   0  0  0  0  0  0  0  0  0  0  0  0
    3.8189    1.6335   -1.5474 H   0  0  0  0  0  0  0  0  0  0  0  0
    2.2664   -0.0602   -4.9071 N   0  0  0  0  0  0  0  0  0  0  0  0
    2.1585   -0.9447   -6.0438 C   0  0  0  0  0  0  0  0  0  0  0  0
    2.5150    0.9089   -5.0826 H   0  0  0  0  0  0  0  0  0  0  0  0
    3.1354   -1.4105   -6.2407 H   0  0  0  0  0  0  0  0  0  0  0  0
    1.4157   -1.7273   -5.8299 H   0  0  0  0  0  0  0  0  0  0  0  0
    1.8418   -0.3700   -6.9266 H   0  0  0  0  0  0  0  0  0  0  0  0
  1  3  1  0  0  0  0
  1  7  1  0  0  0  0
  1  2  2  0  0  0  0
 33 34  1  0  0  0  0
 34 42  1  0  0  0  0
 34 35  2  0  0  0  0
  8  9  1  0  0  0  0
  9 17  1  0  0  0  0
  9 10  2  0  0  0  0
 18 19  1  0  0  0  0
 19 32  1  0  0  0  0
 19 20  2  0  0  0  0
 22 23  1  0  0  0  0
 23 24  1  0  0  0  0
 23 25  2  0  0  0  0
 33 36  1  0  0  0  0
  8 11  1  0  0  0  0
 42 43  1  0  0  0  0
 21 22  1  0  0  0  0
 18 21  1  0  0  0  0
 32 33  1  0  0  0  0
  7  8  1  0  0  0  0
 17 18  1  0  0  0  0
  3  4  1  0  0  0  0
  3  5  1  0  0  0  0
  3  6  1  0  0  0  0
 36 39  1  0  0  0  0
 36 40  1  0  0  0  0
 36 41  1  0  0  0  0
 11 14  1  0  0  0  0
 11 15  1  0  0  0  0
 11 16  1  0  0  0  0
 43 45  1  0  0  0  0
 43 46  1  0  0  0  0
 43 47  1  0  0  0  0
 22 30  1  0  0  0  0
 22 31  1  0  0  0  0
 21 28  1  0  0  0  0
 21 29  1  0  0  0  0
 33 38  1  0  0  0  0
  8 13  1  0  0  0  0
 18 27  1  0  0  0  0
 42 44  1  0  0  0  0
  7 12  1  0  0  0  0
 32 37  1  0  0  0  0
 17 26  1  0  0  0  0
M  CHG  1  24  -1
M  END
$$$$

  -OEChem-05262214473D

 47 46  0     1  0  0  0  0  0999 V2000
    0.5093   -4.7265    3.0306 C   0  0  0  0  0  0  0  0  0  0  0  0
    1.2735   -4.4402    3.9448 O   0  0  0  0  0  0  0  0  0  0  0  0
   -0.4465   -5.8608    3.1982 C   0  0  0  0  0  0  0  0  0  0  0  0
   -0.0219   -6.8213    2.8645 H   0  0  0  0  0  0  0  0  0  0  0  0
   -0.7314   -6.0185    4.2509 H   0  0  0  0  0  0  0  0  0  0  0  0
   -1.3983   -5.7596    2.6527 H   0  0  0  0  0  0  0  0  0  0  0  0
    0.4252   -4.0886    1.8040 N   0  0  0  0  0  0  0  0  0  0  0  0
    1.2532   -2.9707    1.4349 C   0  0  2  0  0  0  0  0  0  0  0  0
    0.3395   -1.8293    1.0083 C   0  0  0  0  0  0  0  0  0  0  0  0
   -0.8136   -2.0027    0.6194 O   0  0  0  0  0  0  0  0  0  0  0  0
    2.2176   -3.3411    0.3189 C   0  0  0  0  0  0  0  0  0  0  0  0
   -0.2574   -4.4279    1.1287 H   0  0  0  0  0  0  0  0  0  0  0  0
    1.8087   -2.6785    2.3327 H   0  0  0  0  0  0  0  0  0  0  0  0
    1.6793   -3.6366   -0.5890 H   0  0  0  0  0  0  0  0  0  0  0  0
    2.8662   -2.4980    0.0589 H   0  0  0  0  0  0  0  0  0  0  0  0
    2.8538   -4.1816    0.6166 H   0  0  0  0  0  0  0  0  0  0  0  0
    0.9758   -0.5952    1.0708 N   0  0  0  0  0  0  0  0  0  0  0  0
    0.3258    0.6374    0.7059 C   0  0  2  0  0  0  0  0  0  0  0  0
    1.1212    1.2536   -0.4401 C   0  0  0  0  0  0  0  0  0  0  0  0
    1.6161    2.3775   -0.3835 O   0  0  0  0  0  0  0  0  0  0  0  0
    0.2442    1.6144    1.8849 C   0  0  0  0  0  0  0  0  0  0  0  0
   -0.6734    1.1364    3.0096 C   0  0  0  0  0  0  0  0  0  0  0  0
   -0.7820    2.0557    4.2306 C   0  0  0  0  0  0  0  0  0  0  0  0
    0.0151    3.0375    4.2151 O   0  5  0  0  0  0  0  0  0  0  0  0
   -1.6499    1.7428    5.0915 O   0  0  0  0  0  0  0  0  0  0  0  0
    1.9288   -0.5463    1.4242 H   0  0  0  0  0  0  0  0  0  0  0  0
   -0.6711    0.3701    0.3388 H   0  0  0  0  0  0  0  0  0  0  0  0
   -0.0903    2.5986    1.5344 H   0  0  0  0  0  0  0  0  0  0  0  0
    1.2497    1.7676    2.2994 H   0  0  0  0  0  0  0  0  0  0  0  0
   -1.6783    0.9427    2.6158 H   0  0  0  0  0  0  0  0  0  0  0  0
   -0.2938    0.1760    3.3811 H   0  0  0  0  0  0  0  0  0  0  0  0
    1.1720    0.4190   -1.5479 N   0  0  0  0  0  0  0  0  0  0  0  0
    1.8535    0.7792   -2.7695 C   0  0  2  0  0  0  0  0  0  0  0  0
    1.3366   -0.1251   -3.8806 C   0  0  0  0  0  0  0  0  0  0  0  0
    0.8147   -1.2176   -3.6681 O   0  0  0  0  0  0  0  0  0  0  0  0
    3.3614    0.6499   -2.6208 C   0  0  0  0  0  0  0  0  0  0  0  0
    0.7456   -0.5016   -1.4987 H   0  0  0  0  0  0  0  0  0  0  0  0
    1.5832    1.8181   -2.9879 H   0  0  0  0  0  0  0  0  0  0  0  0
    3.6513   -0.3842   -2.4017 H   0  0  0  0  0  0  0  0  0  0  0  0
    3.8779    0.9506   -3.5383 H   0  0  0  0  0  0  0  0  0  0  0  0
    3.7276    1.2784   -1.8018 H   0  0  0  0  0  0  0  0  0  0  0  0
    1.5655    0.4120   -5.1397 N   0  0  0  0  0  0  0  0  0  0  0  0
    1.1782   -0.2618   -6.3570 C   0  0  0  0  0  0  0  0  0  0  0  0
    1.9873    1.3325   -5.2211 H   0  0  0  0  0  0  0  0  0  0  0  0
    2.0190   -0.8687   -6.7242 H   0  0  0  0  0  0  0  0  0  0  0  0
    0.3155   -0.9141   -6.1563 H   0  0  0  0  0  0  0  0  0  0  0  0
    0.9048    0.4841   -7.1178 H   0  0  0  0  0  0  0  0  0  0  0  0
  1  3  1  0  0  0  0
  1  7  1  0  0  0  0
  1  2  2  0  0  0  0
 33 34  1  0  0  0  0
 34 42  1  0  0  0  0
 34 35  2  0  0  0  0
  8  9  1  0  0  0  0
  9 17  1  0  0  0  0
  9 10  2  0  0  0  0
 18 19  1  0  0  0  0
 19 32  1  0  0  0  0
 19 20  2  0  0  0  0
 22 23  1  0  0  0  0
 23 24  1  0  0  0  0
 23 25  2  0  0  0  0
 33 36  1  0  0  0  0
  8 11  1  0  0  0  0
 42 43  1  0  0  0  0
 21 22  1  0  0  0  0
 18 21  1  0  0  0  0
 32 33  1  0  0  0  0
  7  8  1  0  0  0  0
 17 18  1  0  0  0  0
  3  4  1  0  0  0  0
  3  5  1  0  0  0  0
  3  6  1  0  0  0  0
 36 39  1  0  0  0  0
 36 40  1  0  0  0  0
 36 41  1  0  0  0  0
 11 14  1  0  0  0  0
 11 15  1  0  0  0  0
 11 16  1  0  0  0  0
 43 45  1  0  0  0  0
 43 46  1  0  0  0  0
 43 47  1  0  0  0  0
 22 30  1  0  0  0  0
 22 31  1  0  0  0  0
 21 28  1  0  0  0  0
 21 29  1  0  0  0  0
 33 38  1  0  0  0  0
  8 13  1  0  0  0  0
 18 27  1  0  0  0  0
 42 44  1  0  0  0  0
  7 12  1  0  0  0  0
 32 37  1  0  0  0  0
 17 26  1  0  0  0  0
M  CHG  1  24  -1
M  END
$$$$

  -OEChem-05262214473D

 47 46  0     1  0  0  0  0  0999 V2000
    0.5093   -4.7265    3.0306 C   0  0  0  0  0  0  0  0  0  0  0  0
    1.2735   -4.4402    3.9448 O   0  0  0  0  0  0  0  0  0  0  0  0
   -0.4465   -5.8608    3.1982 C   0  0  0  0  0  0  0  0  0  0  0  0
   -0.0219   -6.8213    2.8645 H   0  0  0  0  0  0  0  0  0  0  0  0
   -0.7314   -6.0185    4.2509 H   0  0  0  0  0  0  0  0  0  0  0  0
   -1.3983   -5.7596    2.6527 H   0  0  0  0  0  0  0  0  0  0  0  0
    0.4252   -4.0886    1.8040 N   0  0  0  0  0  0  0  0  0  0  0  0
    1.2532   -2.9707    1.4349 C   0  0  2  0  0  0  0  0  0  0  0  0
    0.3395   -1.8293    1.0083 C   0  0  0  0  0  0  0  0  0  0  0  0
   -0.8136   -2.0027    0.6194 O   0  0  0  0  0  0  0  0  0  0  0  0
    2.2176   -3.3411    0.3189 C   0  0  0  0  0  0  0  0  0  0  0  0
   -0.2574   -4.4279    1.1287 H   0  0  0  0  0  0  0  0  0  0  0  0
    1.8087   -2.6785    2.3327 H   0  0  0  0  0  0  0  0  0  0  0  0
    1.6793   -3.6366   -0.5890 H   0  0  0  0  0  0  0  0  0  0  0  0
    2.8662   -2.4980    0.0589 H   0  0  0  0  0  0  0  0  0  0  0  0
    2.8538   -4.1816    0.6166 H   0  0  0  0  0  0  0  0  0  0  0  0
    0.9758   -0.5952    1.0708 N   0  0  0  0  0  0  0  0  0  0  0  0
    0.3258    0.6374    0.7059 C   0  0  2  0  0  0  0  0  0  0  0  0
    1.1212    1.2536   -0.4401 C   0  0  0  0  0  0  0  0  0  0  0  0
    1.8356    2.2445   -0.3026 O   0  0  0  0  0  0  0  0  0  0  0  0
    0.2442    1.6144    1.8849 C   0  0  0  0  0  0  0  0  0  0  0  0
   -0.6734    1.1364    3.0096 C   0  0  0  0  0  0  0  0  0  0  0  0
   -0.7820    2.0557    4.2306 C   0  0  0  0  0  0  0  0  0  0  0  0
    0.0151    3.0375    4.2151 O   0  5  0  0  0  0  0  0  0  0  0  0
   -1.6499    1.7428    5.0915 O   0  0  0  0  0  0  0  0  0  0  0  0
    1.9288   -0.5463    1.4242 H   0  0  0  0  0  0  0  0  0  0  0  0
   -0.6711    0.3701    0.3388 H   0  0  0  0  0  0  0  0  0  0  0  0
   -0.0903    2.5986    1.5344 H   0  0  0  0  0  0  0  0  0  0  0  0
    1.2497    1.7676    2.2994 H   0  0  0  0  0  0  0  0  0  0  0  0
   -1.6783    0.9427    2.6158 H   0  0  0  0  0  0  0  0  0  0  0  0
   -0.2938    0.1760    3.3811 H   0  0  0  0  0  0  0  0  0  0  0  0
    0.9014    0.5943   -1.6415 N   0  0  0  0  0  0  0  0  0  0  0  0
    1.5271    0.9942   -2.8805 C   0  0  2  0  0  0  0  0  0  0  0  0
    0.7393    0.3739   -4.0269 C   0  0  0  0  0  0  0  0  0  0  0  0
    0.0295   -0.6206   -3.8921 O   0  0  0  0  0  0  0  0  0  0  0  0
    2.9852    0.5645   -2.9279 C   0  0  0  0  0  0  0  0  0  0  0  0
    0.3044   -0.2273   -1.6575 H   0  0  0  0  0  0  0  0  0  0  0  0
    1.4531    2.0858   -2.9343 H   0  0  0  0  0  0  0  0  0  0  0  0
    3.0793   -0.5263   -2.8751 H   0  0  0  0  0  0  0  0  0  0  0  0
    3.4657    0.8932   -3.8553 H   0  0  0  0  0  0  0  0  0  0  0  0
    3.5437    0.9874   -2.0859 H   0  0  0  0  0  0  0  0  0  0  0  0
    0.9561    1.0359   -5.2273 N   0  0  0  0  0  0  0  0  0  0  0  0
    0.3314    0.6307   -6.4649 C   0  0  0  0  0  0  0  0  0  0  0  0
    1.5456    1.8629   -5.2425 H   0  0  0  0  0  0  0  0  0  0  0  0
    0.9954   -0.0630   -7.0015 H   0  0  0  0  0  0  0  0  0  0  0  0
   -0.6232    0.1294   -6.2467 H   0  0  0  0  0  0  0  0  0  0  0  0
    0.1457    1.5171   -7.0891 H   0  0  0  0  0  0  0  0  0  0  0  0
  1  3  1  0  0  0  0
  1  7  1  0  0  0  0
  1  2  2  0  0  0  0
 33 34  1  0  0  0  0
 34 42  1  0  0  0  0
 34 35  2  0  0  0  0
  8  9  1  0  0  0  0
  9 17  1  0  0  0  0
  9 10  2  0  0  0  0
 18 19  1  0  0  0  0
 19 32  1  0  0  0  0
 19 20  2  0  0  0  0
 22 23  1  0  0  0  0
 23 24  1  0  0  0  0
 23 25  2  0  0  0  0
 33 36  1  0  0  0  0
  8 11  1  0  0  0  0
 42 43  1  0  0  0  0
 21 22  1  0  0  0  0
 18 21  1  0  0  0  0
 32 33  1  0  0  0  0
  7  8  1  0  0  0  0
 17 18  1  0  0  0  0
  3  4  1  0  0  0  0
  3  5  1  0  0  0  0
  3  6  1  0  0  0  0
 36 39  1  0  0  0  0
 36 40  1  0  0  0  0
 36 41  1  0  0  0  0
 11 14  1  0  0  0  0
 11 15  1  0  0  0  0
 11 16  1  0  0  0  0
 43 45  1  0  0  0  0
 43 46  1  0  0  0  0
 43 47  1  0  0  0  0
 22 30  1  0  0  0  0
 22 31  1  0  0  0  0
 21 28  1  0  0  0  0
 21 29  1  0  0  0  0
 33 38  1  0  0  0  0
  8 13  1  0  0  0  0
 18 27  1  0  0  0  0
 42 44  1  0  0  0  0
  7 12  1  0  0  0  0
 32 37  1  0  0  0  0
 17 26  1  0  0  0  0
M  CHG  1  24  -1
M  END
$$$$

  -OEChem-05262214473D

 47 46  0     1  0  0  0  0  0999 V2000
    0.5093   -4.7265    3.0306 C   0  0  0  0  0  0  0  0  0  0  0  0
    1.2735   -4.4402    3.9448 O   0  0  0  0  0  0  0  0  0  0  0  0
   -0.4465   -5.8608    3.1982 C   0  0  0  0  0  0  0  0  0  0  0  0
   -0.0219   -6.8213    2.8645 H   0  0  0  0  0  0  0  0  0  0  0  0
   -0.7314   -6.0185    4.2509 H   0  0  0  0  0  0  0  0  0  0  0  0
   -1.3983   -5.7596    2.6527 H   0  0  0  0  0  0  0  0  0  0  0  0
    0.4252   -4.0886    1.8040 N   0  0  0  0  0  0  0  0  0  0  0  0
    1.2532   -2.9707    1.4349 C   0  0  2  0  0  0  0  0  0  0  0  0
    0.3395   -1.8293    1.0083 C   0  0  0  0  0  0  0  0  0  0  0  0
   -0.8136   -2.0027    0.6194 O   0  0  0  0  0  0  0  0  0  0  0  0
    2.2176   -3.3411    0.3189 C   0  0  0  0  0  0  0  0  0  0  0  0
   -0.2574   -4.4279    1.1287 H   0  0  0  0  0  0  0  0  0  0  0  0
    1.8087   -2.6785    2.3327 H   0  0  0  0  0  0  0  0  0  0  0  0
    1.6793   -3.6366   -0.5890 H   0  0  0  0  0  0  0  0  0  0  0  0
    2.8662   -2.4980    0.0589 H   0  0  0  0  0  0  0  0  0  0  0  0
    2.8538   -4.1816    0.6166 H   0  0  0  0  0  0  0  0  0  0  0  0
    0.9758   -0.5952    1.0708 N   0  0  0  0  0  0  0  0  0  0  0  0
    0.3258    0.6374    0.7059 C   0  0  2  0  0  0  0  0  0  0  0  0
    1.1212    1.2536   -0.4401 C   0  0  0  0  0  0  0  0  0  0  0  0
    2.0303    2.0625   -0.2654 O   0  0  0  0  0  0  0  0  0  0  0  0
    0.2442    1.6144    1.8849 C   0  0  0  0  0  0  0  0  0  0  0  0
   -0.6734    1.1364    3.0096 C   0  0  0  0  0  0  0  0  0  0  0  0
   -0.7820    2.0557    4.2306 C   0  0  0  0  0  0  0  0  0  0  0  0
    0.0151    3.0375    4.2151 O   0  5  0  0  0  0  0  0  0  0  0  0
   -1.6499    1.7428    5.0915 O   0  0  0  0  0  0  0  0  0  0  0  0
    1.9288   -0.5463    1.4242 H   0  0  0  0  0  0  0  0  0  0  0  0
   -0.6711    0.3701    0.3388 H   0  0  0  0  0  0  0  0  0  0  0  0
   -0.0903    2.5986    1.5344 H   0  0  0  0  0  0  0  0  0  0  0  0
    1.2497    1.7676    2.2994 H   0  0  0  0  0  0  0  0  0  0  0  0
   -1.6783    0.9427    2.6158 H   0  0  0  0  0  0  0  0  0  0  0  0
   -0.2938    0.1760    3.3811 H   0  0  0  0  0  0  0  0  0  0  0  0
    0.6642    0.8288   -1.6799 N   0  0  0  0  0  0  0  0  0  0  0  0
    1.2421    1.2802   -2.9245 C   0  0  2  0  0  0  0  0  0  0  0  0
    0.2442    0.9919   -4.0383 C   0  0  0  0  0  0  0  0  0  0  0  0
   -0.6363    0.1391   -3.9458 O   0  0  0  0  0  0  0  0  0  0  0  0
    2.5730    0.5966   -3.1967 C   0  0  0  0  0  0  0  0  0  0  0  0
   -0.0851    0.1448   -1.7277 H   0  0  0  0  0  0  0  0  0  0  0  0
    1.3852    2.3624   -2.8327 H   0  0  0  0  0  0  0  0  0  0  0  0
    2.4497   -0.4884   -3.2918 H   0  0  0  0  0  0  0  0  0  0  0  0
    3.0233    0.9607   -4.1260 H   0  0  0  0  0  0  0  0  0  0  0  0
    3.2798    0.7804   -2.3804 H   0  0  0  0  0  0  0  0  0  0  0  0
    0.4795    1.7688   -5.1639 N   0  0  0  0  0  0  0  0  0  0  0  0
   -0.3243    1.6720   -6.3600 C   0  0  0  0  0  0  0  0  0  0  0  0
    1.2198    2.4640   -5.1454 H   0  0  0  0  0  0  0  0  0  0  0  0
    0.1344    0.9518   -7.0534 H   0  0  0  0  0  0  0  0  0  0  0  0
   -1.3363    1.3322   -6.0950 H   0  0  0  0  0  0  0  0  0  0  0  0
   -0.3835    2.6587   -6.8426 H   0  0  0  0  0  0  0  0  0  0  0  0
  1  3  1  0  0  0  0
  1  7  1  0  0  0  0
  1  2  2  0  0  0  0
 33 34  1  0  0  0  0
 34 42  1  0  0  0  0
 34 35  2  0  0  0  0
  8  9  1  0  0  0  0
  9 17  1  0  0  0  0
  9 10  2  0  0  0  0
 18 19  1  0  0  0  0
 19 32  1  0  0  0  0
 19 20  2  0  0  0  0
 22 23  1  0  0  0  0
 23 24  1  0  0  0  0
 23 25  2  0  0  0  0
 33 36  1  0  0  0  0
  8 11  1  0  0  0  0
 42 43  1  0  0  0  0
 21 22  1  0  0  0  0
 18 21  1  0  0  0  0
 32 33  1  0  0  0  0
  7  8  1  0  0  0  0
 17 18  1  0  0  0  0
  3  4  1  0  0  0  0
  3  5  1  0  0  0  0
  3  6  1  0  0  0  0
 36 39  1  0  0  0  0
 36 40  1  0  0  0  0
 36 41  1  0  0  0  0
 11 14  1  0  0  0  0
 11 15  1  0  0  0  0
 11 16  1  0  0  0  0
 43 45  1  0  0  0  0
 43 46  1  0  0  0  0
 43 47  1  0  0  0  0
 22 30  1  0  0  0  0
 22 31  1  0  0  0  0
 21 28  1  0  0  0  0
 21 29  1  0  0  0  0
 33 38  1  0  0  0  0
  8 13  1  0  0  0  0
 18 27  1  0  0  0  0
 42 44  1  0  0  0  0
  7 12  1  0  0  0  0
 32 37  1  0  0  0  0
 17 26  1  0  0  0  0
M  CHG  1  24  -1
M  END
$$$$

  -OEChem-05262214473D

 47 46  0     1  0  0  0  0  0999 V2000
    0.5093   -4.7265    3.0306 C   0  0  0  0  0  0  0  0  0  0  0  0
    1.2735   -4.4402    3.9448 O   0  0  0  0  0  0  0  0  0  0  0  0
   -0.4465   -5.8608    3.1982 C   0  0  0  0  0  0  0  0  0  0  0  0
   -0.0219   -6.8213    2.8645 H   0  0  0  0  0  0  0  0  0  0  0  0
   -0.7314   -6.0185    4.2509 H   0  0  0  0  0  0  0  0  0  0  0  0
   -1.3983   -5.7596    2.6527 H   0  0  0  0  0  0  0  0  0  0  0  0
    0.4252   -4.0886    1.8040 N   0  0  0  0  0  0  0  0  0  0  0  0
    1.2532   -2.9707    1.4349 C   0  0  2  0  0  0  0  0  0  0  0  0
    0.3395   -1.8293    1.0083 C   0  0  0  0  0  0  0  0  0  0  0  0
   -0.8136   -2.0027    0.6194 O   0  0  0  0  0  0  0  0  0  0  0  0
    2.2176   -3.3411    0.3189 C   0  0  0  0  0  0  0  0  0  0  0  0
   -0.2574   -4.4279    1.1287 H   0  0  0  0  0  0  0  0  0  0  0  0
    1.8087   -2.6785    2.3327 H   0  0  0  0  0  0  0  0  0  0  0  0
    1.6793   -3.6366   -0.5890 H   0  0  0  0  0  0  0  0  0  0  0  0
    2.8662   -2.4980    0.0589 H   0  0  0  0  0  0  0  0  0  0  0  0
    2.8538   -4.1816    0.6166 H   0  0  0  0  0  0  0  0  0  0  0  0
    0.9758   -0.5952    1.0708 N   0  0  0  0  0  0  0  0  0  0  0  0
    0.3258    0.6374    0.7059 C   0  0  2  0  0  0  0  0  0  0  0  0
    1.1212    1.2536   -0.4401 C   0  0  0  0  0  0  0  0  0  0  0  0
    2.1868    1.8438   -0.2744 O   0  0  0  0  0  0  0  0  0  0  0  0
    0.2442    1.6144    1.8849 C   0  0  0  0  0  0  0  0  0  0  0  0
   -0.6734    1.1364    3.0096 C   0  0  0  0  0  0  0  0  0  0  0  0
   -0.7820    2.0557    4.2306 C   0  0  0  0  0  0  0  0  0  0  0  0
    0.0151    3.0375    4.2151 O   0  5  0  0  0  0  0  0  0  0  0  0
   -1.6499    1.7428    5.0915 O   0  0  0  0  0  0  0  0  0  0  0  0
    1.9288   -0.5463    1.4242 H   0  0  0  0  0  0  0  0  0  0  0  0
   -0.6711    0.3701    0.3388 H   0  0  0  0  0  0  0  0  0  0  0  0
   -0.0903    2.5986    1.5344 H   0  0  0  0  0  0  0  0  0  0  0  0
    1.2497    1.7676    2.2994 H   0  0  0  0  0  0  0  0  0  0  0  0
   -1.6783    0.9427    2.6158 H   0  0  0  0  0  0  0  0  0  0  0  0
   -0.2938    0.1760    3.3811 H   0  0  0  0  0  0  0  0  0  0  0  0
    0.4768    1.1068   -1.6605 N   0  0  0  0  0  0  0  0  0  0  0  0
    1.0178    1.6179   -2.8986 C   0  0  2  0  0  0  0  0  0  0  0  0
   -0.1151    1.6866   -3.9141 C   0  0  0  0  0  0  0  0  0  0  0  0
   -1.1373    1.0096   -3.8254 O   0  0  0  0  0  0  0  0  0  0  0  0
    2.1530    0.7441   -3.4090 C   0  0  0  0  0  0  0  0  0  0  0  0
   -0.3963    0.5896   -1.7046 H   0  0  0  0  0  0  0  0  0  0  0  0
    1.3840    2.6291   -2.6901 H   0  0  0  0  0  0  0  0  0  0  0  0
    1.8052   -0.2731   -3.6233 H   0  0  0  0  0  0  0  0  0  0  0  0
    2.5808    1.1485   -4.3322 H   0  0  0  0  0  0  0  0  0  0  0  0
    2.9538    0.6716   -2.6651 H   0  0  0  0  0  0  0  0  0  0  0  0
    0.1684    2.5609   -4.9540 N   0  0  0  0  0  0  0  0  0  0  0  0
   -0.7441    2.7913   -6.0495 C   0  0  0  0  0  0  0  0  0  0  0  0
    1.0322    3.0949   -4.9363 H   0  0  0  0  0  0  0  0  0  0  0  0
   -0.5053    2.1064   -6.8765 H   0  0  0  0  0  0  0  0  0  0  0  0
   -1.7754    2.6121   -5.7115 H   0  0  0  0  0  0  0  0  0  0  0  0
   -0.6469    3.8311   -6.3950 H   0  0  0  0  0  0  0  0  0  0  0  0
  1  3  1  0  0  0  0
  1  7  1  0  0  0  0
  1  2  2  0  0  0  0
 33 34  1  0  0  0  0
 34 42  1  0  0  0  0
 34 35  2  0  0  0  0
  8  9  1  0  0  0  0
  9 17  1  0  0  0  0
  9 10  2  0  0  0  0
 18 19  1  0  0  0  0
 19 32  1  0  0  0  0
 19 20  2  0  0  0  0
 22 23  1  0  0  0  0
 23 24  1  0  0  0  0
 23 25  2  0  0  0  0
 33 36  1  0  0  0  0
  8 11  1  0  0  0  0
 42 43  1  0  0  0  0
 21 22  1  0  0  0  0
 18 21  1  0  0  0  0
 32 33  1  0  0  0  0
  7  8  1  0  0  0  0
 17 18  1  0  0  0  0
  3  4  1  0  0  0  0
  3  5  1  0  0  0  0
  3  6  1  0  0  0  0
 36 39  1  0  0  0  0
 36 40  1  0  0  0  0
 36 41  1  0  0  0  0
 11 14  1  0  0  0  0
 11 15  1  0  0  0  0
 11 16  1  0  0  0  0
 43 45  1  0  0  0  0
 43 46  1  0  0  0  0
 43 47  1  0  0  0  0
 22 30  1  0  0  0  0
 22 31  1  0  0  0  0
 21 28  1  0  0  0  0
 21 29  1  0  0  0  0
 33 38  1  0  0  0  0
  8 13  1  0  0  0  0
 18 27  1  0  0  0  0
 42 44  1  0  0  0  0
  7 12  1  0  0  0  0
 32 37  1  0  0  0  0
 17 26  1  0  0  0  0
M  CHG  1  24  -1
M  END
$$$$

  -OEChem-05262214473D

 47 46  0     1  0  0  0  0  0999 V2000
    0.5093   -4.7265    3.0306 C   0  0  0  0  0  0  0  0  0  0  0  0
    1.2735   -4.4402    3.9448 O   0  0  0  0  0  0  0  0  0  0  0  0
   -0.4465   -5.8608    3.1982 C   0  0  0  0  0  0  0  0  0  0  0  0
   -0.0219   -6.8213    2.8645 H   0  0  0  0  0  0  0  0  0  0  0  0
   -0.7314   -6.0185    4.2509 H   0  0  0  0  0  0  0  0  0  0  0  0
   -1.3983   -5.7596    2.6527 H   0  0  0  0  0  0  0  0  0  0  0  0
    0.4252   -4.0886    1.8040 N   0  0  0  0  0  0  0  0  0  0  0  0
    1.2532   -2.9707    1.4349 C   0  0  2  0  0  0  0  0  0  0  0  0
    0.3395   -1.8293    1.0083 C   0  0  0  0  0  0  0  0  0  0  0  0
   -0.8136   -2.0027    0.6194 O   0  0  0  0  0  0  0  0  0  0  0  0
    2.2176   -3.3411    0.3189 C   0  0  0  0  0  0  0  0  0  0  0  0
   -0.2574   -4.4279    1.1287 H   0  0  0  0  0  0  0  0  0  0  0  0
    1.8087   -2.6785    2.3327 H   0  0  0  0  0  0  0  0  0  0  0  0
    1.6793   -3.6366   -0.5890 H   0  0  0  0  0  0  0  0  0  0  0  0
    2.8662   -2.4980    0.0589 H   0  0  0  0  0  0  0  0  0  0  0  0
    2.8538   -4.1816    0.6166 H   0  0  0  0  0  0  0  0  0  0  0  0
    0.9758   -0.5952    1.0708 N   0  0  0  0  0  0  0  0  0  0  0  0
    0.3258    0.6374    0.7059 C   0  0  2  0  0  0  0  0  0  0  0  0
    1.1212    1.2536   -0.4401 C   0  0  0  0  0  0  0  0  0  0  0  0
    2.2945    1.6033   -0.3289 O   0  0  0  0  0  0  0  0  0  0  0  0
    0.2442    1.6144    1.8849 C   0  0  0  0  0  0  0  0  0  0  0  0
   -0.6734    1.1364    3.0096 C   0  0  0  0  0  0  0  0  0  0  0  0
   -0.7820    2.0557    4.2306 C   0  0  0  0  0  0  0  0  0  0  0  0
    0.0151    3.0375    4.2151 O   0  5  0  0  0  0  0  0  0  0  0  0
   -1.6499    1.7428    5.0915 O   0  0  0  0  0  0  0  0  0  0  0  0
    1.9288   -0.5463    1.4242 H   0  0  0  0  0  0  0  0  0  0  0  0
   -0.6711    0.3701    0.3388 H   0  0  0  0  0  0  0  0  0  0  0  0
   -0.0903    2.5986    1.5344 H   0  0  0  0  0  0  0  0  0  0  0  0
    1.2497    1.7676    2.2994 H   0  0  0  0  0  0  0  0  0  0  0  0
   -1.6783    0.9427    2.6158 H   0  0  0  0  0  0  0  0  0  0  0  0
   -0.2938    0.1760    3.3811 H   0  0  0  0  0  0  0  0  0  0  0  0
    0.3518    1.4090   -1.5847 N   0  0  0  0  0  0  0  0  0  0  0  0
    0.8696    1.9842   -2.8045 C   0  0  2  0  0  0  0  0  0  0  0  0
   -0.3141    2.4107   -3.6628 C   0  0  0  0  0  0  0  0  0  0  0  0
   -1.4394    1.9316   -3.5392 O   0  0  0  0  0  0  0  0  0  0  0  0
    1.7538    0.9968   -3.5501 C   0  0  0  0  0  0  0  0  0  0  0  0
   -0.6079    1.0765   -1.5896 H   0  0  0  0  0  0  0  0  0  0  0  0
    1.4496    2.8677   -2.5163 H   0  0  0  0  0  0  0  0  0  0  0  0
    1.1900    0.1050   -3.8471 H   0  0  0  0  0  0  0  0  0  0  0  0
    2.1683    1.4438   -4.4597 H   0  0  0  0  0  0  0  0  0  0  0  0
    2.5880    0.6684   -2.9208 H   0  0  0  0  0  0  0  0  0  0  0  0
    0.0438    3.3582   -4.6117 N   0  0  0  0  0  0  0  0  0  0  0  0
   -0.8995    3.9121   -5.5546 C   0  0  0  0  0  0  0  0  0  0  0  0
    0.9956    3.7126   -4.6296 H   0  0  0  0  0  0  0  0  0  0  0  0
   -0.8802    3.3223   -6.4829 H   0  0  0  0  0  0  0  0  0  0  0  0
   -1.9105    3.8821   -5.1223 H   0  0  0  0  0  0  0  0  0  0  0  0
   -0.6265    4.9543   -5.7769 H   0  0  0  0  0  0  0  0  0  0  0  0
  1  3  1  0  0  0  0
  1  7  1  0  0  0  0
  1  2  2  0  0  0  0
 33 34  1  0  0  0  0
 34 42  1  0  0  0  0
 34 35  2  0  0  0  0
  8  9  1  0  0  0  0
  9 17  1  0  0  0  0
  9 10  2  0  0  0  0
 18 19  1  0  0  0  0
 19 32  1  0  0  0  0
 19 20  2  0  0  0  0
 22 23  1  0  0  0  0
 23 24  1  0  0  0  0
 23 25  2  0  0  0  0
 33 36  1  0  0  0  0
  8 11  1  0  0  0  0
 42 43  1  0  0  0  0
 21 22  1  0  0  0  0
 18 21  1  0  0  0  0
 32 33  1  0  0  0  0
  7  8  1  0  0  0  0
 17 18  1  0  0  0  0
  3  4  1  0  0  0  0
  3  5  1  0  0  0  0
  3  6  1  0  0  0  0
 36 39  1  0  0  0  0
 36 40  1  0  0  0  0
 36 41  1  0  0  0  0
 11 14  1  0  0  0  0
 11 15  1  0  0  0  0
 11 16  1  0  0  0  0
 43 45  1  0  0  0  0
 43 46  1  0  0  0  0
 43 47  1  0  0  0  0
 22 30  1  0  0  0  0
 22 31  1  0  0  0  0
 21 28  1  0  0  0  0
 21 29  1  0  0  0  0
 33 38  1  0  0  0  0
  8 13  1  0  0  0  0
 18 27  1  0  0  0  0
 42 44  1  0  0  0  0
  7 12  1  0  0  0  0
 32 37  1  0  0  0  0
 17 26  1  0  0  0  0
M  CHG  1  24  -1
M  END
$$$$

  -OEChem-05262214473D

 47 46  0     1  0  0  0  0  0999 V2000
    0.5093   -4.7265    3.0306 C   0  0  0  0  0  0  0  0  0  0  0  0
    1.2735   -4.4402    3.9448 O   0  0  0  0  0  0  0  0  0  0  0  0
   -0.4465   -5.8608    3.1982 C   0  0  0  0  0  0  0  0  0  0  0  0
   -0.0219   -6.8213    2.8645 H   0  0  0  0  0  0  0  0  0  0  0  0
   -0.7314   -6.0185    4.2509 H   0  0  0  0  0  0  0  0  0  0  0  0
   -1.3983   -5.7596    2.6527 H   0  0  0  0  0  0  0  0  0  0  0  0
    0.4252   -4.0886    1.8040 N   0  0  0  0  0  0  0  0  0  0  0  0
    1.2532   -2.9707    1.4349 C   0  0  2  0  0  0  0  0  0  0  0  0
    0.3395   -1.8293    1.0083 C   0  0  0  0  0  0  0  0  0  0  0  0
   -0.8136   -2.0027    0.6194 O   0  0  0  0  0  0  0  0  0  0  0  0
    2.2176   -3.3411    0.3189 C   0  0  0  0  0  0  0  0  0  0  0  0
   -0.2574   -4.4279    1.1287 H   0  0  0  0  0  0  0  0  0  0  0  0
    1.8087   -2.6785    2.3327 H   0  0  0  0  0  0  0  0  0  0  0  0
    1.6793   -3.6366   -0.5890 H   0  0  0  0  0  0  0  0  0  0  0  0
    2.8662   -2.4980    0.0589 H   0  0  0  0  0  0  0  0  0  0  0  0
    2.8538   -4.1816    0.6166 H   0  0  0  0  0  0  0  0  0  0  0  0
    0.9758   -0.5952    1.0708 N   0  0  0  0  0  0  0  0  0  0  0  0
    0.3258    0.6374    0.7059 C   0  0  2  0  0  0  0  0  0  0  0  0
    1.1212    1.2536   -0.4401 C   0  0  0  0  0  0  0  0  0  0  0  0
    2.3461    1.3574   -0.4254 O   0  0  0  0  0  0  0  0  0  0  0  0
    0.2442    1.6144    1.8849 C   0  0  0  0  0  0  0  0  0  0  0  0
   -0.6734    1.1364    3.0096 C   0  0  0  0  0  0  0  0  0  0  0  0
   -0.7820    2.0557    4.2306 C   0  0  0  0  0  0  0  0  0  0  0  0
    0.0151    3.0375    4.2151 O   0  5  0  0  0  0  0  0  0  0  0  0
   -1.6499    1.7428    5.0915 O   0  0  0  0  0  0  0  0  0  0  0  0
    1.9288   -0.5463    1.4242 H   0  0  0  0  0  0  0  0  0  0  0  0
   -0.6711    0.3701    0.3388 H   0  0  0  0  0  0  0  0  0  0  0  0
   -0.0903    2.5986    1.5344 H   0  0  0  0  0  0  0  0  0  0  0  0
    1.2497    1.7676    2.2994 H   0  0  0  0  0  0  0  0  0  0  0  0
   -1.6783    0.9427    2.6158 H   0  0  0  0  0  0  0  0  0  0  0  0
   -0.2938    0.1760    3.3811 H   0  0  0  0  0  0  0  0  0  0  0  0
    0.2978    1.7151   -1.4577 N   0  0  0  0  0  0  0  0  0  0  0  0
    0.8074    2.3542   -2.6487 C   0  0  2  0  0  0  0  0  0  0  0  0
   -0.3391    3.1150   -3.3014 C   0  0  0  0  0  0  0  0  0  0  0  0
   -1.5219    2.8423   -3.1068 O   0  0  0  0  0  0  0  0  0  0  0  0
    1.4026    1.3377   -3.6106 C   0  0  0  0  0  0  0  0  0  0  0  0
   -0.7056    1.5725   -1.3907 H   0  0  0  0  0  0  0  0  0  0  0  0
    1.5775    3.0619   -2.3230 H   0  0  0  0  0  0  0  0  0  0  0  0
    0.6458    0.6200   -3.9478 H   0  0  0  0  0  0  0  0  0  0  0  0
    1.8140    1.8265   -4.4999 H   0  0  0  0  0  0  0  0  0  0  0  0
    2.2073    0.7709   -3.1299 H   0  0  0  0  0  0  0  0  0  0  0  0
    0.1144    4.1063   -4.1604 N   0  0  0  0  0  0  0  0  0  0  0  0
   -0.7798    4.9582   -4.9091 C   0  0  0  0  0  0  0  0  0  0  0  0
    1.1124    4.2750   -4.2461 H   0  0  0  0  0  0  0  0  0  0  0  0
   -0.9646    4.5165   -5.8994 H   0  0  0  0  0  0  0  0  0  0  0  0
   -1.7324    5.0556   -4.3676 H   0  0  0  0  0  0  0  0  0  0  0  0
   -0.3237    5.9518   -5.0303 H   0  0  0  0  0  0  0  0  0  0  0  0
  1  3  1  0  0  0  0
  1  7  1  0  0  0  0
  1  2  2  0  0  0  0
 33 34  1  0  0  0  0
 34 42  1  0  0  0  0
 34 35  2  0  0  0  0
  8  9  1  0  0  0  0
  9 17  1  0  0  0  0
  9 10  2  0  0  0  0
 18 19  1  0  0  0  0
 19 32  1  0  0  0  0
 19 20  2  0  0  0  0
 22 23  1  0  0  0  0
 23 24  1  0  0  0  0
 23 25  2  0  0  0  0
 33 36  1  0  0  0  0
  8 11  1  0  0  0  0
 42 43  1  0  0  0  0
 21 22  1  0  0  0  0
 18 21  1  0  0  0  0
 32 33  1  0  0  0  0
  7  8  1  0  0  0  0
 17 18  1  0  0  0  0
  3  4  1  0  0  0  0
  3  5  1  0  0  0  0
  3  6  1  0  0  0  0
 36 39  1  0  0  0  0
 36 40  1  0  0  0  0
 36 41  1  0  0  0  0
 11 14  1  0  0  0  0
 11 15  1  0  0  0  0
 11 16  1  0  0  0  0
 43 45  1  0  0  0  0
 43 46  1  0  0  0  0
 43 47  1  0  0  0  0
 22 30  1  0  0  0  0
 22 31  1  0  0  0  0
 21 28  1  0  0  0  0
 21 29  1  0  0  0  0
 33 38  1  0  0  0  0
  8 13  1  0  0  0  0
 18 27  1  0  0  0  0
 42 44  1  0  0  0  0
  7 12  1  0  0  0  0
 32 37  1  0  0  0  0
 17 26  1  0  0  0  0
M  CHG  1  24  -1
M  END
$$$$

  -OEChem-05262214473D

 47 46  0     1  0  0  0  0  0999 V2000
    0.5093   -4.7265    3.0306 C   0  0  0  0  0  0  0  0  0  0  0  0
    1.2735   -4.4402    3.9448 O   0  0  0  0  0  0  0  0  0  0  0  0
   -0.4465   -5.8608    3.1982 C   0  0  0  0  0  0  0  0  0  0  0  0
   -0.0219   -6.8213    2.8645 H   0  0  0  0  0  0  0  0  0  0  0  0
   -0.7314   -6.0185    4.2509 H   0  0  0  0  0  0  0  0  0  0  0  0
   -1.3983   -5.7596    2.6527 H   0  0  0  0  0  0  0  0  0  0  0  0
    0.4252   -4.0886    1.8040 N   0  0  0  0  0  0  0  0  0  0  0  0
    1.2532   -2.9707    1.4349 C   0  0  2  0  0  0  0  0  0  0  0  0
    0.3395   -1.8293    1.0083 C   0  0  0  0  0  0  0  0  0  0  0  0
   -0.8136   -2.0027    0.6194 O   0  0  0  0  0  0  0  0  0  0  0  0
    2.2176   -3.3411    0.3189 C   0  0  0  0  0  0  0  0  0  0  0  0
   -0.2574   -4.4279    1.1287 H   0  0  0  0  0  0  0  0  0  0  0  0
    1.8087   -2.6785    2.3327 H   0  0  0  0  0  0  0  0  0  0  0  0
    1.6793   -3.6366   -0.5890 H   0  0  0  0  0  0  0  0  0  0  0  0
    2.8662   -2.4980    0.0589 H   0  0  0  0  0  0  0  0  0  0  0  0
    2.8538   -4.1816    0.6166 H   0  0  0  0  0  0  0  0  0  0  0  0
    0.9758   -0.5952    1.0708 N   0  0  0  0  0  0  0  0  0  0  0  0
    0.3258    0.6374    0.7059 C   0  0  2  0  0  0  0  0  0  0  0  0
    1.1212    1.2536   -0.4401 C   0  0  0  0  0  0  0  0  0  0  0  0
    2.3379    1.1229   -0.5571 O   0  0  0  0  0  0  0  0  0  0  0  0
    0.2442    1.6144    1.8849 C   0  0  0  0  0  0  0  0  0  0  0  0
   -0.6734    1.1364    3.0096 C   0  0  0  0  0  0  0  0  0  0  0  0
   -0.7820    2.0557    4.2306 C   0  0  0  0  0  0  0  0  0  0  0  0
    0.0151    3.0375    4.2151 O   0  5  0  0  0  0  0  0  0  0  0  0
   -1.6499    1.7428    5.0915 O   0  0  0  0  0  0  0  0  0  0  0  0
    1.9288   -0.5463    1.4242 H   0  0  0  0  0  0  0  0  0  0  0  0
   -0.6711    0.3701    0.3388 H   0  0  0  0  0  0  0  0  0  0  0  0
   -0.0903    2.5986    1.5344 H   0  0  0  0  0  0  0  0  0  0  0  0
    1.2497    1.7676    2.2994 H   0  0  0  0  0  0  0  0  0  0  0  0
   -1.6783    0.9427    2.6158 H   0  0  0  0  0  0  0  0  0  0  0  0
   -0.2938    0.1760    3.3811 H   0  0  0  0  0  0  0  0  0  0  0  0
    0.3185    2.0040   -1.2879 N   0  0  0  0  0  0  0  0  0  0  0  0
    0.8357    2.7026   -2.4417 C   0  0  2  0  0  0  0  0  0  0  0  0
   -0.1886    3.7513   -2.8547 C   0  0  0  0  0  0  0  0  0  0  0  0
   -1.3792    3.6797   -2.5574 O   0  0  0  0  0  0  0  0  0  0  0  0
    1.1233    1.7434   -3.5863 C   0  0  0  0  0  0  0  0  0  0  0  0
   -0.6827    2.0437   -1.1214 H   0  0  0  0  0  0  0  0  0  0  0  0
    1.7591    3.1986   -2.1235 H   0  0  0  0  0  0  0  0  0  0  0  0
    0.2098    1.2370   -3.9187 H   0  0  0  0  0  0  0  0  0  0  0  0
    1.5420    2.2705   -4.4499 H   0  0  0  0  0  0  0  0  0  0  0  0
    1.8376    0.9722   -3.2783 H   0  0  0  0  0  0  0  0  0  0  0  0
    0.3753    4.7542   -3.6309 N   0  0  0  0  0  0  0  0  0  0  0  0
   -0.3933    5.8582   -4.1568 C   0  0  0  0  0  0  0  0  0  0  0  0
    1.3747    4.7437   -3.8120 H   0  0  0  0  0  0  0  0  0  0  0  0
   -0.7529    5.6076   -5.1657 H   0  0  0  0  0  0  0  0  0  0  0  0
   -1.2532    6.0525   -3.4989 H   0  0  0  0  0  0  0  0  0  0  0  0
    0.2408    6.7557   -4.2061 H   0  0  0  0  0  0  0  0  0  0  0  0
  1  3  1  0  0  0  0
  1  7  1  0  0  0  0
  1  2  2  0  0  0  0
 33 34  1  0  0  0  0
 34 42  1  0  0  0  0
 34 35  2  0  0  0  0
  8  9  1  0  0  0  0
  9 17  1  0  0  0  0
  9 10  2  0  0  0  0
 18 19  1  0  0  0  0
 19 32  1  0  0  0  0
 19 20  2  0  0  0  0
 22 23  1  0  0  0  0
 23 24  1  0  0  0  0
 23 25  2  0  0  0  0
 33 36  1  0  0  0  0
  8 11  1  0  0  0  0
 42 43  1  0  0  0  0
 21 22  1  0  0  0  0
 18 21  1  0  0  0  0
 32 33  1  0  0  0  0
  7  8  1  0  0  0  0
 17 18  1  0  0  0  0
  3  4  1  0  0  0  0
  3  5  1  0  0  0  0
  3  6  1  0  0  0  0
 36 39  1  0  0  0  0
 36 40  1  0  0  0  0
 36 41  1  0  0  0  0
 11 14  1  0  0  0  0
 11 15  1  0  0  0  0
 11 16  1  0  0  0  0
 43 45  1  0  0  0  0
 43 46  1  0  0  0  0
 43 47  1  0  0  0  0
 22 30  1  0  0  0  0
 22 31  1  0  0  0  0
 21 28  1  0  0  0  0
 21 29  1  0  0  0  0
 33 38  1  0  0  0  0
  8 13  1  0  0  0  0
 18 27  1  0  0  0  0
 42 44  1  0  0  0  0
  7 12  1  0  0  0  0
 32 37  1  0  0  0  0
 17 26  1  0  0  0  0
M  CHG  1  24  -1
M  END
$$$$

  -OEChem-05262214473D

 47 46  0     1  0  0  0  0  0999 V2000
    0.5093   -4.7265    3.0306 C   0  0  0  0  0  0  0  0  0  0  0  0
    1.2735   -4.4402    3.9448 O   0  0  0  0  0  0  0  0  0  0  0  0
   -0.4465   -5.8608    3.1982 C   0  0  0  0  0  0  0  0  0  0  0  0
   -0.0219   -6.8213    2.8645 H   0  0  0  0  0  0  0  0  0  0  0  0
   -0.7314   -6.0185    4.2509 H   0  0  0  0  0  0  0  0  0  0  0  0
   -1.3983   -5.7596    2.6527 H   0  0  0  0  0  0  0  0  0  0  0  0
    0.4252   -4.0886    1.8040 N   0  0  0  0  0  0  0  0  0  0  0  0
    1.2532   -2.9707    1.4349 C   0  0  2  0  0  0  0  0  0  0  0  0
    0.3395   -1.8293    1.0083 C   0  0  0  0  0  0  0  0  0  0  0  0
   -0.8136   -2.0027    0.6194 O   0  0  0  0  0  0  0  0  0  0  0  0
    2.2176   -3.3411    0.3189 C   0  0  0  0  0  0  0  0  0  0  0  0
   -0.2574   -4.4279    1.1287 H   0  0  0  0  0  0  0  0  0  0  0  0
    1.8087   -2.6785    2.3327 H   0  0  0  0  0  0  0  0  0  0  0  0
    1.6793   -3.6366   -0.5890 H   0  0  0  0  0  0  0  0  0  0  0  0
    2.8662   -2.4980    0.0589 H   0  0  0  0  0  0  0  0  0  0  0  0
    2.8538   -4.1816    0.6166 H   0  0  0  0  0  0  0  0  0  0  0  0
    0.9758   -0.5952    1.0708 N   0  0  0  0  0  0  0  0  0  0  0  0
    0.3258    0.6374    0.7059 C   0  0  2  0  0  0  0  0  0  0  0  0
    1.1212    1.2536   -0.4401 C   0  0  0  0  0  0  0  0  0  0  0  0
    2.2707    0.9157   -0.7152 O   0  0  0  0  0  0  0  0  0  0  0  0
    0.2442    1.6144    1.8849 C   0  0  0  0  0  0  0  0  0  0  0  0
   -0.6734    1.1364    3.0096 C   0  0  0  0  0  0  0  0  0  0  0  0
   -0.7820    2.0557    4.2306 C   0  0  0  0  0  0  0  0  0  0  0  0
    0.0151    3.0375    4.2151 O   0  5  0  0  0  0  0  0  0  0  0  0
   -1.6499    1.7428    5.0915 O   0  0  0  0  0  0  0  0  0  0  0  0
    1.9288   -0.5463    1.4242 H   0  0  0  0  0  0  0  0  0  0  0  0
   -0.6711    0.3701    0.3388 H   0  0  0  0  0  0  0  0  0  0  0  0
   -0.0903    2.5986    1.5344 H   0  0  0  0  0  0  0  0  0  0  0  0
    1.2497    1.7676    2.2994 H   0  0  0  0  0  0  0  0  0  0  0  0
   -1.6783    0.9427    2.6158 H   0  0  0  0  0  0  0  0  0  0  0  0
   -0.2938    0.1760    3.3811 H   0  0  0  0  0  0  0  0  0  0  0  0
    0.4124    2.2562   -1.0871 N   0  0  0  0  0  0  0  0  0  0  0  0
    0.9524    3.0057   -2.1977 C   0  0  2  0  0  0  0  0  0  0  0  0
    0.1273    4.2764   -2.3531 C   0  0  0  0  0  0  0  0  0  0  0  0
   -1.0211    4.3866   -1.9287 O   0  0  0  0  0  0  0  0  0  0  0  0
    0.9350    2.1863   -3.4788 C   0  0  0  0  0  0  0  0  0  0  0  0
   -0.5408    2.4581   -0.8000 H   0  0  0  0  0  0  0  0  0  0  0  0
    1.9820    3.2683   -1.9313 H   0  0  0  0  0  0  0  0  0  0  0  0
   -0.0883    1.9138   -3.7617 H   0  0  0  0  0  0  0  0  0  0  0  0
    1.3708    2.7455   -4.3133 H   0  0  0  0  0  0  0  0  0  0  0  0
    1.5041    1.2586   -3.3558 H   0  0  0  0  0  0  0  0  0  0  0  0
    0.8087    5.2579   -3.0592 N   0  0  0  0  0  0  0  0  0  0  0  0
    0.2338    6.5508   -3.3491 C   0  0  0  0  0  0  0  0  0  0  0  0
    1.7646    5.0868   -3.3568 H   0  0  0  0  0  0  0  0  0  0  0  0
   -0.2595    6.5213   -4.3318 H   0  0  0  0  0  0  0  0  0  0  0  0
   -0.5055    6.8050   -2.5753 H   0  0  0  0  0  0  0  0  0  0  0  0
    1.0287    7.3111   -3.3606 H   0  0  0  0  0  0  0  0  0  0  0  0
  1  3  1  0  0  0  0
  1  7  1  0  0  0  0
  1  2  2  0  0  0  0
 33 34  1  0  0  0  0
 34 42  1  0  0  0  0
 34 35  2  0  0  0  0
  8  9  1  0  0  0  0
  9 17  1  0  0  0  0
  9 10  2  0  0  0  0
 18 19  1  0  0  0  0
 19 32  1  0  0  0  0
 19 20  2  0  0  0  0
 22 23  1  0  0  0  0
 23 24  1  0  0  0  0
 23 25  2  0  0  0  0
 33 36  1  0  0  0  0
  8 11  1  0  0  0  0
 42 43  1  0  0  0  0
 21 22  1  0  0  0  0
 18 21  1  0  0  0  0
 32 33  1  0  0  0  0
  7  8  1  0  0  0  0
 17 18  1  0  0  0  0
  3  4  1  0  0  0  0
  3  5  1  0  0  0  0
  3  6  1  0  0  0  0
 36 39  1  0  0  0  0
 36 40  1  0  0  0  0
 36 41  1  0  0  0  0
 11 14  1  0  0  0  0
 11 15  1  0  0  0  0
 11 16  1  0  0  0  0
 43 45  1  0  0  0  0
 43 46  1  0  0  0  0
 43 47  1  0  0  0  0
 22 30  1  0  0  0  0
 22 31  1  0  0  0  0
 21 28  1  0  0  0  0
 21 29  1  0  0  0  0
 33 38  1  0  0  0  0
  8 13  1  0  0  0  0
 18 27  1  0  0  0  0
 42 44  1  0  0  0  0
  7 12  1  0  0  0  0
 32 37  1  0  0  0  0
 17 26  1  0  0  0  0
M  CHG  1  24  -1
M  END
$$$$

  -OEChem-05262214473D

 47 46  0     1  0  0  0  0  0999 V2000
    0.5093   -4.7265    3.0306 C   0  0  0  0  0  0  0  0  0  0  0  0
    1.2735   -4.4402    3.9448 O   0  0  0  0  0  0  0  0  0  0  0  0
   -0.4465   -5.8608    3.1982 C   0  0  0  0  0  0  0  0  0  0  0  0
   -0.0219   -6.8213    2.8645 H   0  0  0  0  0  0  0  0  0  0  0  0
   -0.7314   -6.0185    4.2509 H   0  0  0  0  0  0  0  0  0  0  0  0
   -1.3983   -5.7596    2.6527 H   0  0  0  0  0  0  0  0  0  0  0  0
    0.4252   -4.0886    1.8040 N   0  0  0  0  0  0  0  0  0  0  0  0
    1.2532   -2.9707    1.4349 C   0  0  2  0  0  0  0  0  0  0  0  0
    0.3395   -1.8293    1.0083 C   0  0  0  0  0  0  0  0  0  0  0  0
   -0.8136   -2.0027    0.6194 O   0  0  0  0  0  0  0  0  0  0  0  0
    2.2176   -3.3411    0.3189 C   0  0  0  0  0  0  0  0  0  0  0  0
   -0.2574   -4.4279    1.1287 H   0  0  0  0  0  0  0  0  0  0  0  0
    1.8087   -2.6785    2.3327 H   0  0  0  0  0  0  0  0  0  0  0  0
    1.6793   -3.6366   -0.5890 H   0  0  0  0  0  0  0  0  0  0  0  0
    2.8662   -2.4980    0.0589 H   0  0  0  0  0  0  0  0  0  0  0  0
    2.8538   -4.1816    0.6166 H   0  0  0  0  0  0  0  0  0  0  0  0
    0.9758   -0.5952    1.0708 N   0  0  0  0  0  0  0  0  0  0  0  0
    0.3258    0.6374    0.7059 C   0  0  2  0  0  0  0  0  0  0  0  0
    0.8737    1.0600   -0.6531 C   0  0  0  0  0  0  0  0  0  0  0  0
    1.7460    0.4310   -1.2486 O   0  0  0  0  0  0  0  0  0  0  0  0
    0.5633    1.7409    1.7438 C   0  0  0  0  0  0  0  0  0  0  0  0
   -0.1010    1.4626    3.0915 C   0  0  0  0  0  0  0  0  0  0  0  0
    0.1168    2.5156    4.1831 C   0  0  0  0  0  0  0  0  0  0  0  0
    0.9402    3.4240    3.8727 O   0  5  0  0  0  0  0  0  0  0  0  0
   -0.5500    2.3681    5.2442 O   0  0  0  0  0  0  0  0  0  0  0  0
    1.9288   -0.5463    1.4242 H   0  0  0  0  0  0  0  0  0  0  0  0
   -0.7407    0.4108    0.6006 H   0  0  0  0  0  0  0  0  0  0  0  0
    0.2105    2.7041    1.3549 H   0  0  0  0  0  0  0  0  0  0  0  0
    1.6429    1.8589    1.9072 H   0  0  0  0  0  0  0  0  0  0  0  0
   -1.1775    1.3066    2.9530 H   0  0  0  0  0  0  0  0  0  0  0  0
    0.3017    0.5217    3.4878 H   0  0  0  0  0  0  0  0  0  0  0  0
    0.3068    2.2461   -1.0982 N   0  0  0  0  0  0  0  0  0  0  0  0
    0.6690    2.8654   -2.3520 C   0  0  2  0  0  0  0  0  0  0  0  0
    0.2189    4.3196   -2.3056 C   0  0  0  0  0  0  0  0  0  0  0  0
   -0.6699    4.7232   -1.5583 O   0  0  0  0  0  0  0  0  0  0  0  0
    0.0393    2.1389   -3.5303 C   0  0  0  0  0  0  0  0  0  0  0  0
   -0.4202    2.6899   -0.5449 H   0  0  0  0  0  0  0  0  0  0  0  0
    1.7614    2.8227   -2.4219 H   0  0  0  0  0  0  0  0  0  0  0  0
   -1.0551    2.1711   -3.4775 H   0  0  0  0  0  0  0  0  0  0  0  0
    0.3378    2.5922   -4.4814 H   0  0  0  0  0  0  0  0  0  0  0  0
    0.3405    1.0859   -3.5450 H   0  0  0  0  0  0  0  0  0  0  0  0
    0.8965    5.1054   -3.2273 N   0  0  0  0  0  0  0  0  0  0  0  0
    0.6400    6.5179   -3.3857 C   0  0  0  0  0  0  0  0  0  0  0  0
    1.6314    4.6908   -3.7928 H   0  0  0  0  0  0  0  0  0  0  0  0
   -0.1161    6.6680   -4.1704 H   0  0  0  0  0  0  0  0  0  0  0  0
    0.2700    6.9319   -2.4361 H   0  0  0  0  0  0  0  0  0  0  0  0
    1.5710    7.0297   -3.6709 H   0  0  0  0  0  0  0  0  0  0  0  0
  1  3  1  0  0  0  0
  1  7  1  0  0  0  0
  1  2  2  0  0  0  0
 33 34  1  0  0  0  0
 34 42  1  0  0  0  0
 34 35  2  0  0  0  0
  8  9  1  0  0  0  0
  9 17  1  0  0  0  0
  9 10  2  0  0  0  0
 18 19  1  0  0  0  0
 19 32  1  0  0  0  0
 19 20  2  0  0  0  0
 22 23  1  0  0  0  0
 23 24  1  0  0  0  0
 23 25  2  0  0  0  0
 33 36  1  0  0  0  0
  8 11  1  0  0  0  0
 42 43  1  0  0  0  0
 21 22  1  0  0  0  0
 18 21  1  0  0  0  0
 32 33  1  0  0  0  0
  7  8  1  0  0  0  0
 17 18  1  0  0  0  0
  3  4  1  0  0  0  0
  3  5  1  0  0  0  0
  3  6  1  0  0  0  0
 36 39  1  0  0  0  0
 36 40  1  0  0  0  0
 36 41  1  0  0  0  0
 11 14  1  0  0  0  0
 11 15  1  0  0  0  0
 11 16  1  0  0  0  0
 43 45  1  0  0  0  0
 43 46  1  0  0  0  0
 43 47  1  0  0  0  0
 22 30  1  0  0  0  0
 22 31  1  0  0  0  0
 21 28  1  0  0  0  0
 21 29  1  0  0  0  0
 33 38  1  0  0  0  0
  8 13  1  0  0  0  0
 18 27  1  0  0  0  0
 42 44  1  0  0  0  0
  7 12  1  0  0  0  0
 32 37  1  0  0  0  0
 17 26  1  0  0  0  0
M  CHG  1  24  -1
M  END
$$$$

  -OEChem-05262214473D

 47 46  0     1  0  0  0  0  0999 V2000
    0.5093   -4.7265    3.0306 C   0  0  0  0  0  0  0  0  0  0  0  0
    1.2735   -4.4402    3.9448 O   0  0  0  0  0  0  0  0  0  0  0  0
   -0.4465   -5.8608    3.1982 C   0  0  0  0  0  0  0  0  0  0  0  0
   -0.0219   -6.8213    2.8645 H   0  0  0  0  0  0  0  0  0  0  0  0
   -0.7314   -6.0185    4.2509 H   0  0  0  0  0  0  0  0  0  0  0  0
   -1.3983   -5.7596    2.6527 H   0  0  0  0  0  0  0  0  0  0  0  0
    0.4252   -4.0886    1.8040 N   0  0  0  0  0  0  0  0  0  0  0  0
    1.2532   -2.9707    1.4349 C   0  0  2  0  0  0  0  0  0  0  0  0
    0.3395   -1.8293    1.0083 C   0  0  0  0  0  0  0  0  0  0  0  0
   -0.8136   -2.0027    0.6194 O   0  0  0  0  0  0  0  0  0  0  0  0
    2.2176   -3.3411    0.3189 C   0  0  0  0  0  0  0  0  0  0  0  0
   -0.2574   -4.4279    1.1287 H   0  0  0  0  0  0  0  0  0  0  0  0
    1.8087   -2.6785    2.3327 H   0  0  0  0  0  0  0  0  0  0  0  0
    1.6793   -3.6366   -0.5890 H   0  0  0  0  0  0  0  0  0  0  0  0
    2.8662   -2.4980    0.0589 H   0  0  0  0  0  0  0  0  0  0  0  0
    2.8538   -4.1816    0.6166 H   0  0  0  0  0  0  0  0  0  0  0  0
    0.9758   -0.5952    1.0708 N   0  0  0  0  0  0  0  0  0  0  0  0
    0.3258    0.6374    0.7059 C   0  0  2  0  0  0  0  0  0  0  0  0
    0.8737    1.0600   -0.6531 C   0  0  0  0  0  0  0  0  0  0  0  0
    1.5367    0.3129   -1.3697 O   0  0  0  0  0  0  0  0  0  0  0  0
    0.5633    1.7409    1.7438 C   0  0  0  0  0  0  0  0  0  0  0  0
   -0.1010    1.4626    3.0915 C   0  0  0  0  0  0  0  0  0  0  0  0
    0.1168    2.5156    4.1831 C   0  0  0  0  0  0  0  0  0  0  0  0
    0.9402    3.4240    3.8727 O   0  5  0  0  0  0  0  0  0  0  0  0
   -0.5500    2.3681    5.2442 O   0  0  0  0  0  0  0  0  0  0  0  0
    1.9288   -0.5463    1.4242 H   0  0  0  0  0  0  0  0  0  0  0  0
   -0.7407    0.4108    0.6006 H   0  0  0  0  0  0  0  0  0  0  0  0
    0.2105    2.7041    1.3549 H   0  0  0  0  0  0  0  0  0  0  0  0
    1.6429    1.8589    1.9072 H   0  0  0  0  0  0  0  0  0  0  0  0
   -1.1775    1.3066    2.9530 H   0  0  0  0  0  0  0  0  0  0  0  0
    0.3017    0.5217    3.4878 H   0  0  0  0  0  0  0  0  0  0  0  0
    0.5741    2.3827   -0.9479 N   0  0  0  0  0  0  0  0  0  0  0  0
    0.9943    3.0274   -2.1705 C   0  0  2  0  0  0  0  0  0  0  0  0
    0.9007    4.5334   -1.9642 C   0  0  0  0  0  0  0  0  0  0  0  0
    0.1782    5.0505   -1.1146 O   0  0  0  0  0  0  0  0  0  0  0  0
    0.1416    2.5863   -3.3499 C   0  0  0  0  0  0  0  0  0  0  0  0
    0.0062    2.9217   -0.3009 H   0  0  0  0  0  0  0  0  0  0  0  0
    2.0400    2.7448   -2.3338 H   0  0  0  0  0  0  0  0  0  0  0  0
   -0.9095    2.8609   -3.2044 H   0  0  0  0  0  0  0  0  0  0  0  0
    0.4795    3.0539   -4.2806 H   0  0  0  0  0  0  0  0  0  0  0  0
    0.1865    1.4995   -3.4785 H   0  0  0  0  0  0  0  0  0  0  0  0
    1.6861    5.2339   -2.8690 N   0  0  0  0  0  0  0  0  0  0  0  0
    1.7581    6.6763   -2.8856 C   0  0  0  0  0  0  0  0  0  0  0  0
    2.2677    4.7227   -3.5264 H   0  0  0  0  0  0  0  0  0  0  0  0
    1.0119    7.0732   -3.5897 H   0  0  0  0  0  0  0  0  0  0  0  0
    1.5538    7.0652   -1.8771 H   0  0  0  0  0  0  0  0  0  0  0  0
    2.7639    6.9895   -3.2025 H   0  0  0  0  0  0  0  0  0  0  0  0
  1  3  1  0  0  0  0
  1  7  1  0  0  0  0
  1  2  2  0  0  0  0
 33 34  1  0  0  0  0
 34 42  1  0  0  0  0
 34 35  2  0  0  0  0
  8  9  1  0  0  0  0
  9 17  1  0  0  0  0
  9 10  2  0  0  0  0
 18 19  1  0  0  0  0
 19 32  1  0  0  0  0
 19 20  2  0  0  0  0
 22 23  1  0  0  0  0
 23 24  1  0  0  0  0
 23 25  2  0  0  0  0
 33 36  1  0  0  0  0
  8 11  1  0  0  0  0
 42 43  1  0  0  0  0
 21 22  1  0  0  0  0
 18 21  1  0  0  0  0
 32 33  1  0  0  0  0
  7  8  1  0  0  0  0
 17 18  1  0  0  0  0
  3  4  1  0  0  0  0
  3  5  1  0  0  0  0
  3  6  1  0  0  0  0
 36 39  1  0  0  0  0
 36 40  1  0  0  0  0
 36 41  1  0  0  0  0
 11 14  1  0  0  0  0
 11 15  1  0  0  0  0
 11 16  1  0  0  0  0
 43 45  1  0  0  0  0
 43 46  1  0  0  0  0
 43 47  1  0  0  0  0
 22 30  1  0  0  0  0
 22 31  1  0  0  0  0
 21 28  1  0  0  0  0
 21 29  1  0  0  0  0
 33 38  1  0  0  0  0
  8 13  1  0  0  0  0
 18 27  1  0  0  0  0
 42 44  1  0  0  0  0
  7 12  1  0  0  0  0
 32 37  1  0  0  0  0
 17 26  1  0  0  0  0
M  CHG  1  24  -1
M  END
$$$$

  -OEChem-05262214473D

 47 46  0     1  0  0  0  0  0999 V2000
    0.5093   -4.7265    3.0306 C   0  0  0  0  0  0  0  0  0  0  0  0
    1.2735   -4.4402    3.9448 O   0  0  0  0  0  0  0  0  0  0  0  0
   -0.4465   -5.8608    3.1982 C   0  0  0  0  0  0  0  0  0  0  0  0
   -0.0219   -6.8213    2.8645 H   0  0  0  0  0  0  0  0  0  0  0  0
   -0.7314   -6.0185    4.2509 H   0  0  0  0  0  0  0  0  0  0  0  0
   -1.3983   -5.7596    2.6527 H   0  0  0  0  0  0  0  0  0  0  0  0
    0.4252   -4.0886    1.8040 N   0  0  0  0  0  0  0  0  0  0  0  0
    1.2532   -2.9707    1.4349 C   0  0  2  0  0  0  0  0  0  0  0  0
    0.3395   -1.8293    1.0083 C   0  0  0  0  0  0  0  0  0  0  0  0
   -0.8136   -2.0027    0.6194 O   0  0  0  0  0  0  0  0  0  0  0  0
    2.2176   -3.3411    0.3189 C   0  0  0  0  0  0  0  0  0  0  0  0
   -0.2574   -4.4279    1.1287 H   0  0  0  0  0  0  0  0  0  0  0  0
    1.8087   -2.6785    2.3327 H   0  0  0  0  0  0  0  0  0  0  0  0
    1.6793   -3.6366   -0.5890 H   0  0  0  0  0  0  0  0  0  0  0  0
    2.8662   -2.4980    0.0589 H   0  0  0  0  0  0  0  0  0  0  0  0
    2.8538   -4.1816    0.6166 H   0  0  0  0  0  0  0  0  0  0  0  0
    0.9758   -0.5952    1.0708 N   0  0  0  0  0  0  0  0  0  0  0  0
    0.3258    0.6374    0.7059 C   0  0  2  0  0  0  0  0  0  0  0  0
    0.8737    1.0600   -0.6531 C   0  0  0  0  0  0  0  0  0  0  0  0
    1.2986    0.2584   -1.4826 O   0  0  0  0  0  0  0  0  0  0  0  0
    0.5633    1.7409    1.7438 C   0  0  0  0  0  0  0  0  0  0  0  0
   -0.1010    1.4626    3.0915 C   0  0  0  0  0  0  0  0  0  0  0  0
    0.1168    2.5156    4.1831 C   0  0  0  0  0  0  0  0  0  0  0  0
    0.9402    3.4240    3.8727 O   0  5  0  0  0  0  0  0  0  0  0  0
   -0.5500    2.3681    5.2442 O   0  0  0  0  0  0  0  0  0  0  0  0
    1.9288   -0.5463    1.4242 H   0  0  0  0  0  0  0  0  0  0  0  0
   -0.7407    0.4108    0.6006 H   0  0  0  0  0  0  0  0  0  0  0  0
    0.2105    2.7041    1.3549 H   0  0  0  0  0  0  0  0  0  0  0  0
    1.6429    1.8589    1.9072 H   0  0  0  0  0  0  0  0  0  0  0  0
   -1.1775    1.3066    2.9530 H   0  0  0  0  0  0  0  0  0  0  0  0
    0.3017    0.5217    3.4878 H   0  0  0  0  0  0  0  0  0  0  0  0
    0.8746    2.4391   -0.8093 N   0  0  0  0  0  0  0  0  0  0  0  0
    1.3589    3.0920   -2.0034 C   0  0  2  0  0  0  0  0  0  0  0  0
    1.6331    4.5510   -1.6635 C   0  0  0  0  0  0  0  0  0  0  0  0
    1.1047    5.1298   -0.7164 O   0  0  0  0  0  0  0  0  0  0  0  0
    0.3566    2.9781   -3.1414 C   0  0  0  0  0  0  0  0  0  0  0  0
    0.4891    3.0245   -0.0742 H   0  0  0  0  0  0  0  0  0  0  0  0
    2.2975    2.5972   -2.2759 H   0  0  0  0  0  0  0  0  0  0  0  0
   -0.5903    3.4681   -2.8868 H   0  0  0  0  0  0  0  0  0  0  0  0
    0.7372    3.4486   -4.0540 H   0  0  0  0  0  0  0  0  0  0  0  0
    0.1380    1.9283   -3.3647 H   0  0  0  0  0  0  0  0  0  0  0  0
    2.5041    5.1427   -2.5676 N   0  0  0  0  0  0  0  0  0  0  0  0
    2.9106    6.5250   -2.4680 C   0  0  0  0  0  0  0  0  0  0  0  0
    2.9088    4.5821   -3.3116 H   0  0  0  0  0  0  0  0  0  0  0  0
    2.2365    7.1504   -3.0719 H   0  0  0  0  0  0  0  0  0  0  0  0
    2.8646    6.8459   -1.4169 H   0  0  0  0  0  0  0  0  0  0  0  0
    3.9405    6.6319   -2.8393 H   0  0  0  0  0  0  0  0  0  0  0  0
  1  3  1  0  0  0  0
  1  7  1  0  0  0  0
  1  2  2  0  0  0  0
 33 34  1  0  0  0  0
 34 42  1  0  0  0  0
 34 35  2  0  0  0  0
  8  9  1  0  0  0  0
  9 17  1  0  0  0  0
  9 10  2  0  0  0  0
 18 19  1  0  0  0  0
 19 32  1  0  0  0  0
 19 20  2  0  0  0  0
 22 23  1  0  0  0  0
 23 24  1  0  0  0  0
 23 25  2  0  0  0  0
 33 36  1  0  0  0  0
  8 11  1  0  0  0  0
 42 43  1  0  0  0  0
 21 22  1  0  0  0  0
 18 21  1  0  0  0  0
 32 33  1  0  0  0  0
  7  8  1  0  0  0  0
 17 18  1  0  0  0  0
  3  4  1  0  0  0  0
  3  5  1  0  0  0  0
  3  6  1  0  0  0  0
 36 39  1  0  0  0  0
 36 40  1  0  0  0  0
 36 41  1  0  0  0  0
 11 14  1  0  0  0  0
 11 15  1  0  0  0  0
 11 16  1  0  0  0  0
 43 45  1  0  0  0  0
 43 46  1  0  0  0  0
 43 47  1  0  0  0  0
 22 30  1  0  0  0  0
 22 31  1  0  0  0  0
 21 28  1  0  0  0  0
 21 29  1  0  0  0  0
 33 38  1  0  0  0  0
  8 13  1  0  0  0  0
 18 27  1  0  0  0  0
 42 44  1  0  0  0  0
  7 12  1  0  0  0  0
 32 37  1  0  0  0  0
 17 26  1  0  0  0  0
M  CHG  1  24  -1
M  END
$$$$

  -OEChem-05262214473D

 47 46  0     1  0  0  0  0  0999 V2000
    0.5093   -4.7265    3.0306 C   0  0  0  0  0  0  0  0  0  0  0  0
    1.2735   -4.4402    3.9448 O   0  0  0  0  0  0  0  0  0  0  0  0
   -0.4465   -5.8608    3.1982 C   0  0  0  0  0  0  0  0  0  0  0  0
   -0.0219   -6.8213    2.8645 H   0  0  0  0  0  0  0  0  0  0  0  0
   -0.7314   -6.0185    4.2509 H   0  0  0  0  0  0  0  0  0  0  0  0
   -1.3983   -5.7596    2.6527 H   0  0  0  0  0  0  0  0  0  0  0  0
    0.4252   -4.0886    1.8040 N   0  0  0  0  0  0  0  0  0  0  0  0
    1.2532   -2.9707    1.4349 C   0  0  2  0  0  0  0  0  0  0  0  0
    0.3395   -1.8293    1.0083 C   0  0  0  0  0  0  0  0  0  0  0  0
   -0.8136   -2.0027    0.6194 O   0  0  0  0  0  0  0  0  0  0  0  0
    2.2176   -3.3411    0.3189 C   0  0  0  0  0  0  0  0  0  0  0  0
   -0.2574   -4.4279    1.1287 H   0  0  0  0  0  0  0  0  0  0  0  0
    1.8087   -2.6785    2.3327 H   0  0  0  0  0  0  0  0  0  0  0  0
    1.6793   -3.6366   -0.5890 H   0  0  0  0  0  0  0  0  0  0  0  0
    2.8662   -2.4980    0.0589 H   0  0  0  0  0  0  0  0  0  0  0  0
    2.8538   -4.1816    0.6166 H   0  0  0  0  0  0  0  0  0  0  0  0
    0.9758   -0.5952    1.0708 N   0  0  0  0  0  0  0  0  0  0  0  0
    0.3258    0.6374    0.7059 C   0  0  2  0  0  0  0  0  0  0  0  0
    0.8737    1.0600   -0.6531 C   0  0  0  0  0  0  0  0  0  0  0  0
    1.0480    0.2711   -1.5797 O   0  0  0  0  0  0  0  0  0  0  0  0
    0.5633    1.7409    1.7438 C   0  0  0  0  0  0  0  0  0  0  0  0
   -0.1010    1.4626    3.0915 C   0  0  0  0  0  0  0  0  0  0  0  0
    0.1168    2.5156    4.1831 C   0  0  0  0  0  0  0  0  0  0  0  0
    0.9402    3.4240    3.8727 O   0  5  0  0  0  0  0  0  0  0  0  0
   -0.5500    2.3681    5.2442 O   0  0  0  0  0  0  0  0  0  0  0  0
    1.9288   -0.5463    1.4242 H   0  0  0  0  0  0  0  0  0  0  0  0
   -0.7407    0.4108    0.6006 H   0  0  0  0  0  0  0  0  0  0  0  0
    0.2105    2.7041    1.3549 H   0  0  0  0  0  0  0  0  0  0  0  0
    1.6429    1.8589    1.9072 H   0  0  0  0  0  0  0  0  0  0  0  0
   -1.1775    1.3066    2.9530 H   0  0  0  0  0  0  0  0  0  0  0  0
    0.3017    0.5217    3.4878 H   0  0  0  0  0  0  0  0  0  0  0  0
    1.1879    2.4113   -0.6916 N   0  0  0  0  0  0  0  0  0  0  0  0
    1.7379    3.0547   -1.8622 C   0  0  2  0  0  0  0  0  0  0  0  0
    2.3661    4.3710   -1.4239 C   0  0  0  0  0  0  0  0  0  0  0  0
    2.0465    4.9557   -0.3909 O   0  0  0  0  0  0  0  0  0  0  0  0
    0.6695    3.2876   -2.9190 C   0  0  0  0  0  0  0  0  0  0  0  0
    0.9955    2.9914    0.1196 H   0  0  0  0  0  0  0  0  0  0  0  0
    2.5163    2.3898   -2.2521 H   0  0  0  0  0  0  0  0  0  0  0  0
   -0.1191    3.9516   -2.5465 H   0  0  0  0  0  0  0  0  0  0  0  0
    1.0935    3.7493   -3.8168 H   0  0  0  0  0  0  0  0  0  0  0  0
    0.1981    2.3431   -3.2114 H   0  0  0  0  0  0  0  0  0  0  0  0
    3.2948    4.8379   -2.3436 N   0  0  0  0  0  0  0  0  0  0  0  0
    4.0188    6.0743   -2.1614 C   0  0  0  0  0  0  0  0  0  0  0  0
    3.5111    4.2784   -3.1633 H   0  0  0  0  0  0  0  0  0  0  0  0
    3.4744    6.8943   -2.6525 H   0  0  0  0  0  0  0  0  0  0  0  0
    4.1132    6.2889   -1.0867 H   0  0  0  0  0  0  0  0  0  0  0  0
    5.0206    5.9814   -2.6061 H   0  0  0  0  0  0  0  0  0  0  0  0
  1  3  1  0  0  0  0
  1  7  1  0  0  0  0
  1  2  2  0  0  0  0
 33 34  1  0  0  0  0
 34 42  1  0  0  0  0
 34 35  2  0  0  0  0
  8  9  1  0  0  0  0
  9 17  1  0  0  0  0
  9 10  2  0  0  0  0
 18 19  1  0  0  0  0
 19 32  1  0  0  0  0
 19 20  2  0  0  0  0
 22 23  1  0  0  0  0
 23 24  1  0  0  0  0
 23 25  2  0  0  0  0
 33 36  1  0  0  0  0
  8 11  1  0  0  0  0
 42 43  1  0  0  0  0
 21 22  1  0  0  0  0
 18 21  1  0  0  0  0
 32 33  1  0  0  0  0
  7  8  1  0  0  0  0
 17 18  1  0  0  0  0
  3  4  1  0  0  0  0
  3  5  1  0  0  0  0
  3  6  1  0  0  0  0
 36 39  1  0  0  0  0
 36 40  1  0  0  0  0
 36 41  1  0  0  0  0
 11 14  1  0  0  0  0
 11 15  1  0  0  0  0
 11 16  1  0  0  0  0
 43 45  1  0  0  0  0
 43 46  1  0  0  0  0
 43 47  1  0  0  0  0
 22 30  1  0  0  0  0
 22 31  1  0  0  0  0
 21 28  1  0  0  0  0
 21 29  1  0  0  0  0
 33 38  1  0  0  0  0
  8 13  1  0  0  0  0
 18 27  1  0  0  0  0
 42 44  1  0  0  0  0
  7 12  1  0  0  0  0
 32 37  1  0  0  0  0
 17 26  1  0  0  0  0
M  CHG  1  24  -1
M  END
$$$$

  -OEChem-05262214473D

 47 46  0     1  0  0  0  0  0999 V2000
    0.5093   -4.7265    3.0306 C   0  0  0  0  0  0  0  0  0  0  0  0
    1.2735   -4.4402    3.9448 O   0  0  0  0  0  0  0  0  0  0  0  0
   -0.4465   -5.8608    3.1982 C   0  0  0  0  0  0  0  0  0  0  0  0
   -0.0219   -6.8213    2.8645 H   0  0  0  0  0  0  0  0  0  0  0  0
   -0.7314   -6.0185    4.2509 H   0  0  0  0  0  0  0  0  0  0  0  0
   -1.3983   -5.7596    2.6527 H   0  0  0  0  0  0  0  0  0  0  0  0
    0.4252   -4.0886    1.8040 N   0  0  0  0  0  0  0  0  0  0  0  0
    1.2532   -2.9707    1.4349 C   0  0  2  0  0  0  0  0  0  0  0  0
    0.3395   -1.8293    1.0083 C   0  0  0  0  0  0  0  0  0  0  0  0
   -0.8136   -2.0027    0.6194 O   0  0  0  0  0  0  0  0  0  0  0  0
    2.2176   -3.3411    0.3189 C   0  0  0  0  0  0  0  0  0  0  0  0
   -0.2574   -4.4279    1.1287 H   0  0  0  0  0  0  0  0  0  0  0  0
    1.8087   -2.6785    2.3327 H   0  0  0  0  0  0  0  0  0  0  0  0
    1.6793   -3.6366   -0.5890 H   0  0  0  0  0  0  0  0  0  0  0  0
    2.8662   -2.4980    0.0589 H   0  0  0  0  0  0  0  0  0  0  0  0
    2.8538   -4.1816    0.6166 H   0  0  0  0  0  0  0  0  0  0  0  0
    0.9758   -0.5952    1.0708 N   0  0  0  0  0  0  0  0  0  0  0  0
    0.3258    0.6374    0.7059 C   0  0  2  0  0  0  0  0  0  0  0  0
    0.8737    1.0600   -0.6531 C   0  0  0  0  0  0  0  0  0  0  0  0
    0.8018    0.3503   -1.6543 O   0  0  0  0  0  0  0  0  0  0  0  0
    0.5633    1.7409    1.7438 C   0  0  0  0  0  0  0  0  0  0  0  0
   -0.1010    1.4626    3.0915 C   0  0  0  0  0  0  0  0  0  0  0  0
    0.1168    2.5156    4.1831 C   0  0  0  0  0  0  0  0  0  0  0  0
    0.9402    3.4240    3.8727 O   0  5  0  0  0  0  0  0  0  0  0  0
   -0.5500    2.3681    5.2442 O   0  0  0  0  0  0  0  0  0  0  0  0
    1.9288   -0.5463    1.4242 H   0  0  0  0  0  0  0  0  0  0  0  0
   -0.7407    0.4108    0.6006 H   0  0  0  0  0  0  0  0  0  0  0  0
    0.2105    2.7041    1.3549 H   0  0  0  0  0  0  0  0  0  0  0  0
    1.6429    1.8589    1.9072 H   0  0  0  0  0  0  0  0  0  0  0  0
   -1.1775    1.3066    2.9530 H   0  0  0  0  0  0  0  0  0  0  0  0
    0.3017    0.5217    3.4878 H   0  0  0  0  0  0  0  0  0  0  0  0
    1.4925    2.3013   -0.6030 N   0  0  0  0  0  0  0  0  0  0  0  0
    2.1056    2.9182   -1.7564 C   0  0  2  0  0  0  0  0  0  0  0  0
    3.0499    4.0059   -1.2618 C   0  0  0  0  0  0  0  0  0  0  0  0
    2.9394    4.5400   -0.1602 O   0  0  0  0  0  0  0  0  0  0  0  0
    1.0591    3.4937   -2.6979 C   0  0  0  0  0  0  0  0  0  0  0  0
    1.4909    2.8246    0.2675 H   0  0  0  0  0  0  0  0  0  0  0  0
    2.6816    2.1368   -2.2642 H   0  0  0  0  0  0  0  0  0  0  0  0
    0.4720    4.2782   -2.2067 H   0  0  0  0  0  0  0  0  0  0  0  0
    1.5240    3.9356   -3.5854 H   0  0  0  0  0  0  0  0  0  0  0  0
    0.3629    2.7157   -3.0292 H   0  0  0  0  0  0  0  0  0  0  0  0
    4.0043    4.3403   -2.2122 N   0  0  0  0  0  0  0  0  0  0  0  0
    5.0072    5.3548   -1.9866 C   0  0  0  0  0  0  0  0  0  0  0  0
    4.0334    3.8323   -3.0914 H   0  0  0  0  0  0  0  0  0  0  0  0
    4.6411    6.3225   -2.3599 H   0  0  0  0  0  0  0  0  0  0  0  0
    5.2144    5.4322   -0.9091 H   0  0  0  0  0  0  0  0  0  0  0  0
    5.9305    5.0822   -2.5189 H   0  0  0  0  0  0  0  0  0  0  0  0
  1  3  1  0  0  0  0
  1  7  1  0  0  0  0
  1  2  2  0  0  0  0
 33 34  1  0  0  0  0
 34 42  1  0  0  0  0
 34 35  2  0  0  0  0
  8  9  1  0  0  0  0
  9 17  1  0  0  0  0
  9 10  2  0  0  0  0
 18 19  1  0  0  0  0
 19 32  1  0  0  0  0
 19 20  2  0  0  0  0
 22 23  1  0  0  0  0
 23 24  1  0  0  0  0
 23 25  2  0  0  0  0
 33 36  1  0  0  0  0
  8 11  1  0  0  0  0
 42 43  1  0  0  0  0
 21 22  1  0  0  0  0
 18 21  1  0  0  0  0
 32 33  1  0  0  0  0
  7  8  1  0  0  0  0
 17 18  1  0  0  0  0
  3  4  1  0  0  0  0
  3  5  1  0  0  0  0
  3  6  1  0  0  0  0
 36 39  1  0  0  0  0
 36 40  1  0  0  0  0
 36 41  1  0  0  0  0
 11 14  1  0  0  0  0
 11 15  1  0  0  0  0
 11 16  1  0  0  0  0
 43 45  1  0  0  0  0
 43 46  1  0  0  0  0
 43 47  1  0  0  0  0
 22 30  1  0  0  0  0
 22 31  1  0  0  0  0
 21 28  1  0  0  0  0
 21 29  1  0  0  0  0
 33 38  1  0  0  0  0
  8 13  1  0  0  0  0
 18 27  1  0  0  0  0
 42 44  1  0  0  0  0
  7 12  1  0  0  0  0
 32 37  1  0  0  0  0
 17 26  1  0  0  0  0
M  CHG  1  24  -1
M  END
$$$$

  -OEChem-05262214473D

 47 46  0     1  0  0  0  0  0999 V2000
    0.5093   -4.7265    3.0306 C   0  0  0  0  0  0  0  0  0  0  0  0
    1.2735   -4.4402    3.9448 O   0  0  0  0  0  0  0  0  0  0  0  0
   -0.4465   -5.8608    3.1982 C   0  0  0  0  0  0  0  0  0  0  0  0
   -0.0219   -6.8213    2.8645 H   0  0  0  0  0  0  0  0  0  0  0  0
   -0.7314   -6.0185    4.2509 H   0  0  0  0  0  0  0  0  0  0  0  0
   -1.3983   -5.7596    2.6527 H   0  0  0  0  0  0  0  0  0  0  0  0
    0.4252   -4.0886    1.8040 N   0  0  0  0  0  0  0  0  0  0  0  0
    1.2532   -2.9707    1.4349 C   0  0  2  0  0  0  0  0  0  0  0  0
    0.3395   -1.8293    1.0083 C   0  0  0  0  0  0  0  0  0  0  0  0
   -0.8136   -2.0027    0.6194 O   0  0  0  0  0  0  0  0  0  0  0  0
    2.2176   -3.3411    0.3189 C   0  0  0  0  0  0  0  0  0  0  0  0
   -0.2574   -4.4279    1.1287 H   0  0  0  0  0  0  0  0  0  0  0  0
    1.8087   -2.6785    2.3327 H   0  0  0  0  0  0  0  0  0  0  0  0
    1.6793   -3.6366   -0.5890 H   0  0  0  0  0  0  0  0  0  0  0  0
    2.8662   -2.4980    0.0589 H   0  0  0  0  0  0  0  0  0  0  0  0
    2.8538   -4.1816    0.6166 H   0  0  0  0  0  0  0  0  0  0  0  0
    0.9758   -0.5952    1.0708 N   0  0  0  0  0  0  0  0  0  0  0  0
    0.3258    0.6374    0.7059 C   0  0  2  0  0  0  0  0  0  0  0  0
    0.8737    1.0600   -0.6531 C   0  0  0  0  0  0  0  0  0  0  0  0
    0.5770    0.4905   -1.7014 O   0  0  0  0  0  0  0  0  0  0  0  0
    0.5633    1.7409    1.7438 C   0  0  0  0  0  0  0  0  0  0  0  0
   -0.1010    1.4626    3.0915 C   0  0  0  0  0  0  0  0  0  0  0  0
    0.1168    2.5156    4.1831 C   0  0  0  0  0  0  0  0  0  0  0  0
    0.9402    3.4240    3.8727 O   0  5  0  0  0  0  0  0  0  0  0  0
   -0.5500    2.3681    5.2442 O   0  0  0  0  0  0  0  0  0  0  0  0
    1.9288   -0.5463    1.4242 H   0  0  0  0  0  0  0  0  0  0  0  0
   -0.7407    0.4108    0.6006 H   0  0  0  0  0  0  0  0  0  0  0  0
    0.2105    2.7041    1.3549 H   0  0  0  0  0  0  0  0  0  0  0  0
    1.6429    1.8589    1.9072 H   0  0  0  0  0  0  0  0  0  0  0  0
   -1.1775    1.3066    2.9530 H   0  0  0  0  0  0  0  0  0  0  0  0
    0.3017    0.5217    3.4878 H   0  0  0  0  0  0  0  0  0  0  0  0
    1.7677    2.1166   -0.5495 N   0  0  0  0  0  0  0  0  0  0  0  0
    2.4368    2.6916   -1.6933 C   0  0  2  0  0  0  0  0  0  0  0  0
    3.6377    3.4804   -1.1882 C   0  0  0  0  0  0  0  0  0  0  0  0
    3.7225    3.9111   -0.0400 O   0  0  0  0  0  0  0  0  0  0  0  0
    1.4989    3.5824   -2.4930 C   0  0  0  0  0  0  0  0  0  0  0  0
    1.9416    2.5355    0.3593 H   0  0  0  0  0  0  0  0  0  0  0  0
    2.7820    1.8555   -2.3112 H   0  0  0  0  0  0  0  0  0  0  0  0
    1.1426    4.4258   -1.8904 H   0  0  0  0  0  0  0  0  0  0  0  0
    1.9994    3.9947   -3.3753 H   0  0  0  0  0  0  0  0  0  0  0  0
    0.6211    3.0206   -2.8302 H   0  0  0  0  0  0  0  0  0  0  0  0
    4.5843    3.6837   -2.1826 N   0  0  0  0  0  0  0  0  0  0  0  0
    5.8086    4.4155   -1.9556 C   0  0  0  0  0  0  0  0  0  0  0  0
    4.4401    3.2743   -3.1009 H   0  0  0  0  0  0  0  0  0  0  0  0
    5.6571    5.4739   -2.2142 H   0  0  0  0  0  0  0  0  0  0  0  0
    6.0933    4.3341   -0.8962 H   0  0  0  0  0  0  0  0  0  0  0  0
    6.6083    3.9957   -2.5835 H   0  0  0  0  0  0  0  0  0  0  0  0
  1  3  1  0  0  0  0
  1  7  1  0  0  0  0
  1  2  2  0  0  0  0
 33 34  1  0  0  0  0
 34 42  1  0  0  0  0
 34 35  2  0  0  0  0
  8  9  1  0  0  0  0
  9 17  1  0  0  0  0
  9 10  2  0  0  0  0
 18 19  1  0  0  0  0
 19 32  1  0  0  0  0
 19 20  2  0  0  0  0
 22 23  1  0  0  0  0
 23 24  1  0  0  0  0
 23 25  2  0  0  0  0
 33 36  1  0  0  0  0
  8 11  1  0  0  0  0
 42 43  1  0  0  0  0
 21 22  1  0  0  0  0
 18 21  1  0  0  0  0
 32 33  1  0  0  0  0
  7  8  1  0  0  0  0
 17 18  1  0  0  0  0
  3  4  1  0  0  0  0
  3  5  1  0  0  0  0
  3  6  1  0  0  0  0
 36 39  1  0  0  0  0
 36 40  1  0  0  0  0
 36 41  1  0  0  0  0
 11 14  1  0  0  0  0
 11 15  1  0  0  0  0
 11 16  1  0  0  0  0
 43 45  1  0  0  0  0
 43 46  1  0  0  0  0
 43 47  1  0  0  0  0
 22 30  1  0  0  0  0
 22 31  1  0  0  0  0
 21 28  1  0  0  0  0
 21 29  1  0  0  0  0
 33 38  1  0  0  0  0
  8 13  1  0  0  0  0
 18 27  1  0  0  0  0
 42 44  1  0  0  0  0
  7 12  1  0  0  0  0
 32 37  1  0  0  0  0
 17 26  1  0  0  0  0
M  CHG  1  24  -1
M  END
$$$$

  -OEChem-05262214473D

 47 46  0     1  0  0  0  0  0999 V2000
    0.5093   -4.7265    3.0306 C   0  0  0  0  0  0  0  0  0  0  0  0
    1.2735   -4.4402    3.9448 O   0  0  0  0  0  0  0  0  0  0  0  0
   -0.4465   -5.8608    3.1982 C   0  0  0  0  0  0  0  0  0  0  0  0
   -0.0219   -6.8213    2.8645 H   0  0  0  0  0  0  0  0  0  0  0  0
   -0.7314   -6.0185    4.2509 H   0  0  0  0  0  0  0  0  0  0  0  0
   -1.3983   -5.7596    2.6527 H   0  0  0  0  0  0  0  0  0  0  0  0
    0.4252   -4.0886    1.8040 N   0  0  0  0  0  0  0  0  0  0  0  0
    1.2532   -2.9707    1.4349 C   0  0  2  0  0  0  0  0  0  0  0  0
    0.3395   -1.8293    1.0083 C   0  0  0  0  0  0  0  0  0  0  0  0
   -0.8136   -2.0027    0.6194 O   0  0  0  0  0  0  0  0  0  0  0  0
    2.2176   -3.3411    0.3189 C   0  0  0  0  0  0  0  0  0  0  0  0
   -0.2574   -4.4279    1.1287 H   0  0  0  0  0  0  0  0  0  0  0  0
    1.8087   -2.6785    2.3327 H   0  0  0  0  0  0  0  0  0  0  0  0
    1.6793   -3.6366   -0.5890 H   0  0  0  0  0  0  0  0  0  0  0  0
    2.8662   -2.4980    0.0589 H   0  0  0  0  0  0  0  0  0  0  0  0
    2.8538   -4.1816    0.6166 H   0  0  0  0  0  0  0  0  0  0  0  0
    0.9758   -0.5952    1.0708 N   0  0  0  0  0  0  0  0  0  0  0  0
    0.3258    0.6374    0.7059 C   0  0  2  0  0  0  0  0  0  0  0  0
    0.8737    1.0600   -0.6531 C   0  0  0  0  0  0  0  0  0  0  0  0
    0.3887    0.6821   -1.7177 O   0  0  0  0  0  0  0  0  0  0  0  0
    0.5633    1.7409    1.7438 C   0  0  0  0  0  0  0  0  0  0  0  0
   -0.1010    1.4626    3.0915 C   0  0  0  0  0  0  0  0  0  0  0  0
    0.1168    2.5156    4.1831 C   0  0  0  0  0  0  0  0  0  0  0  0
    0.9402    3.4240    3.8727 O   0  5  0  0  0  0  0  0  0  0  0  0
   -0.5500    2.3681    5.2442 O   0  0  0  0  0  0  0  0  0  0  0  0
    1.9288   -0.5463    1.4242 H   0  0  0  0  0  0  0  0  0  0  0  0
   -0.7407    0.4108    0.6006 H   0  0  0  0  0  0  0  0  0  0  0  0
    0.2105    2.7041    1.3549 H   0  0  0  0  0  0  0  0  0  0  0  0
    1.6429    1.8589    1.9072 H   0  0  0  0  0  0  0  0  0  0  0  0
   -1.1775    1.3066    2.9530 H   0  0  0  0  0  0  0  0  0  0  0  0
    0.3017    0.5217    3.4878 H   0  0  0  0  0  0  0  0  0  0  0  0
    1.9947    1.8696   -0.5347 N   0  0  0  0  0  0  0  0  0  0  0  0
    2.7090    2.3905   -1.6772 C   0  0  2  0  0  0  0  0  0  0  0  0
    4.0896    2.8303   -1.2081 C   0  0  0  0  0  0  0  0  0  0  0  0
    4.3426    3.1119   -0.0386 O   0  0  0  0  0  0  0  0  0  0  0  0
    1.9588    3.5475   -2.3184 C   0  0  0  0  0  0  0  0  0  0  0  0
    2.3168    2.1438    0.3887 H   0  0  0  0  0  0  0  0  0  0  0  0
    2.8107    1.5649   -2.3900 H   0  0  0  0  0  0  0  0  0  0  0  0
    1.8471    4.3843   -1.6193 H   0  0  0  0  0  0  0  0  0  0  0  0
    2.4873    3.9226   -3.2011 H   0  0  0  0  0  0  0  0  0  0  0  0
    0.9550    3.2371   -2.6283 H   0  0  0  0  0  0  0  0  0  0  0  0
    4.9952    2.9130   -2.2566 N   0  0  0  0  0  0  0  0  0  0  0  0
    6.3683    3.3206   -2.0705 C   0  0  0  0  0  0  0  0  0  0  0  0
    4.7037    2.6424   -3.1912 H   0  0  0  0  0  0  0  0  0  0  0  0
    6.4532    4.4063   -2.2252 H   0  0  0  0  0  0  0  0  0  0  0  0
    6.6899    3.0696   -1.0489 H   0  0  0  0  0  0  0  0  0  0  0  0
    7.0078    2.7959   -2.7955 H   0  0  0  0  0  0  0  0  0  0  0  0
  1  3  1  0  0  0  0
  1  7  1  0  0  0  0
  1  2  2  0  0  0  0
 33 34  1  0  0  0  0
 34 42  1  0  0  0  0
 34 35  2  0  0  0  0
  8  9  1  0  0  0  0
  9 17  1  0  0  0  0
  9 10  2  0  0  0  0
 18 19  1  0  0  0  0
 19 32  1  0  0  0  0
 19 20  2  0  0  0  0
 22 23  1  0  0  0  0
 23 24  1  0  0  0  0
 23 25  2  0  0  0  0
 33 36  1  0  0  0  0
  8 11  1  0  0  0  0
 42 43  1  0  0  0  0
 21 22  1  0  0  0  0
 18 21  1  0  0  0  0
 32 33  1  0  0  0  0
  7  8  1  0  0  0  0
 17 18  1  0  0  0  0
  3  4  1  0  0  0  0
  3  5  1  0  0  0  0
  3  6  1  0  0  0  0
 36 39  1  0  0  0  0
 36 40  1  0  0  0  0
 36 41  1  0  0  0  0
 11 14  1  0  0  0  0
 11 15  1  0  0  0  0
 11 16  1  0  0  0  0
 43 45  1  0  0  0  0
 43 46  1  0  0  0  0
 43 47  1  0  0  0  0
 22 30  1  0  0  0  0
 22 31  1  0  0  0  0
 21 28  1  0  0  0  0
 21 29  1  0  0  0  0
 33 38  1  0  0  0  0
  8 13  1  0  0  0  0
 18 27  1  0  0  0  0
 42 44  1  0  0  0  0
  7 12  1  0  0  0  0
 32 37  1  0  0  0  0
 17 26  1  0  0  0  0
M  CHG  1  24  -1
M  END
$$$$

  -OEChem-05262214473D

 47 46  0     1  0  0  0  0  0999 V2000
    0.5093   -4.7265    3.0306 C   0  0  0  0  0  0  0  0  0  0  0  0
    1.2735   -4.4402    3.9448 O   0  0  0  0  0  0  0  0  0  0  0  0
   -0.4465   -5.8608    3.1982 C   0  0  0  0  0  0  0  0  0  0  0  0
   -0.0219   -6.8213    2.8645 H   0  0  0  0  0  0  0  0  0  0  0  0
   -0.7314   -6.0185    4.2509 H   0  0  0  0  0  0  0  0  0  0  0  0
   -1.3983   -5.7596    2.6527 H   0  0  0  0  0  0  0  0  0  0  0  0
    0.4252   -4.0886    1.8040 N   0  0  0  0  0  0  0  0  0  0  0  0
    1.2532   -2.9707    1.4349 C   0  0  2  0  0  0  0  0  0  0  0  0
    0.3395   -1.8293    1.0083 C   0  0  0  0  0  0  0  0  0  0  0  0
   -0.8136   -2.0027    0.6194 O   0  0  0  0  0  0  0  0  0  0  0  0
    2.2176   -3.3411    0.3189 C   0  0  0  0  0  0  0  0  0  0  0  0
   -0.2574   -4.4279    1.1287 H   0  0  0  0  0  0  0  0  0  0  0  0
    1.8087   -2.6785    2.3327 H   0  0  0  0  0  0  0  0  0  0  0  0
    1.6793   -3.6366   -0.5890 H   0  0  0  0  0  0  0  0  0  0  0  0
    2.8662   -2.4980    0.0589 H   0  0  0  0  0  0  0  0  0  0  0  0
    2.8538   -4.1816    0.6166 H   0  0  0  0  0  0  0  0  0  0  0  0
    0.9758   -0.5952    1.0708 N   0  0  0  0  0  0  0  0  0  0  0  0
    0.3258    0.6374    0.7059 C   0  0  2  0  0  0  0  0  0  0  0  0
    0.8737    1.0600   -0.6531 C   0  0  0  0  0  0  0  0  0  0  0  0
    0.2500    0.9122   -1.7021 O   0  0  0  0  0  0  0  0  0  0  0  0
    0.5633    1.7409    1.7438 C   0  0  0  0  0  0  0  0  0  0  0  0
   -0.1010    1.4626    3.0915 C   0  0  0  0  0  0  0  0  0  0  0  0
    0.1168    2.5156    4.1831 C   0  0  0  0  0  0  0  0  0  0  0  0
    0.9402    3.4240    3.8727 O   0  5  0  0  0  0  0  0  0  0  0  0
   -0.5500    2.3681    5.2442 O   0  0  0  0  0  0  0  0  0  0  0  0
    1.9288   -0.5463    1.4242 H   0  0  0  0  0  0  0  0  0  0  0  0
   -0.7407    0.4108    0.6006 H   0  0  0  0  0  0  0  0  0  0  0  0
    0.2105    2.7041    1.3549 H   0  0  0  0  0  0  0  0  0  0  0  0
    1.6429    1.8589    1.9072 H   0  0  0  0  0  0  0  0  0  0  0  0
   -1.1775    1.3066    2.9530 H   0  0  0  0  0  0  0  0  0  0  0  0
    0.3017    0.5217    3.4878 H   0  0  0  0  0  0  0  0  0  0  0  0
    2.1582    1.5774   -0.5597 N   0  0  0  0  0  0  0  0  0  0  0  0
    2.9037    2.0354   -1.7091 C   0  0  2  0  0  0  0  0  0  0  0  0
    4.3748    2.1001   -1.3202 C   0  0  0  0  0  0  0  0  0  0  0  0
    4.7572    2.1967   -0.1560 O   0  0  0  0  0  0  0  0  0  0  0  0
    2.4075    3.3915   -2.1860 C   0  0  0  0  0  0  0  0  0  0  0  0
    2.5909    1.6761    0.3539 H   0  0  0  0  0  0  0  0  0  0  0  0
    2.7658    1.2850   -2.4951 H   0  0  0  0  0  0  0  0  0  0  0  0
    2.5375    4.1564   -1.4118 H   0  0  0  0  0  0  0  0  0  0  0  0
    2.9544    3.7242   -3.0744 H   0  0  0  0  0  0  0  0  0  0  0  0
    1.3420    3.3504   -2.4370 H   0  0  0  0  0  0  0  0  0  0  0  0
    5.2091    2.0807   -2.4292 N   0  0  0  0  0  0  0  0  0  0  0  0
    6.6481    2.1445   -2.3234 C   0  0  0  0  0  0  0  0  0  0  0  0
    4.8060    1.9796   -3.3560 H   0  0  0  0  0  0  0  0  0  0  0  0
    6.9752    3.1925   -2.3922 H   0  0  0  0  0  0  0  0  0  0  0  0
    6.9635    1.7248   -1.3568 H   0  0  0  0  0  0  0  0  0  0  0  0
    7.1018    1.5645   -3.1405 H   0  0  0  0  0  0  0  0  0  0  0  0
  1  3  1  0  0  0  0
  1  7  1  0  0  0  0
  1  2  2  0  0  0  0
 33 34  1  0  0  0  0
 34 42  1  0  0  0  0
 34 35  2  0  0  0  0
  8  9  1  0  0  0  0
  9 17  1  0  0  0  0
  9 10  2  0  0  0  0
 18 19  1  0  0  0  0
 19 32  1  0  0  0  0
 19 20  2  0  0  0  0
 22 23  1  0  0  0  0
 23 24  1  0  0  0  0
 23 25  2  0  0  0  0
 33 36  1  0  0  0  0
  8 11  1  0  0  0  0
 42 43  1  0  0  0  0
 21 22  1  0  0  0  0
 18 21  1  0  0  0  0
 32 33  1  0  0  0  0
  7  8  1  0  0  0  0
 17 18  1  0  0  0  0
  3  4  1  0  0  0  0
  3  5  1  0  0  0  0
  3  6  1  0  0  0  0
 36 39  1  0  0  0  0
 36 40  1  0  0  0  0
 36 41  1  0  0  0  0
 11 14  1  0  0  0  0
 11 15  1  0  0  0  0
 11 16  1  0  0  0  0
 43 45  1  0  0  0  0
 43 46  1  0  0  0  0
 43 47  1  0  0  0  0
 22 30  1  0  0  0  0
 22 31  1  0  0  0  0
 21 28  1  0  0  0  0
 21 29  1  0  0  0  0
 33 38  1  0  0  0  0
  8 13  1  0  0  0  0
 18 27  1  0  0  0  0
 42 44  1  0  0  0  0
  7 12  1  0  0  0  0
 32 37  1  0  0  0  0
 17 26  1  0  0  0  0
M  CHG  1  24  -1
M  END
$$$$

  -OEChem-05262214473D

 47 46  0     1  0  0  0  0  0999 V2000
    0.5093   -4.7265    3.0306 C   0  0  0  0  0  0  0  0  0  0  0  0
    1.2735   -4.4402    3.9448 O   0  0  0  0  0  0  0  0  0  0  0  0
   -0.4465   -5.8608    3.1982 C   0  0  0  0  0  0  0  0  0  0  0  0
   -0.0219   -6.8213    2.8645 H   0  0  0  0  0  0  0  0  0  0  0  0
   -0.7314   -6.0185    4.2509 H   0  0  0  0  0  0  0  0  0  0  0  0
   -1.3983   -5.7596    2.6527 H   0  0  0  0  0  0  0  0  0  0  0  0
    0.4252   -4.0886    1.8040 N   0  0  0  0  0  0  0  0  0  0  0  0
    1.2532   -2.9707    1.4349 C   0  0  2  0  0  0  0  0  0  0  0  0
    0.3395   -1.8293    1.0083 C   0  0  0  0  0  0  0  0  0  0  0  0
   -0.8136   -2.0027    0.6194 O   0  0  0  0  0  0  0  0  0  0  0  0
    2.2176   -3.3411    0.3189 C   0  0  0  0  0  0  0  0  0  0  0  0
   -0.2574   -4.4279    1.1287 H   0  0  0  0  0  0  0  0  0  0  0  0
    1.8087   -2.6785    2.3327 H   0  0  0  0  0  0  0  0  0  0  0  0
    1.6793   -3.6366   -0.5890 H   0  0  0  0  0  0  0  0  0  0  0  0
    2.8662   -2.4980    0.0589 H   0  0  0  0  0  0  0  0  0  0  0  0
    2.8538   -4.1816    0.6166 H   0  0  0  0  0  0  0  0  0  0  0  0
    0.9758   -0.5952    1.0708 N   0  0  0  0  0  0  0  0  0  0  0  0
    0.3258    0.6374    0.7059 C   0  0  2  0  0  0  0  0  0  0  0  0
    0.8737    1.0600   -0.6531 C   0  0  0  0  0  0  0  0  0  0  0  0
    0.1701    1.1649   -1.6557 O   0  0  0  0  0  0  0  0  0  0  0  0
    0.5633    1.7409    1.7438 C   0  0  0  0  0  0  0  0  0  0  0  0
   -0.1010    1.4626    3.0915 C   0  0  0  0  0  0  0  0  0  0  0  0
    0.1168    2.5156    4.1831 C   0  0  0  0  0  0  0  0  0  0  0  0
    0.9402    3.4240    3.8727 O   0  5  0  0  0  0  0  0  0  0  0  0
   -0.5500    2.3681    5.2442 O   0  0  0  0  0  0  0  0  0  0  0  0
    1.9288   -0.5463    1.4242 H   0  0  0  0  0  0  0  0  0  0  0  0
   -0.7407    0.4108    0.6006 H   0  0  0  0  0  0  0  0  0  0  0  0
    0.2105    2.7041    1.3549 H   0  0  0  0  0  0  0  0  0  0  0  0
    1.6429    1.8589    1.9072 H   0  0  0  0  0  0  0  0  0  0  0  0
   -1.1775    1.3066    2.9530 H   0  0  0  0  0  0  0  0  0  0  0  0
    0.3017    0.5217    3.4878 H   0  0  0  0  0  0  0  0  0  0  0  0
    2.2468    1.2598   -0.6228 N   0  0  0  0  0  0  0  0  0  0  0  0
    3.0075    1.6505   -1.7870 C   0  0  2  0  0  0  0  0  0  0  0  0
    4.4737    1.3394   -1.5169 C   0  0  0  0  0  0  0  0  0  0  0  0
    4.9382    1.2280   -0.3842 O   0  0  0  0  0  0  0  0  0  0  0  0
    2.8144    3.1251   -2.1048 C   0  0  0  0  0  0  0  0  0  0  0  0
    2.7454    1.1643    0.2570 H   0  0  0  0  0  0  0  0  0  0  0  0
    2.6503    1.0347   -2.6195 H   0  0  0  0  0  0  0  0  0  0  0  0
    3.1667    3.7579   -1.2821 H   0  0  0  0  0  0  0  0  0  0  0  0
    3.3689    3.4131   -3.0040 H   0  0  0  0  0  0  0  0  0  0  0  0
    1.7557    3.3528   -2.2695 H   0  0  0  0  0  0  0  0  0  0  0  0
    5.2113    1.2434   -2.6886 N   0  0  0  0  0  0  0  0  0  0  0  0
    6.6290    0.9675   -2.6971 C   0  0  0  0  0  0  0  0  0  0  0  0
    4.7402    1.3311   -3.5842 H   0  0  0  0  0  0  0  0  0  0  0  0
    7.1875    1.9152   -2.7038 H   0  0  0  0  0  0  0  0  0  0  0  0
    6.8956    0.3913   -1.7988 H   0  0  0  0  0  0  0  0  0  0  0  0
    6.8838    0.3855   -3.5951 H   0  0  0  0  0  0  0  0  0  0  0  0
  1  3  1  0  0  0  0
  1  7  1  0  0  0  0
  1  2  2  0  0  0  0
 33 34  1  0  0  0  0
 34 42  1  0  0  0  0
 34 35  2  0  0  0  0
  8  9  1  0  0  0  0
  9 17  1  0  0  0  0
  9 10  2  0  0  0  0
 18 19  1  0  0  0  0
 19 32  1  0  0  0  0
 19 20  2  0  0  0  0
 22 23  1  0  0  0  0
 23 24  1  0  0  0  0
 23 25  2  0  0  0  0
 33 36  1  0  0  0  0
  8 11  1  0  0  0  0
 42 43  1  0  0  0  0
 21 22  1  0  0  0  0
 18 21  1  0  0  0  0
 32 33  1  0  0  0  0
  7  8  1  0  0  0  0
 17 18  1  0  0  0  0
  3  4  1  0  0  0  0
  3  5  1  0  0  0  0
  3  6  1  0  0  0  0
 36 39  1  0  0  0  0
 36 40  1  0  0  0  0
 36 41  1  0  0  0  0
 11 14  1  0  0  0  0
 11 15  1  0  0  0  0
 11 16  1  0  0  0  0
 43 45  1  0  0  0  0
 43 46  1  0  0  0  0
 43 47  1  0  0  0  0
 22 30  1  0  0  0  0
 22 31  1  0  0  0  0
 21 28  1  0  0  0  0
 21 29  1  0  0  0  0
 33 38  1  0  0  0  0
  8 13  1  0  0  0  0
 18 27  1  0  0  0  0
 42 44  1  0  0  0  0
  7 12  1  0  0  0  0
 32 37  1  0  0  0  0
 17 26  1  0  0  0  0
M  CHG  1  24  -1
M  END
$$$$

  -OEChem-05262214473D

 47 46  0     1  0  0  0  0  0999 V2000
    0.5093   -4.7265    3.0306 C   0  0  0  0  0  0  0  0  0  0  0  0
    1.2735   -4.4402    3.9448 O   0  0  0  0  0  0  0  0  0  0  0  0
   -0.4465   -5.8608    3.1982 C   0  0  0  0  0  0  0  0  0  0  0  0
   -0.0219   -6.8213    2.8645 H   0  0  0  0  0  0  0  0  0  0  0  0
   -0.7314   -6.0185    4.2509 H   0  0  0  0  0  0  0  0  0  0  0  0
   -1.3983   -5.7596    2.6527 H   0  0  0  0  0  0  0  0  0  0  0  0
    0.4252   -4.0886    1.8040 N   0  0  0  0  0  0  0  0  0  0  0  0
    1.2532   -2.9707    1.4349 C   0  0  2  0  0  0  0  0  0  0  0  0
    0.3395   -1.8293    1.0083 C   0  0  0  0  0  0  0  0  0  0  0  0
   -0.8136   -2.0027    0.6194 O   0  0  0  0  0  0  0  0  0  0  0  0
    2.2176   -3.3411    0.3189 C   0  0  0  0  0  0  0  0  0  0  0  0
   -0.2574   -4.4279    1.1287 H   0  0  0  0  0  0  0  0  0  0  0  0
    1.8087   -2.6785    2.3327 H   0  0  0  0  0  0  0  0  0  0  0  0
    1.6793   -3.6366   -0.5890 H   0  0  0  0  0  0  0  0  0  0  0  0
    2.8662   -2.4980    0.0589 H   0  0  0  0  0  0  0  0  0  0  0  0
    2.8538   -4.1816    0.6166 H   0  0  0  0  0  0  0  0  0  0  0  0
    0.9758   -0.5952    1.0708 N   0  0  0  0  0  0  0  0  0  0  0  0
    0.3258    0.6374    0.7059 C   0  0  2  0  0  0  0  0  0  0  0  0
    0.8737    1.0600   -0.6531 C   0  0  0  0  0  0  0  0  0  0  0  0
    0.1546    1.4232   -1.5817 O   0  0  0  0  0  0  0  0  0  0  0  0
    0.5633    1.7409    1.7438 C   0  0  0  0  0  0  0  0  0  0  0  0
   -0.1010    1.4626    3.0915 C   0  0  0  0  0  0  0  0  0  0  0  0
    0.1168    2.5156    4.1831 C   0  0  0  0  0  0  0  0  0  0  0  0
    0.9402    3.4240    3.8727 O   0  5  0  0  0  0  0  0  0  0  0  0
   -0.5500    2.3681    5.2442 O   0  0  0  0  0  0  0  0  0  0  0  0
    1.9288   -0.5463    1.4242 H   0  0  0  0  0  0  0  0  0  0  0  0
   -0.7407    0.4108    0.6006 H   0  0  0  0  0  0  0  0  0  0  0  0
    0.2105    2.7041    1.3549 H   0  0  0  0  0  0  0  0  0  0  0  0
    1.6429    1.8589    1.9072 H   0  0  0  0  0  0  0  0  0  0  0  0
   -1.1775    1.3066    2.9530 H   0  0  0  0  0  0  0  0  0  0  0  0
    0.3017    0.5217    3.4878 H   0  0  0  0  0  0  0  0  0  0  0  0
    2.2547    0.9383   -0.7196 N   0  0  0  0  0  0  0  0  0  0  0  0
    3.0135    1.2620   -1.9054 C   0  0  2  0  0  0  0  0  0  0  0  0
    4.3798    0.6001   -1.7847 C   0  0  0  0  0  0  0  0  0  0  0  0
    4.8733    0.2718   -0.7078 O   0  0  0  0  0  0  0  0  0  0  0  0
    3.1518    2.7663   -2.0804 C   0  0  0  0  0  0  0  0  0  0  0  0
    2.7696    0.6434    0.1048 H   0  0  0  0  0  0  0  0  0  0  0  0
    2.4720    0.8311   -2.7547 H   0  0  0  0  0  0  0  0  0  0  0  0
    3.6918    3.2157   -1.2390 H   0  0  0  0  0  0  0  0  0  0  0  0
    3.7026    3.0104   -2.9947 H   0  0  0  0  0  0  0  0  0  0  0  0
    2.1678    3.2442   -2.1371 H   0  0  0  0  0  0  0  0  0  0  0  0
    5.0017    0.4583   -3.0172 N   0  0  0  0  0  0  0  0  0  0  0  0
    6.3123   -0.1302   -3.1661 C   0  0  0  0  0  0  0  0  0  0  0  0
    4.5106    0.7411   -3.8602 H   0  0  0  0  0  0  0  0  0  0  0  0
    7.0755    0.6614   -3.1388 H   0  0  0  0  0  0  0  0  0  0  0  0
    6.4907   -0.8400   -2.3449 H   0  0  0  0  0  0  0  0  0  0  0  0
    6.3687   -0.6608   -4.1281 H   0  0  0  0  0  0  0  0  0  0  0  0
  1  3  1  0  0  0  0
  1  7  1  0  0  0  0
  1  2  2  0  0  0  0
 33 34  1  0  0  0  0
 34 42  1  0  0  0  0
 34 35  2  0  0  0  0
  8  9  1  0  0  0  0
  9 17  1  0  0  0  0
  9 10  2  0  0  0  0
 18 19  1  0  0  0  0
 19 32  1  0  0  0  0
 19 20  2  0  0  0  0
 22 23  1  0  0  0  0
 23 24  1  0  0  0  0
 23 25  2  0  0  0  0
 33 36  1  0  0  0  0
  8 11  1  0  0  0  0
 42 43  1  0  0  0  0
 21 22  1  0  0  0  0
 18 21  1  0  0  0  0
 32 33  1  0  0  0  0
  7  8  1  0  0  0  0
 17 18  1  0  0  0  0
  3  4  1  0  0  0  0
  3  5  1  0  0  0  0
  3  6  1  0  0  0  0
 36 39  1  0  0  0  0
 36 40  1  0  0  0  0
 36 41  1  0  0  0  0
 11 14  1  0  0  0  0
 11 15  1  0  0  0  0
 11 16  1  0  0  0  0
 43 45  1  0  0  0  0
 43 46  1  0  0  0  0
 43 47  1  0  0  0  0
 22 30  1  0  0  0  0
 22 31  1  0  0  0  0
 21 28  1  0  0  0  0
 21 29  1  0  0  0  0
 33 38  1  0  0  0  0
  8 13  1  0  0  0  0
 18 27  1  0  0  0  0
 42 44  1  0  0  0  0
  7 12  1  0  0  0  0
 32 37  1  0  0  0  0
 17 26  1  0  0  0  0
M  CHG  1  24  -1
M  END
$$$$

  -OEChem-05262214473D

 47 46  0     1  0  0  0  0  0999 V2000
    0.5093   -4.7265    3.0306 C   0  0  0  0  0  0  0  0  0  0  0  0
    1.2735   -4.4402    3.9448 O   0  0  0  0  0  0  0  0  0  0  0  0
   -0.4465   -5.8608    3.1982 C   0  0  0  0  0  0  0  0  0  0  0  0
   -0.0219   -6.8213    2.8645 H   0  0  0  0  0  0  0  0  0  0  0  0
   -0.7314   -6.0185    4.2509 H   0  0  0  0  0  0  0  0  0  0  0  0
   -1.3983   -5.7596    2.6527 H   0  0  0  0  0  0  0  0  0  0  0  0
    0.4252   -4.0886    1.8040 N   0  0  0  0  0  0  0  0  0  0  0  0
    1.2532   -2.9707    1.4349 C   0  0  2  0  0  0  0  0  0  0  0  0
    0.3395   -1.8293    1.0083 C   0  0  0  0  0  0  0  0  0  0  0  0
   -0.8136   -2.0027    0.6194 O   0  0  0  0  0  0  0  0  0  0  0  0
    2.2176   -3.3411    0.3189 C   0  0  0  0  0  0  0  0  0  0  0  0
   -0.2574   -4.4279    1.1287 H   0  0  0  0  0  0  0  0  0  0  0  0
    1.8087   -2.6785    2.3327 H   0  0  0  0  0  0  0  0  0  0  0  0
    1.6793   -3.6366   -0.5890 H   0  0  0  0  0  0  0  0  0  0  0  0
    2.8662   -2.4980    0.0589 H   0  0  0  0  0  0  0  0  0  0  0  0
    2.8538   -4.1816    0.6166 H   0  0  0  0  0  0  0  0  0  0  0  0
    0.9758   -0.5952    1.0708 N   0  0  0  0  0  0  0  0  0  0  0  0
    0.3258    0.6374    0.7059 C   0  0  2  0  0  0  0  0  0  0  0  0
    0.8737    1.0600   -0.6531 C   0  0  0  0  0  0  0  0  0  0  0  0
    0.2044    1.6693   -1.4850 O   0  0  0  0  0  0  0  0  0  0  0  0
    0.5633    1.7409    1.7438 C   0  0  0  0  0  0  0  0  0  0  0  0
   -0.1010    1.4626    3.0915 C   0  0  0  0  0  0  0  0  0  0  0  0
    0.1168    2.5156    4.1831 C   0  0  0  0  0  0  0  0  0  0  0  0
    0.9402    3.4240    3.8727 O   0  5  0  0  0  0  0  0  0  0  0  0
   -0.5500    2.3681    5.2442 O   0  0  0  0  0  0  0  0  0  0  0  0
    1.9288   -0.5463    1.4242 H   0  0  0  0  0  0  0  0  0  0  0  0
   -0.7407    0.4108    0.6006 H   0  0  0  0  0  0  0  0  0  0  0  0
    0.2105    2.7041    1.3549 H   0  0  0  0  0  0  0  0  0  0  0  0
    1.6429    1.8589    1.9072 H   0  0  0  0  0  0  0  0  0  0  0  0
   -1.1775    1.3066    2.9530 H   0  0  0  0  0  0  0  0  0  0  0  0
    0.3017    0.5217    3.4878 H   0  0  0  0  0  0  0  0  0  0  0  0
    2.1812    0.6351   -0.8435 N   0  0  0  0  0  0  0  0  0  0  0  0
    2.9211    0.8963   -2.0563 C   0  0  2  0  0  0  0  0  0  0  0  0
    4.0993   -0.0675   -2.1054 C   0  0  0  0  0  0  0  0  0  0  0  0
    4.5668   -0.6068   -1.1045 O   0  0  0  0  0  0  0  0  0  0  0  0
    3.3968    2.3396   -2.1143 C   0  0  0  0  0  0  0  0  0  0  0  0
    2.6620    0.1488   -0.0924 H   0  0  0  0  0  0  0  0  0  0  0  0
    2.2433    0.6882   -2.8914 H   0  0  0  0  0  0  0  0  0  0  0  0
    4.0770    2.5669   -1.2854 H   0  0  0  0  0  0  0  0  0  0  0  0
    3.9327    2.5436   -3.0471 H   0  0  0  0  0  0  0  0  0  0  0  0
    2.5504    3.0318   -2.0489 H   0  0  0  0  0  0  0  0  0  0  0  0
    4.5947   -0.2211   -3.3926 N   0  0  0  0  0  0  0  0  0  0  0  0
    5.7195   -1.0739   -3.6986 C   0  0  0  0  0  0  0  0  0  0  0  0
    4.1331    0.2498   -4.1652 H   0  0  0  0  0  0  0  0  0  0  0  0
    6.6471   -0.4834   -3.6676 H   0  0  0  0  0  0  0  0  0  0  0  0
    5.7765   -1.8852   -2.9579 H   0  0  0  0  0  0  0  0  0  0  0  0
    5.5915   -1.5030   -4.7033 H   0  0  0  0  0  0  0  0  0  0  0  0
  1  3  1  0  0  0  0
  1  7  1  0  0  0  0
  1  2  2  0  0  0  0
 33 34  1  0  0  0  0
 34 42  1  0  0  0  0
 34 35  2  0  0  0  0
  8  9  1  0  0  0  0
  9 17  1  0  0  0  0
  9 10  2  0  0  0  0
 18 19  1  0  0  0  0
 19 32  1  0  0  0  0
 19 20  2  0  0  0  0
 22 23  1  0  0  0  0
 23 24  1  0  0  0  0
 23 25  2  0  0  0  0
 33 36  1  0  0  0  0
  8 11  1  0  0  0  0
 42 43  1  0  0  0  0
 21 22  1  0  0  0  0
 18 21  1  0  0  0  0
 32 33  1  0  0  0  0
  7  8  1  0  0  0  0
 17 18  1  0  0  0  0
  3  4  1  0  0  0  0
  3  5  1  0  0  0  0
  3  6  1  0  0  0  0
 36 39  1  0  0  0  0
 36 40  1  0  0  0  0
 36 41  1  0  0  0  0
 11 14  1  0  0  0  0
 11 15  1  0  0  0  0
 11 16  1  0  0  0  0
 43 45  1  0  0  0  0
 43 46  1  0  0  0  0
 43 47  1  0  0  0  0
 22 30  1  0  0  0  0
 22 31  1  0  0  0  0
 21 28  1  0  0  0  0
 21 29  1  0  0  0  0
 33 38  1  0  0  0  0
  8 13  1  0  0  0  0
 18 27  1  0  0  0  0
 42 44  1  0  0  0  0
  7 12  1  0  0  0  0
 32 37  1  0  0  0  0
 17 26  1  0  0  0  0
M  CHG  1  24  -1
M  END
$$$$

  -OEChem-05262214473D

 47 46  0     1  0  0  0  0  0999 V2000
    0.5093   -4.7265    3.0306 C   0  0  0  0  0  0  0  0  0  0  0  0
    1.2735   -4.4402    3.9448 O   0  0  0  0  0  0  0  0  0  0  0  0
   -0.4465   -5.8608    3.1982 C   0  0  0  0  0  0  0  0  0  0  0  0
   -0.0219   -6.8213    2.8645 H   0  0  0  0  0  0  0  0  0  0  0  0
   -0.7314   -6.0185    4.2509 H   0  0  0  0  0  0  0  0  0  0  0  0
   -1.3983   -5.7596    2.6527 H   0  0  0  0  0  0  0  0  0  0  0  0
    0.4252   -4.0886    1.8040 N   0  0  0  0  0  0  0  0  0  0  0  0
    1.2532   -2.9707    1.4349 C   0  0  2  0  0  0  0  0  0  0  0  0
    0.3395   -1.8293    1.0083 C   0  0  0  0  0  0  0  0  0  0  0  0
   -0.8136   -2.0027    0.6194 O   0  0  0  0  0  0  0  0  0  0  0  0
    2.2176   -3.3411    0.3189 C   0  0  0  0  0  0  0  0  0  0  0  0
   -0.2574   -4.4279    1.1287 H   0  0  0  0  0  0  0  0  0  0  0  0
    1.8087   -2.6785    2.3327 H   0  0  0  0  0  0  0  0  0  0  0  0
    1.6793   -3.6366   -0.5890 H   0  0  0  0  0  0  0  0  0  0  0  0
    2.8662   -2.4980    0.0589 H   0  0  0  0  0  0  0  0  0  0  0  0
    2.8538   -4.1816    0.6166 H   0  0  0  0  0  0  0  0  0  0  0  0
    0.9758   -0.5952    1.0708 N   0  0  0  0  0  0  0  0  0  0  0  0
    0.3258    0.6374    0.7059 C   0  0  2  0  0  0  0  0  0  0  0  0
    0.8737    1.0600   -0.6531 C   0  0  0  0  0  0  0  0  0  0  0  0
    0.3163    1.8866   -1.3724 O   0  0  0  0  0  0  0  0  0  0  0  0
    0.5633    1.7409    1.7438 C   0  0  0  0  0  0  0  0  0  0  0  0
   -0.1010    1.4626    3.0915 C   0  0  0  0  0  0  0  0  0  0  0  0
    0.1168    2.5156    4.1831 C   0  0  0  0  0  0  0  0  0  0  0  0
    0.9402    3.4240    3.8727 O   0  5  0  0  0  0  0  0  0  0  0  0
   -0.5500    2.3681    5.2442 O   0  0  0  0  0  0  0  0  0  0  0  0
    1.9288   -0.5463    1.4242 H   0  0  0  0  0  0  0  0  0  0  0  0
   -0.7407    0.4108    0.6006 H   0  0  0  0  0  0  0  0  0  0  0  0
    0.2105    2.7041    1.3549 H   0  0  0  0  0  0  0  0  0  0  0  0
    1.6429    1.8589    1.9072 H   0  0  0  0  0  0  0  0  0  0  0  0
   -1.1775    1.3066    2.9530 H   0  0  0  0  0  0  0  0  0  0  0  0
    0.3017    0.5217    3.4878 H   0  0  0  0  0  0  0  0  0  0  0  0
    2.0314    0.3706   -0.9861 N   0  0  0  0  0  0  0  0  0  0  0  0
    2.7367    0.5785   -2.2295 C   0  0  2  0  0  0  0  0  0  0  0  0
    3.6514   -0.6178   -2.4571 C   0  0  0  0  0  0  0  0  0  0  0  0
    4.0397   -1.3479   -1.5475 O   0  0  0  0  0  0  0  0  0  0  0  0
    3.5325    1.8742   -2.2043 C   0  0  0  0  0  0  0  0  0  0  0  0
    2.4297   -0.2858   -0.3212 H   0  0  0  0  0  0  0  0  0  0  0  0
    1.9795    0.6156   -3.0203 H   0  0  0  0  0  0  0  0  0  0  0  0
    4.2962    1.8556   -1.4182 H   0  0  0  0  0  0  0  0  0  0  0  0
    4.0436    2.0445   -3.1576 H   0  0  0  0  0  0  0  0  0  0  0  0
    2.8772    2.7303   -2.0109 H   0  0  0  0  0  0  0  0  0  0  0  0
    4.0178   -0.7486   -3.7892 N   0  0  0  0  0  0  0  0  0  0  0  0
    4.8911   -1.7992   -4.2581 C   0  0  0  0  0  0  0  0  0  0  0  0
    3.6332   -0.1092   -4.4784 H   0  0  0  0  0  0  0  0  0  0  0  0
    5.9312   -1.4412   -4.2540 H   0  0  0  0  0  0  0  0  0  0  0  0
    4.8016   -2.6730   -3.5959 H   0  0  0  0  0  0  0  0  0  0  0  0
    4.6054   -2.0838   -5.2815 H   0  0  0  0  0  0  0  0  0  0  0  0
  1  3  1  0  0  0  0
  1  7  1  0  0  0  0
  1  2  2  0  0  0  0
 33 34  1  0  0  0  0
 34 42  1  0  0  0  0
 34 35  2  0  0  0  0
  8  9  1  0  0  0  0
  9 17  1  0  0  0  0
  9 10  2  0  0  0  0
 18 19  1  0  0  0  0
 19 32  1  0  0  0  0
 19 20  2  0  0  0  0
 22 23  1  0  0  0  0
 23 24  1  0  0  0  0
 23 25  2  0  0  0  0
 33 36  1  0  0  0  0
  8 11  1  0  0  0  0
 42 43  1  0  0  0  0
 21 22  1  0  0  0  0
 18 21  1  0  0  0  0
 32 33  1  0  0  0  0
  7  8  1  0  0  0  0
 17 18  1  0  0  0  0
  3  4  1  0  0  0  0
  3  5  1  0  0  0  0
  3  6  1  0  0  0  0
 36 39  1  0  0  0  0
 36 40  1  0  0  0  0
 36 41  1  0  0  0  0
 11 14  1  0  0  0  0
 11 15  1  0  0  0  0
 11 16  1  0  0  0  0
 43 45  1  0  0  0  0
 43 46  1  0  0  0  0
 43 47  1  0  0  0  0
 22 30  1  0  0  0  0
 22 31  1  0  0  0  0
 21 28  1  0  0  0  0
 21 29  1  0  0  0  0
 33 38  1  0  0  0  0
  8 13  1  0  0  0  0
 18 27  1  0  0  0  0
 42 44  1  0  0  0  0
  7 12  1  0  0  0  0
 32 37  1  0  0  0  0
 17 26  1  0  0  0  0
M  CHG  1  24  -1
M  END
$$$$

  -OEChem-05262214473D

 47 46  0     1  0  0  0  0  0999 V2000
    0.5093   -4.7265    3.0306 C   0  0  0  0  0  0  0  0  0  0  0  0
    1.2735   -4.4402    3.9448 O   0  0  0  0  0  0  0  0  0  0  0  0
   -0.4465   -5.8608    3.1982 C   0  0  0  0  0  0  0  0  0  0  0  0
   -0.0219   -6.8213    2.8645 H   0  0  0  0  0  0  0  0  0  0  0  0
   -0.7314   -6.0185    4.2509 H   0  0  0  0  0  0  0  0  0  0  0  0
   -1.3983   -5.7596    2.6527 H   0  0  0  0  0  0  0  0  0  0  0  0
    0.4252   -4.0886    1.8040 N   0  0  0  0  0  0  0  0  0  0  0  0
    1.2532   -2.9707    1.4349 C   0  0  2  0  0  0  0  0  0  0  0  0
    0.3395   -1.8293    1.0083 C   0  0  0  0  0  0  0  0  0  0  0  0
   -0.8136   -2.0027    0.6194 O   0  0  0  0  0  0  0  0  0  0  0  0
    2.2176   -3.3411    0.3189 C   0  0  0  0  0  0  0  0  0  0  0  0
   -0.2574   -4.4279    1.1287 H   0  0  0  0  0  0  0  0  0  0  0  0
    1.8087   -2.6785    2.3327 H   0  0  0  0  0  0  0  0  0  0  0  0
    1.6793   -3.6366   -0.5890 H   0  0  0  0  0  0  0  0  0  0  0  0
    2.8662   -2.4980    0.0589 H   0  0  0  0  0  0  0  0  0  0  0  0
    2.8538   -4.1816    0.6166 H   0  0  0  0  0  0  0  0  0  0  0  0
    0.9758   -0.5952    1.0708 N   0  0  0  0  0  0  0  0  0  0  0  0
    0.3258    0.6374    0.7059 C   0  0  2  0  0  0  0  0  0  0  0  0
    0.8737    1.0600   -0.6531 C   0  0  0  0  0  0  0  0  0  0  0  0
    0.4826    2.0602   -1.2513 O   0  0  0  0  0  0  0  0  0  0  0  0
    0.5633    1.7409    1.7438 C   0  0  0  0  0  0  0  0  0  0  0  0
   -0.1010    1.4626    3.0915 C   0  0  0  0  0  0  0  0  0  0  0  0
    0.1168    2.5156    4.1831 C   0  0  0  0  0  0  0  0  0  0  0  0
    0.9402    3.4240    3.8727 O   0  5  0  0  0  0  0  0  0  0  0  0
   -0.5500    2.3681    5.2442 O   0  0  0  0  0  0  0  0  0  0  0  0
    1.9288   -0.5463    1.4242 H   0  0  0  0  0  0  0  0  0  0  0  0
   -0.7407    0.4108    0.6006 H   0  0  0  0  0  0  0  0  0  0  0  0
    0.2105    2.7041    1.3549 H   0  0  0  0  0  0  0  0  0  0  0  0
    1.6429    1.8589    1.9072 H   0  0  0  0  0  0  0  0  0  0  0  0
   -1.1775    1.3066    2.9530 H   0  0  0  0  0  0  0  0  0  0  0  0
    0.3017    0.5217    3.4878 H   0  0  0  0  0  0  0  0  0  0  0  0
    1.8154    0.1630   -1.1378 N   0  0  0  0  0  0  0  0  0  0  0  0
    2.4729    0.3301   -2.4131 C   0  0  2  0  0  0  0  0  0  0  0  0
    3.0666   -1.0133   -2.8158 C   0  0  0  0  0  0  0  0  0  0  0  0
    3.3278   -1.9009   -2.0065 O   0  0  0  0  0  0  0  0  0  0  0  0
    3.5498    1.4016   -2.3443 C   0  0  0  0  0  0  0  0  0  0  0  0
    2.0888   -0.6307   -0.5659 H   0  0  0  0  0  0  0  0  0  0  0  0
    1.6987    0.6183   -3.1326 H   0  0  0  0  0  0  0  0  0  0  0  0
    4.3343    1.1304   -1.6284 H   0  0  0  0  0  0  0  0  0  0  0  0
    4.0276    1.5471   -3.3187 H   0  0  0  0  0  0  0  0  0  0  0  0
    3.1261    2.3601   -2.0257 H   0  0  0  0  0  0  0  0  0  0  0  0
    3.3105   -1.0882   -4.1800 N   0  0  0  0  0  0  0  0  0  0  0  0
    3.8835   -2.2566   -4.8066 C   0  0  0  0  0  0  0  0  0  0  0  0
    3.0450   -0.3117   -4.7785 H   0  0  0  0  0  0  0  0  0  0  0  0
    4.9768   -2.1467   -4.8582 H   0  0  0  0  0  0  0  0  0  0  0  0
    3.6324   -3.1498   -4.2156 H   0  0  0  0  0  0  0  0  0  0  0  0
    3.4774   -2.3637   -5.8232 H   0  0  0  0  0  0  0  0  0  0  0  0
  1  3  1  0  0  0  0
  1  7  1  0  0  0  0
  1  2  2  0  0  0  0
 33 34  1  0  0  0  0
 34 42  1  0  0  0  0
 34 35  2  0  0  0  0
  8  9  1  0  0  0  0
  9 17  1  0  0  0  0
  9 10  2  0  0  0  0
 18 19  1  0  0  0  0
 19 32  1  0  0  0  0
 19 20  2  0  0  0  0
 22 23  1  0  0  0  0
 23 24  1  0  0  0  0
 23 25  2  0  0  0  0
 33 36  1  0  0  0  0
  8 11  1  0  0  0  0
 42 43  1  0  0  0  0
 21 22  1  0  0  0  0
 18 21  1  0  0  0  0
 32 33  1  0  0  0  0
  7  8  1  0  0  0  0
 17 18  1  0  0  0  0
  3  4  1  0  0  0  0
  3  5  1  0  0  0  0
  3  6  1  0  0  0  0
 36 39  1  0  0  0  0
 36 40  1  0  0  0  0
 36 41  1  0  0  0  0
 11 14  1  0  0  0  0
 11 15  1  0  0  0  0
 11 16  1  0  0  0  0
 43 45  1  0  0  0  0
 43 46  1  0  0  0  0
 43 47  1  0  0  0  0
 22 30  1  0  0  0  0
 22 31  1  0  0  0  0
 21 28  1  0  0  0  0
 21 29  1  0  0  0  0
 33 38  1  0  0  0  0
  8 13  1  0  0  0  0
 18 27  1  0  0  0  0
 42 44  1  0  0  0  0
  7 12  1  0  0  0  0
 32 37  1  0  0  0  0
 17 26  1  0  0  0  0
M  CHG  1  24  -1
M  END
$$$$

  -OEChem-05262214473D

 47 46  0     1  0  0  0  0  0999 V2000
    0.5093   -4.7265    3.0306 C   0  0  0  0  0  0  0  0  0  0  0  0
    1.2735   -4.4402    3.9448 O   0  0  0  0  0  0  0  0  0  0  0  0
   -0.4465   -5.8608    3.1982 C   0  0  0  0  0  0  0  0  0  0  0  0
   -0.0219   -6.8213    2.8645 H   0  0  0  0  0  0  0  0  0  0  0  0
   -0.7314   -6.0185    4.2509 H   0  0  0  0  0  0  0  0  0  0  0  0
   -1.3983   -5.7596    2.6527 H   0  0  0  0  0  0  0  0  0  0  0  0
    0.4252   -4.0886    1.8040 N   0  0  0  0  0  0  0  0  0  0  0  0
    1.2532   -2.9707    1.4349 C   0  0  2  0  0  0  0  0  0  0  0  0
    0.3395   -1.8293    1.0083 C   0  0  0  0  0  0  0  0  0  0  0  0
   -0.8136   -2.0027    0.6194 O   0  0  0  0  0  0  0  0  0  0  0  0
    2.2176   -3.3411    0.3189 C   0  0  0  0  0  0  0  0  0  0  0  0
   -0.2574   -4.4279    1.1287 H   0  0  0  0  0  0  0  0  0  0  0  0
    1.8087   -2.6785    2.3327 H   0  0  0  0  0  0  0  0  0  0  0  0
    1.6793   -3.6366   -0.5890 H   0  0  0  0  0  0  0  0  0  0  0  0
    2.8662   -2.4980    0.0589 H   0  0  0  0  0  0  0  0  0  0  0  0
    2.8538   -4.1816    0.6166 H   0  0  0  0  0  0  0  0  0  0  0  0
    0.9758   -0.5952    1.0708 N   0  0  0  0  0  0  0  0  0  0  0  0
    0.3258    0.6374    0.7059 C   0  0  2  0  0  0  0  0  0  0  0  0
    0.8737    1.0600   -0.6531 C   0  0  0  0  0  0  0  0  0  0  0  0
    0.6919    2.1783   -1.1302 O   0  0  0  0  0  0  0  0  0  0  0  0
    0.5633    1.7409    1.7438 C   0  0  0  0  0  0  0  0  0  0  0  0
   -0.1010    1.4626    3.0915 C   0  0  0  0  0  0  0  0  0  0  0  0
    0.1168    2.5156    4.1831 C   0  0  0  0  0  0  0  0  0  0  0  0
    0.9402    3.4240    3.8727 O   0  5  0  0  0  0  0  0  0  0  0  0
   -0.5500    2.3681    5.2442 O   0  0  0  0  0  0  0  0  0  0  0  0
    1.9288   -0.5463    1.4242 H   0  0  0  0  0  0  0  0  0  0  0  0
   -0.7407    0.4108    0.6006 H   0  0  0  0  0  0  0  0  0  0  0  0
    0.2105    2.7041    1.3549 H   0  0  0  0  0  0  0  0  0  0  0  0
    1.6429    1.8589    1.9072 H   0  0  0  0  0  0  0  0  0  0  0  0
   -1.1775    1.3066    2.9530 H   0  0  0  0  0  0  0  0  0  0  0  0
    0.3017    0.5217    3.4878 H   0  0  0  0  0  0  0  0  0  0  0  0
    1.5481    0.0263   -1.2880 N   0  0  0  0  0  0  0  0  0  0  0  0
    2.1476    0.1681   -2.5946 C   0  0  2  0  0  0  0  0  0  0  0  0
    2.3848   -1.2272   -3.1572 C   0  0  0  0  0  0  0  0  0  0  0  0
    2.4797   -2.2283   -2.4502 O   0  0  0  0  0  0  0  0  0  0  0  0
    3.4475    0.9542   -2.5246 C   0  0  0  0  0  0  0  0  0  0  0  0
    1.6624   -0.8625   -0.8099 H   0  0  0  0  0  0  0  0  0  0  0  0
    1.4201    0.6962   -3.2208 H   0  0  0  0  0  0  0  0  0  0  0  0
    4.1888    0.4406   -1.9015 H   0  0  0  0  0  0  0  0  0  0  0  0
    3.8859    1.0853   -3.5194 H   0  0  0  0  0  0  0  0  0  0  0  0
    3.2801    1.9465   -2.0922 H   0  0  0  0  0  0  0  0  0  0  0  0
    2.5210   -1.2168   -4.5383 N   0  0  0  0  0  0  0  0  0  0  0  0
    2.7654   -2.4151   -5.3066 C   0  0  0  0  0  0  0  0  0  0  0  0
    2.4087   -0.3436   -5.0450 H   0  0  0  0  0  0  0  0  0  0  0  0
    3.8488   -2.5519   -5.4389 H   0  0  0  0  0  0  0  0  0  0  0  0
    2.3487   -3.2830   -4.7745 H   0  0  0  0  0  0  0  0  0  0  0  0
    2.2845   -2.3234   -6.2917 H   0  0  0  0  0  0  0  0  0  0  0  0
  1  3  1  0  0  0  0
  1  7  1  0  0  0  0
  1  2  2  0  0  0  0
 33 34  1  0  0  0  0
 34 42  1  0  0  0  0
 34 35  2  0  0  0  0
  8  9  1  0  0  0  0
  9 17  1  0  0  0  0
  9 10  2  0  0  0  0
 18 19  1  0  0  0  0
 19 32  1  0  0  0  0
 19 20  2  0  0  0  0
 22 23  1  0  0  0  0
 23 24  1  0  0  0  0
 23 25  2  0  0  0  0
 33 36  1  0  0  0  0
  8 11  1  0  0  0  0
 42 43  1  0  0  0  0
 21 22  1  0  0  0  0
 18 21  1  0  0  0  0
 32 33  1  0  0  0  0
  7  8  1  0  0  0  0
 17 18  1  0  0  0  0
  3  4  1  0  0  0  0
  3  5  1  0  0  0  0
  3  6  1  0  0  0  0
 36 39  1  0  0  0  0
 36 40  1  0  0  0  0
 36 41  1  0  0  0  0
 11 14  1  0  0  0  0
 11 15  1  0  0  0  0
 11 16  1  0  0  0  0
 43 45  1  0  0  0  0
 43 46  1  0  0  0  0
 43 47  1  0  0  0  0
 22 30  1  0  0  0  0
 22 31  1  0  0  0  0
 21 28  1  0  0  0  0
 21 29  1  0  0  0  0
 33 38  1  0  0  0  0
  8 13  1  0  0  0  0
 18 27  1  0  0  0  0
 42 44  1  0  0  0  0
  7 12  1  0  0  0  0
 32 37  1  0  0  0  0
 17 26  1  0  0  0  0
M  CHG  1  24  -1
M  END
$$$$

  -OEChem-05262214473D

 47 46  0     1  0  0  0  0  0999 V2000
    0.5093   -4.7265    3.0306 C   0  0  0  0  0  0  0  0  0  0  0  0
    1.2735   -4.4402    3.9448 O   0  0  0  0  0  0  0  0  0  0  0  0
   -0.4465   -5.8608    3.1982 C   0  0  0  0  0  0  0  0  0  0  0  0
   -0.0219   -6.8213    2.8645 H   0  0  0  0  0  0  0  0  0  0  0  0
   -0.7314   -6.0185    4.2509 H   0  0  0  0  0  0  0  0  0  0  0  0
   -1.3983   -5.7596    2.6527 H   0  0  0  0  0  0  0  0  0  0  0  0
    0.4252   -4.0886    1.8040 N   0  0  0  0  0  0  0  0  0  0  0  0
    1.2532   -2.9707    1.4349 C   0  0  2  0  0  0  0  0  0  0  0  0
    0.3395   -1.8293    1.0083 C   0  0  0  0  0  0  0  0  0  0  0  0
   -0.8136   -2.0027    0.6194 O   0  0  0  0  0  0  0  0  0  0  0  0
    2.2176   -3.3411    0.3189 C   0  0  0  0  0  0  0  0  0  0  0  0
   -0.2574   -4.4279    1.1287 H   0  0  0  0  0  0  0  0  0  0  0  0
    1.8087   -2.6785    2.3327 H   0  0  0  0  0  0  0  0  0  0  0  0
    1.6793   -3.6366   -0.5890 H   0  0  0  0  0  0  0  0  0  0  0  0
    2.8662   -2.4980    0.0589 H   0  0  0  0  0  0  0  0  0  0  0  0
    2.8538   -4.1816    0.6166 H   0  0  0  0  0  0  0  0  0  0  0  0
    0.9758   -0.5952    1.0708 N   0  0  0  0  0  0  0  0  0  0  0  0
    0.3258    0.6374    0.7059 C   0  0  2  0  0  0  0  0  0  0  0  0
    0.8737    1.0600   -0.6531 C   0  0  0  0  0  0  0  0  0  0  0  0
    0.9300    2.2328   -1.0173 O   0  0  0  0  0  0  0  0  0  0  0  0
    0.5633    1.7409    1.7438 C   0  0  0  0  0  0  0  0  0  0  0  0
   -0.1010    1.4626    3.0915 C   0  0  0  0  0  0  0  0  0  0  0  0
    0.1168    2.5156    4.1831 C   0  0  0  0  0  0  0  0  0  0  0  0
    0.9402    3.4240    3.8727 O   0  5  0  0  0  0  0  0  0  0  0  0
   -0.5500    2.3681    5.2442 O   0  0  0  0  0  0  0  0  0  0  0  0
    1.9288   -0.5463    1.4242 H   0  0  0  0  0  0  0  0  0  0  0  0
   -0.7407    0.4108    0.6006 H   0  0  0  0  0  0  0  0  0  0  0  0
    0.2105    2.7041    1.3549 H   0  0  0  0  0  0  0  0  0  0  0  0
    1.6429    1.8589    1.9072 H   0  0  0  0  0  0  0  0  0  0  0  0
   -1.1775    1.3066    2.9530 H   0  0  0  0  0  0  0  0  0  0  0  0
    0.3017    0.5217    3.4878 H   0  0  0  0  0  0  0  0  0  0  0  0
    1.2475   -0.0301   -1.4267 N   0  0  0  0  0  0  0  0  0  0  0  0
    1.7830    0.1035   -2.7617 C   0  0  2  0  0  0  0  0  0  0  0  0
    1.6524   -1.2447   -3.4579 C   0  0  0  0  0  0  0  0  0  0  0  0
    1.5532   -2.3076   -2.8484 O   0  0  0  0  0  0  0  0  0  0  0  0
    3.2326    0.5624   -2.7331 C   0  0  0  0  0  0  0  0  0  0  0  0
    1.1795   -0.9654   -1.0366 H   0  0  0  0  0  0  0  0  0  0  0  0
    1.1626    0.8438   -3.2787 H   0  0  0  0  0  0  0  0  0  0  0  0
    3.8695   -0.1667   -2.2191 H   0  0  0  0  0  0  0  0  0  0  0  0
    3.6282    0.6906   -3.7461 H   0  0  0  0  0  0  0  0  0  0  0  0
    3.3287    1.5177   -2.2060 H   0  0  0  0  0  0  0  0  0  0  0  0
    1.7030   -1.1256   -4.8397 N   0  0  0  0  0  0  0  0  0  0  0  0
    1.6130   -2.2638   -5.7242 C   0  0  0  0  0  0  0  0  0  0  0  0
    1.7676   -0.2030   -5.2597 H   0  0  0  0  0  0  0  0  0  0  0  0
    2.6242   -2.6291   -5.9567 H   0  0  0  0  0  0  0  0  0  0  0  0
    1.0379   -3.0637   -5.2348 H   0  0  0  0  0  0  0  0  0  0  0  0
    1.1079   -1.9658   -6.6548 H   0  0  0  0  0  0  0  0  0  0  0  0
  1  3  1  0  0  0  0
  1  7  1  0  0  0  0
  1  2  2  0  0  0  0
 33 34  1  0  0  0  0
 34 42  1  0  0  0  0
 34 35  2  0  0  0  0
  8  9  1  0  0  0  0
  9 17  1  0  0  0  0
  9 10  2  0  0  0  0
 18 19  1  0  0  0  0
 19 32  1  0  0  0  0
 19 20  2  0  0  0  0
 22 23  1  0  0  0  0
 23 24  1  0  0  0  0
 23 25  2  0  0  0  0
 33 36  1  0  0  0  0
  8 11  1  0  0  0  0
 42 43  1  0  0  0  0
 21 22  1  0  0  0  0
 18 21  1  0  0  0  0
 32 33  1  0  0  0  0
  7  8  1  0  0  0  0
 17 18  1  0  0  0  0
  3  4  1  0  0  0  0
  3  5  1  0  0  0  0
  3  6  1  0  0  0  0
 36 39  1  0  0  0  0
 36 40  1  0  0  0  0
 36 41  1  0  0  0  0
 11 14  1  0  0  0  0
 11 15  1  0  0  0  0
 11 16  1  0  0  0  0
 43 45  1  0  0  0  0
 43 46  1  0  0  0  0
 43 47  1  0  0  0  0
 22 30  1  0  0  0  0
 22 31  1  0  0  0  0
 21 28  1  0  0  0  0
 21 29  1  0  0  0  0
 33 38  1  0  0  0  0
  8 13  1  0  0  0  0
 18 27  1  0  0  0  0
 42 44  1  0  0  0  0
  7 12  1  0  0  0  0
 32 37  1  0  0  0  0
 17 26  1  0  0  0  0
M  CHG  1  24  -1
M  END
$$$$

  -OEChem-05262214473D

 47 46  0     1  0  0  0  0  0999 V2000
    0.5093   -4.7265    3.0306 C   0  0  0  0  0  0  0  0  0  0  0  0
    1.2735   -4.4402    3.9448 O   0  0  0  0  0  0  0  0  0  0  0  0
   -0.4465   -5.8608    3.1982 C   0  0  0  0  0  0  0  0  0  0  0  0
   -0.0219   -6.8213    2.8645 H   0  0  0  0  0  0  0  0  0  0  0  0
   -0.7314   -6.0185    4.2509 H   0  0  0  0  0  0  0  0  0  0  0  0
   -1.3983   -5.7596    2.6527 H   0  0  0  0  0  0  0  0  0  0  0  0
    0.4252   -4.0886    1.8040 N   0  0  0  0  0  0  0  0  0  0  0  0
    1.2532   -2.9707    1.4349 C   0  0  2  0  0  0  0  0  0  0  0  0
    0.3395   -1.8293    1.0083 C   0  0  0  0  0  0  0  0  0  0  0  0
   -0.8136   -2.0027    0.6194 O   0  0  0  0  0  0  0  0  0  0  0  0
    2.2176   -3.3411    0.3189 C   0  0  0  0  0  0  0  0  0  0  0  0
   -0.2574   -4.4279    1.1287 H   0  0  0  0  0  0  0  0  0  0  0  0
    1.8087   -2.6785    2.3327 H   0  0  0  0  0  0  0  0  0  0  0  0
    1.6793   -3.6366   -0.5890 H   0  0  0  0  0  0  0  0  0  0  0  0
    2.8662   -2.4980    0.0589 H   0  0  0  0  0  0  0  0  0  0  0  0
    2.8538   -4.1816    0.6166 H   0  0  0  0  0  0  0  0  0  0  0  0
    0.9758   -0.5952    1.0708 N   0  0  0  0  0  0  0  0  0  0  0  0
    0.3258    0.6374    0.7059 C   0  0  2  0  0  0  0  0  0  0  0  0
    0.8737    1.0600   -0.6531 C   0  0  0  0  0  0  0  0  0  0  0  0
    1.1806    2.2200   -0.9202 O   0  0  0  0  0  0  0  0  0  0  0  0
    0.5633    1.7409    1.7438 C   0  0  0  0  0  0  0  0  0  0  0  0
   -0.1010    1.4626    3.0915 C   0  0  0  0  0  0  0  0  0  0  0  0
    0.1168    2.5156    4.1831 C   0  0  0  0  0  0  0  0  0  0  0  0
    0.9402    3.4240    3.8727 O   0  5  0  0  0  0  0  0  0  0  0  0
   -0.5500    2.3681    5.2442 O   0  0  0  0  0  0  0  0  0  0  0  0
    1.9288   -0.5463    1.4242 H   0  0  0  0  0  0  0  0  0  0  0  0
   -0.7407    0.4108    0.6006 H   0  0  0  0  0  0  0  0  0  0  0  0
    0.2105    2.7041    1.3549 H   0  0  0  0  0  0  0  0  0  0  0  0
    1.6429    1.8589    1.9072 H   0  0  0  0  0  0  0  0  0  0  0  0
   -1.1775    1.3066    2.9530 H   0  0  0  0  0  0  0  0  0  0  0  0
    0.3017    0.5217    3.4878 H   0  0  0  0  0  0  0  0  0  0  0  0
    0.9343   -0.0023   -1.5444 N   0  0  0  0  0  0  0  0  0  0  0  0
    1.4039    0.1408   -2.9029 C   0  0  2  0  0  0  0  0  0  0  0  0
    0.9193   -1.0647   -3.6975 C   0  0  0  0  0  0  0  0  0  0  0  0
    0.6114   -2.1334   -3.1739 O   0  0  0  0  0  0  0  0  0  0  0  0
    2.9196    0.2529   -2.9555 C   0  0  0  0  0  0  0  0  0  0  0  0
    0.6731   -0.9323   -1.2305 H   0  0  0  0  0  0  0  0  0  0  0  0
    0.9438    1.0512   -3.3024 H   0  0  0  0  0  0  0  0  0  0  0  0
    3.3983   -0.6501   -2.5594 H   0  0  0  0  0  0  0  0  0  0  0  0
    3.2719    0.3899   -3.9832 H   0  0  0  0  0  0  0  0  0  0  0  0
    3.2685    1.1029   -2.3592 H   0  0  0  0  0  0  0  0  0  0  0  0
    0.9123   -0.8208   -5.0637 N   0  0  0  0  0  0  0  0  0  0  0  0
    0.5048   -1.8131   -6.0308 C   0  0  0  0  0  0  0  0  0  0  0  0
    1.1653    0.1007   -5.4081 H   0  0  0  0  0  0  0  0  0  0  0  0
    1.3863   -2.3730   -6.3761 H   0  0  0  0  0  0  0  0  0  0  0  0
   -0.2107   -2.5067   -5.5650 H   0  0  0  0  0  0  0  0  0  0  0  0
    0.0278   -1.3153   -6.8880 H   0  0  0  0  0  0  0  0  0  0  0  0
  1  3  1  0  0  0  0
  1  7  1  0  0  0  0
  1  2  2  0  0  0  0
 33 34  1  0  0  0  0
 34 42  1  0  0  0  0
 34 35  2  0  0  0  0
  8  9  1  0  0  0  0
  9 17  1  0  0  0  0
  9 10  2  0  0  0  0
 18 19  1  0  0  0  0
 19 32  1  0  0  0  0
 19 20  2  0  0  0  0
 22 23  1  0  0  0  0
 23 24  1  0  0  0  0
 23 25  2  0  0  0  0
 33 36  1  0  0  0  0
  8 11  1  0  0  0  0
 42 43  1  0  0  0  0
 21 22  1  0  0  0  0
 18 21  1  0  0  0  0
 32 33  1  0  0  0  0
  7  8  1  0  0  0  0
 17 18  1  0  0  0  0
  3  4  1  0  0  0  0
  3  5  1  0  0  0  0
  3  6  1  0  0  0  0
 36 39  1  0  0  0  0
 36 40  1  0  0  0  0
 36 41  1  0  0  0  0
 11 14  1  0  0  0  0
 11 15  1  0  0  0  0
 11 16  1  0  0  0  0
 43 45  1  0  0  0  0
 43 46  1  0  0  0  0
 43 47  1  0  0  0  0
 22 30  1  0  0  0  0
 22 31  1  0  0  0  0
 21 28  1  0  0  0  0
 21 29  1  0  0  0  0
 33 38  1  0  0  0  0
  8 13  1  0  0  0  0
 18 27  1  0  0  0  0
 42 44  1  0  0  0  0
  7 12  1  0  0  0  0
 32 37  1  0  0  0  0
 17 26  1  0  0  0  0
M  CHG  1  24  -1
M  END
$$$$

  -OEChem-05262214473D

 47 46  0     1  0  0  0  0  0999 V2000
    0.5093   -4.7265    3.0306 C   0  0  0  0  0  0  0  0  0  0  0  0
    1.2735   -4.4402    3.9448 O   0  0  0  0  0  0  0  0  0  0  0  0
   -0.4465   -5.8608    3.1982 C   0  0  0  0  0  0  0  0  0  0  0  0
   -0.0219   -6.8213    2.8645 H   0  0  0  0  0  0  0  0  0  0  0  0
   -0.7314   -6.0185    4.2509 H   0  0  0  0  0  0  0  0  0  0  0  0
   -1.3983   -5.7596    2.6527 H   0  0  0  0  0  0  0  0  0  0  0  0
    0.4252   -4.0886    1.8040 N   0  0  0  0  0  0  0  0  0  0  0  0
    1.2532   -2.9707    1.4349 C   0  0  2  0  0  0  0  0  0  0  0  0
    0.3395   -1.8293    1.0083 C   0  0  0  0  0  0  0  0  0  0  0  0
   -0.8136   -2.0027    0.6194 O   0  0  0  0  0  0  0  0  0  0  0  0
    2.2176   -3.3411    0.3189 C   0  0  0  0  0  0  0  0  0  0  0  0
   -0.2574   -4.4279    1.1287 H   0  0  0  0  0  0  0  0  0  0  0  0
    1.8087   -2.6785    2.3327 H   0  0  0  0  0  0  0  0  0  0  0  0
    1.6793   -3.6366   -0.5890 H   0  0  0  0  0  0  0  0  0  0  0  0
    2.8662   -2.4980    0.0589 H   0  0  0  0  0  0  0  0  0  0  0  0
    2.8538   -4.1816    0.6166 H   0  0  0  0  0  0  0  0  0  0  0  0
    0.9758   -0.5952    1.0708 N   0  0  0  0  0  0  0  0  0  0  0  0
    0.3258    0.6374    0.7059 C   0  0  2  0  0  0  0  0  0  0  0  0
    0.8737    1.0600   -0.6531 C   0  0  0  0  0  0  0  0  0  0  0  0
    1.4268    2.1408   -0.8456 O   0  0  0  0  0  0  0  0  0  0  0  0
    0.5633    1.7409    1.7438 C   0  0  0  0  0  0  0  0  0  0  0  0
   -0.1010    1.4626    3.0915 C   0  0  0  0  0  0  0  0  0  0  0  0
    0.1168    2.5156    4.1831 C   0  0  0  0  0  0  0  0  0  0  0  0
    0.9402    3.4240    3.8727 O   0  5  0  0  0  0  0  0  0  0  0  0
   -0.5500    2.3681    5.2442 O   0  0  0  0  0  0  0  0  0  0  0  0
    1.9288   -0.5463    1.4242 H   0  0  0  0  0  0  0  0  0  0  0  0
   -0.7407    0.4108    0.6006 H   0  0  0  0  0  0  0  0  0  0  0  0
    0.2105    2.7041    1.3549 H   0  0  0  0  0  0  0  0  0  0  0  0
    1.6429    1.8589    1.9072 H   0  0  0  0  0  0  0  0  0  0  0  0
   -1.1775    1.3066    2.9530 H   0  0  0  0  0  0  0  0  0  0  0  0
    0.3017    0.5217    3.4878 H   0  0  0  0  0  0  0  0  0  0  0  0
    0.6297    0.1077   -1.6330 N   0  0  0  0  0  0  0  0  0  0  0  0
    1.0362    0.2774   -3.0087 C   0  0  2  0  0  0  0  0  0  0  0  0
    0.2356   -0.6996   -3.8596 C   0  0  0  0  0  0  0  0  0  0  0  0
   -0.2815   -1.7178   -3.4046 O   0  0  0  0  0  0  0  0  0  0  0  0
    2.5300    0.0468   -3.1767 C   0  0  0  0  0  0  0  0  0  0  0  0
    0.1777   -0.7655   -1.3783 H   0  0  0  0  0  0  0  0  0  0  0  0
    0.7785    1.3041   -3.2904 H   0  0  0  0  0  0  0  0  0  0  0  0
    2.8073   -0.9767   -2.8992 H   0  0  0  0  0  0  0  0  0  0  0  0
    2.8414    0.2037   -4.2147 H   0  0  0  0  0  0  0  0  0  0  0  0
    3.1037    0.7303   -2.5415 H   0  0  0  0  0  0  0  0  0  0  0  0
    0.2027   -0.3231   -5.1950 N   0  0  0  0  0  0  0  0  0  0  0  0
   -0.4837   -1.0935   -6.2056 C   0  0  0  0  0  0  0  0  0  0  0  0
    0.6430    0.5468   -5.4799 H   0  0  0  0  0  0  0  0  0  0  0  0
    0.2197   -1.8012   -6.6687 H   0  0  0  0  0  0  0  0  0  0  0  0
   -1.3120   -1.6500   -5.7426 H   0  0  0  0  0  0  0  0  0  0  0  0
   -0.8821   -0.4161   -6.9753 H   0  0  0  0  0  0  0  0  0  0  0  0
  1  3  1  0  0  0  0
  1  7  1  0  0  0  0
  1  2  2  0  0  0  0
 33 34  1  0  0  0  0
 34 42  1  0  0  0  0
 34 35  2  0  0  0  0
  8  9  1  0  0  0  0
  9 17  1  0  0  0  0
  9 10  2  0  0  0  0
 18 19  1  0  0  0  0
 19 32  1  0  0  0  0
 19 20  2  0  0  0  0
 22 23  1  0  0  0  0
 23 24  1  0  0  0  0
 23 25  2  0  0  0  0
 33 36  1  0  0  0  0
  8 11  1  0  0  0  0
 42 43  1  0  0  0  0
 21 22  1  0  0  0  0
 18 21  1  0  0  0  0
 32 33  1  0  0  0  0
  7  8  1  0  0  0  0
 17 18  1  0  0  0  0
  3  4  1  0  0  0  0
  3  5  1  0  0  0  0
  3  6  1  0  0  0  0
 36 39  1  0  0  0  0
 36 40  1  0  0  0  0
 36 41  1  0  0  0  0
 11 14  1  0  0  0  0
 11 15  1  0  0  0  0
 11 16  1  0  0  0  0
 43 45  1  0  0  0  0
 43 46  1  0  0  0  0
 43 47  1  0  0  0  0
 22 30  1  0  0  0  0
 22 31  1  0  0  0  0
 21 28  1  0  0  0  0
 21 29  1  0  0  0  0
 33 38  1  0  0  0  0
  8 13  1  0  0  0  0
 18 27  1  0  0  0  0
 42 44  1  0  0  0  0
  7 12  1  0  0  0  0
 32 37  1  0  0  0  0
 17 26  1  0  0  0  0
M  CHG  1  24  -1
M  END
$$$$

  -OEChem-05262214473D

 47 46  0     1  0  0  0  0  0999 V2000
    0.5093   -4.7265    3.0306 C   0  0  0  0  0  0  0  0  0  0  0  0
    1.2735   -4.4402    3.9448 O   0  0  0  0  0  0  0  0  0  0  0  0
   -0.4465   -5.8608    3.1982 C   0  0  0  0  0  0  0  0  0  0  0  0
   -0.0219   -6.8213    2.8645 H   0  0  0  0  0  0  0  0  0  0  0  0
   -0.7314   -6.0185    4.2509 H   0  0  0  0  0  0  0  0  0  0  0  0
   -1.3983   -5.7596    2.6527 H   0  0  0  0  0  0  0  0  0  0  0  0
    0.4252   -4.0886    1.8040 N   0  0  0  0  0  0  0  0  0  0  0  0
    1.2532   -2.9707    1.4349 C   0  0  2  0  0  0  0  0  0  0  0  0
    0.3395   -1.8293    1.0083 C   0  0  0  0  0  0  0  0  0  0  0  0
   -0.8136   -2.0027    0.6194 O   0  0  0  0  0  0  0  0  0  0  0  0
    2.2176   -3.3411    0.3189 C   0  0  0  0  0  0  0  0  0  0  0  0
   -0.2574   -4.4279    1.1287 H   0  0  0  0  0  0  0  0  0  0  0  0
    1.8087   -2.6785    2.3327 H   0  0  0  0  0  0  0  0  0  0  0  0
    1.6793   -3.6366   -0.5890 H   0  0  0  0  0  0  0  0  0  0  0  0
    2.8662   -2.4980    0.0589 H   0  0  0  0  0  0  0  0  0  0  0  0
    2.8538   -4.1816    0.6166 H   0  0  0  0  0  0  0  0  0  0  0  0
    0.9758   -0.5952    1.0708 N   0  0  0  0  0  0  0  0  0  0  0  0
    0.3258    0.6374    0.7059 C   0  0  2  0  0  0  0  0  0  0  0  0
    0.8737    1.0600   -0.6531 C   0  0  0  0  0  0  0  0  0  0  0  0
    1.6516    2.0006   -0.7985 O   0  0  0  0  0  0  0  0  0  0  0  0
    0.5633    1.7409    1.7438 C   0  0  0  0  0  0  0  0  0  0  0  0
   -0.1010    1.4626    3.0915 C   0  0  0  0  0  0  0  0  0  0  0  0
    0.1168    2.5156    4.1831 C   0  0  0  0  0  0  0  0  0  0  0  0
    0.9402    3.4240    3.8727 O   0  5  0  0  0  0  0  0  0  0  0  0
   -0.5500    2.3681    5.2442 O   0  0  0  0  0  0  0  0  0  0  0  0
    1.9288   -0.5463    1.4242 H   0  0  0  0  0  0  0  0  0  0  0  0
   -0.7407    0.4108    0.6006 H   0  0  0  0  0  0  0  0  0  0  0  0
    0.2105    2.7041    1.3549 H   0  0  0  0  0  0  0  0  0  0  0  0
    1.6429    1.8589    1.9072 H   0  0  0  0  0  0  0  0  0  0  0  0
   -1.1775    1.3066    2.9530 H   0  0  0  0  0  0  0  0  0  0  0  0
    0.3017    0.5217    3.4878 H   0  0  0  0  0  0  0  0  0  0  0  0
    0.3545    0.2925   -1.6865 N   0  0  0  0  0  0  0  0  0  0  0  0
    0.7050    0.5039   -3.0718 C   0  0  2  0  0  0  0  0  0  0  0  0
   -0.3523   -0.1741   -3.9332 C   0  0  0  0  0  0  0  0  0  0  0  0
   -1.0646   -1.0889   -3.5248 O   0  0  0  0  0  0  0  0  0  0  0  0
    2.0903   -0.0418   -3.3816 C   0  0  0  0  0  0  0  0  0  0  0  0
   -0.2730   -0.4764   -1.4701 H   0  0  0  0  0  0  0  0  0  0  0  0
    0.6781    1.5855   -3.2433 H   0  0  0  0  0  0  0  0  0  0  0  0
    2.1366   -1.1243   -3.2155 H   0  0  0  0  0  0  0  0  0  0  0  0
    2.3660    0.1446   -4.4247 H   0  0  0  0  0  0  0  0  0  0  0  0
    2.8456    0.4254   -2.7404 H   0  0  0  0  0  0  0  0  0  0  0  0
   -0.3772    0.3334   -5.2247 N   0  0  0  0  0  0  0  0  0  0  0  0
   -1.2851   -0.1543   -6.2366 C   0  0  0  0  0  0  0  0  0  0  0  0
    0.2362    1.1048   -5.4704 H   0  0  0  0  0  0  0  0  0  0  0  0
   -0.7964   -0.9526   -6.8144 H   0  0  0  0  0  0  0  0  0  0  0  0
   -2.1908   -0.5520   -5.7555 H   0  0  0  0  0  0  0  0  0  0  0  0
   -1.5599    0.6704   -6.9107 H   0  0  0  0  0  0  0  0  0  0  0  0
  1  3  1  0  0  0  0
  1  7  1  0  0  0  0
  1  2  2  0  0  0  0
 33 34  1  0  0  0  0
 34 42  1  0  0  0  0
 34 35  2  0  0  0  0
  8  9  1  0  0  0  0
  9 17  1  0  0  0  0
  9 10  2  0  0  0  0
 18 19  1  0  0  0  0
 19 32  1  0  0  0  0
 19 20  2  0  0  0  0
 22 23  1  0  0  0  0
 23 24  1  0  0  0  0
 23 25  2  0  0  0  0
 33 36  1  0  0  0  0
  8 11  1  0  0  0  0
 42 43  1  0  0  0  0
 21 22  1  0  0  0  0
 18 21  1  0  0  0  0
 32 33  1  0  0  0  0
  7  8  1  0  0  0  0
 17 18  1  0  0  0  0
  3  4  1  0  0  0  0
  3  5  1  0  0  0  0
  3  6  1  0  0  0  0
 36 39  1  0  0  0  0
 36 40  1  0  0  0  0
 36 41  1  0  0  0  0
 11 14  1  0  0  0  0
 11 15  1  0  0  0  0
 11 16  1  0  0  0  0
 43 45  1  0  0  0  0
 43 46  1  0  0  0  0
 43 47  1  0  0  0  0
 22 30  1  0  0  0  0
 22 31  1  0  0  0  0
 21 28  1  0  0  0  0
 21 29  1  0  0  0  0
 33 38  1  0  0  0  0
  8 13  1  0  0  0  0
 18 27  1  0  0  0  0
 42 44  1  0  0  0  0
  7 12  1  0  0  0  0
 32 37  1  0  0  0  0
 17 26  1  0  0  0  0
M  CHG  1  24  -1
M  END
$$$$

  -OEChem-05262214473D

 47 46  0     1  0  0  0  0  0999 V2000
    0.5093   -4.7265    3.0306 C   0  0  0  0  0  0  0  0  0  0  0  0
    1.2735   -4.4402    3.9448 O   0  0  0  0  0  0  0  0  0  0  0  0
   -0.4465   -5.8608    3.1982 C   0  0  0  0  0  0  0  0  0  0  0  0
   -0.0219   -6.8213    2.8645 H   0  0  0  0  0  0  0  0  0  0  0  0
   -0.7314   -6.0185    4.2509 H   0  0  0  0  0  0  0  0  0  0  0  0
   -1.3983   -5.7596    2.6527 H   0  0  0  0  0  0  0  0  0  0  0  0
    0.4252   -4.0886    1.8040 N   0  0  0  0  0  0  0  0  0  0  0  0
    1.2532   -2.9707    1.4349 C   0  0  2  0  0  0  0  0  0  0  0  0
    0.3395   -1.8293    1.0083 C   0  0  0  0  0  0  0  0  0  0  0  0
   -0.8136   -2.0027    0.6194 O   0  0  0  0  0  0  0  0  0  0  0  0
    2.2176   -3.3411    0.3189 C   0  0  0  0  0  0  0  0  0  0  0  0
   -0.2574   -4.4279    1.1287 H   0  0  0  0  0  0  0  0  0  0  0  0
    1.8087   -2.6785    2.3327 H   0  0  0  0  0  0  0  0  0  0  0  0
    1.6793   -3.6366   -0.5890 H   0  0  0  0  0  0  0  0  0  0  0  0
    2.8662   -2.4980    0.0589 H   0  0  0  0  0  0  0  0  0  0  0  0
    2.8538   -4.1816    0.6166 H   0  0  0  0  0  0  0  0  0  0  0  0
    0.9758   -0.5952    1.0708 N   0  0  0  0  0  0  0  0  0  0  0  0
    0.3258    0.6374    0.7059 C   0  0  2  0  0  0  0  0  0  0  0  0
    0.8737    1.0600   -0.6531 C   0  0  0  0  0  0  0  0  0  0  0  0
    1.8399    1.8090   -0.7822 O   0  0  0  0  0  0  0  0  0  0  0  0
    0.5633    1.7409    1.7438 C   0  0  0  0  0  0  0  0  0  0  0  0
   -0.1010    1.4626    3.0915 C   0  0  0  0  0  0  0  0  0  0  0  0
    0.1168    2.5156    4.1831 C   0  0  0  0  0  0  0  0  0  0  0  0
    0.9402    3.4240    3.8727 O   0  5  0  0  0  0  0  0  0  0  0  0
   -0.5500    2.3681    5.2442 O   0  0  0  0  0  0  0  0  0  0  0  0
    1.9288   -0.5463    1.4242 H   0  0  0  0  0  0  0  0  0  0  0  0
   -0.7407    0.4108    0.6006 H   0  0  0  0  0  0  0  0  0  0  0  0
    0.2105    2.7041    1.3549 H   0  0  0  0  0  0  0  0  0  0  0  0
    1.6429    1.8589    1.9072 H   0  0  0  0  0  0  0  0  0  0  0  0
   -1.1775    1.3066    2.9530 H   0  0  0  0  0  0  0  0  0  0  0  0
    0.3017    0.5217    3.4878 H   0  0  0  0  0  0  0  0  0  0  0  0
    0.1274    0.5394   -1.7012 N   0  0  0  0  0  0  0  0  0  0  0  0
    0.4328    0.8050   -3.0879 C   0  0  2  0  0  0  0  0  0  0  0  0
   -0.8042    0.4760   -3.9132 C   0  0  0  0  0  0  0  0  0  0  0  0
   -1.6846   -0.2896   -3.5262 O   0  0  0  0  0  0  0  0  0  0  0  0
    1.6304   -0.0070   -3.5561 C   0  0  0  0  0  0  0  0  0  0  0  0
   -0.6482   -0.0846   -1.4996 H   0  0  0  0  0  0  0  0  0  0  0  0
    0.6494    1.8761   -3.1646 H   0  0  0  0  0  0  0  0  0  0  0  0
    1.4321   -1.0828   -3.4866 H   0  0  0  0  0  0  0  0  0  0  0  0
    1.8782    0.2167   -4.5990 H   0  0  0  0  0  0  0  0  0  0  0  0
    2.5116    0.2089   -2.9424 H   0  0  0  0  0  0  0  0  0  0  0  0
   -0.7882    1.1041   -5.1507 N   0  0  0  0  0  0  0  0  0  0  0  0
   -1.8448    0.9407   -6.1217 C   0  0  0  0  0  0  0  0  0  0  0  0
   -0.0273    1.7367   -5.3802 H   0  0  0  0  0  0  0  0  0  0  0  0
   -1.5925    0.1150   -6.8034 H   0  0  0  0  0  0  0  0  0  0  0  0
   -2.7874    0.7125   -5.6028 H   0  0  0  0  0  0  0  0  0  0  0  0
   -1.9594    1.8702   -6.6986 H   0  0  0  0  0  0  0  0  0  0  0  0
  1  3  1  0  0  0  0
  1  7  1  0  0  0  0
  1  2  2  0  0  0  0
 33 34  1  0  0  0  0
 34 42  1  0  0  0  0
 34 35  2  0  0  0  0
  8  9  1  0  0  0  0
  9 17  1  0  0  0  0
  9 10  2  0  0  0  0
 18 19  1  0  0  0  0
 19 32  1  0  0  0  0
 19 20  2  0  0  0  0
 22 23  1  0  0  0  0
 23 24  1  0  0  0  0
 23 25  2  0  0  0  0
 33 36  1  0  0  0  0
  8 11  1  0  0  0  0
 42 43  1  0  0  0  0
 21 22  1  0  0  0  0
 18 21  1  0  0  0  0
 32 33  1  0  0  0  0
  7  8  1  0  0  0  0
 17 18  1  0  0  0  0
  3  4  1  0  0  0  0
  3  5  1  0  0  0  0
  3  6  1  0  0  0  0
 36 39  1  0  0  0  0
 36 40  1  0  0  0  0
 36 41  1  0  0  0  0
 11 14  1  0  0  0  0
 11 15  1  0  0  0  0
 11 16  1  0  0  0  0
 43 45  1  0  0  0  0
 43 46  1  0  0  0  0
 43 47  1  0  0  0  0
 22 30  1  0  0  0  0
 22 31  1  0  0  0  0
 21 28  1  0  0  0  0
 21 29  1  0  0  0  0
 33 38  1  0  0  0  0
  8 13  1  0  0  0  0
 18 27  1  0  0  0  0
 42 44  1  0  0  0  0
  7 12  1  0  0  0  0
 32 37  1  0  0  0  0
 17 26  1  0  0  0  0
M  CHG  1  24  -1
M  END
$$$$

  -OEChem-05262214473D

 47 46  0     1  0  0  0  0  0999 V2000
    0.5093   -4.7265    3.0306 C   0  0  0  0  0  0  0  0  0  0  0  0
    1.2735   -4.4402    3.9448 O   0  0  0  0  0  0  0  0  0  0  0  0
   -0.4465   -5.8608    3.1982 C   0  0  0  0  0  0  0  0  0  0  0  0
   -0.0219   -6.8213    2.8645 H   0  0  0  0  0  0  0  0  0  0  0  0
   -0.7314   -6.0185    4.2509 H   0  0  0  0  0  0  0  0  0  0  0  0
   -1.3983   -5.7596    2.6527 H   0  0  0  0  0  0  0  0  0  0  0  0
    0.4252   -4.0886    1.8040 N   0  0  0  0  0  0  0  0  0  0  0  0
    1.2532   -2.9707    1.4349 C   0  0  2  0  0  0  0  0  0  0  0  0
    0.3395   -1.8293    1.0083 C   0  0  0  0  0  0  0  0  0  0  0  0
   -0.8136   -2.0027    0.6194 O   0  0  0  0  0  0  0  0  0  0  0  0
    2.2176   -3.3411    0.3189 C   0  0  0  0  0  0  0  0  0  0  0  0
   -0.2574   -4.4279    1.1287 H   0  0  0  0  0  0  0  0  0  0  0  0
    1.8087   -2.6785    2.3327 H   0  0  0  0  0  0  0  0  0  0  0  0
    1.6793   -3.6366   -0.5890 H   0  0  0  0  0  0  0  0  0  0  0  0
    2.8662   -2.4980    0.0589 H   0  0  0  0  0  0  0  0  0  0  0  0
    2.8538   -4.1816    0.6166 H   0  0  0  0  0  0  0  0  0  0  0  0
    0.9758   -0.5952    1.0708 N   0  0  0  0  0  0  0  0  0  0  0  0
    0.3258    0.6374    0.7059 C   0  0  2  0  0  0  0  0  0  0  0  0
    0.8737    1.0600   -0.6531 C   0  0  0  0  0  0  0  0  0  0  0  0
    1.9786    1.5790   -0.7978 O   0  0  0  0  0  0  0  0  0  0  0  0
    0.5633    1.7409    1.7438 C   0  0  0  0  0  0  0  0  0  0  0  0
   -0.1010    1.4626    3.0915 C   0  0  0  0  0  0  0  0  0  0  0  0
    0.1168    2.5156    4.1831 C   0  0  0  0  0  0  0  0  0  0  0  0
    0.9402    3.4240    3.8727 O   0  5  0  0  0  0  0  0  0  0  0  0
   -0.5500    2.3681    5.2442 O   0  0  0  0  0  0  0  0  0  0  0  0
    1.9288   -0.5463    1.4242 H   0  0  0  0  0  0  0  0  0  0  0  0
   -0.7407    0.4108    0.6006 H   0  0  0  0  0  0  0  0  0  0  0  0
    0.2105    2.7041    1.3549 H   0  0  0  0  0  0  0  0  0  0  0  0
    1.6429    1.8589    1.9072 H   0  0  0  0  0  0  0  0  0  0  0  0
   -1.1775    1.3066    2.9530 H   0  0  0  0  0  0  0  0  0  0  0  0
    0.3017    0.5217    3.4878 H   0  0  0  0  0  0  0  0  0  0  0  0
   -0.0360    0.8316   -1.6762 N   0  0  0  0  0  0  0  0  0  0  0  0
    0.2381    1.1601   -3.0560 C   0  0  2  0  0  0  0  0  0  0  0  0
   -1.0893    1.2062   -3.8011 C   0  0  0  0  0  0  0  0  0  0  0  0
   -2.0993    0.6256   -3.4088 O   0  0  0  0  0  0  0  0  0  0  0  0
    1.1817    0.1490   -3.6885 C   0  0  0  0  0  0  0  0  0  0  0  0
   -0.9224    0.3831   -1.4647 H   0  0  0  0  0  0  0  0  0  0  0  0
    0.6943    2.1560   -3.0594 H   0  0  0  0  0  0  0  0  0  0  0  0
    0.7418   -0.8550   -3.6941 H   0  0  0  0  0  0  0  0  0  0  0  0
    1.4110    0.4151   -4.7257 H   0  0  0  0  0  0  0  0  0  0  0  0
    2.1246    0.0956   -3.1337 H   0  0  0  0  0  0  0  0  0  0  0  0
   -1.0020    1.9364   -4.9781 N   0  0  0  0  0  0  0  0  0  0  0  0
   -2.1246    2.1167   -5.8688 C   0  0  0  0  0  0  0  0  0  0  0  0
   -0.1297    2.3995   -5.2153 H   0  0  0  0  0  0  0  0  0  0  0  0
   -2.1145    1.3288   -6.6364 H   0  0  0  0  0  0  0  0  0  0  0  0
   -3.0611    2.0574   -5.2949 H   0  0  0  0  0  0  0  0  0  0  0  0
   -2.0534    3.1016   -6.3536 H   0  0  0  0  0  0  0  0  0  0  0  0
  1  3  1  0  0  0  0
  1  7  1  0  0  0  0
  1  2  2  0  0  0  0
 33 34  1  0  0  0  0
 34 42  1  0  0  0  0
 34 35  2  0  0  0  0
  8  9  1  0  0  0  0
  9 17  1  0  0  0  0
  9 10  2  0  0  0  0
 18 19  1  0  0  0  0
 19 32  1  0  0  0  0
 19 20  2  0  0  0  0
 22 23  1  0  0  0  0
 23 24  1  0  0  0  0
 23 25  2  0  0  0  0
 33 36  1  0  0  0  0
  8 11  1  0  0  0  0
 42 43  1  0  0  0  0
 21 22  1  0  0  0  0
 18 21  1  0  0  0  0
 32 33  1  0  0  0  0
  7  8  1  0  0  0  0
 17 18  1  0  0  0  0
  3  4  1  0  0  0  0
  3  5  1  0  0  0  0
  3  6  1  0  0  0  0
 36 39  1  0  0  0  0
 36 40  1  0  0  0  0
 36 41  1  0  0  0  0
 11 14  1  0  0  0  0
 11 15  1  0  0  0  0
 11 16  1  0  0  0  0
 43 45  1  0  0  0  0
 43 46  1  0  0  0  0
 43 47  1  0  0  0  0
 22 30  1  0  0  0  0
 22 31  1  0  0  0  0
 21 28  1  0  0  0  0
 21 29  1  0  0  0  0
 33 38  1  0  0  0  0
  8 13  1  0  0  0  0
 18 27  1  0  0  0  0
 42 44  1  0  0  0  0
  7 12  1  0  0  0  0
 32 37  1  0  0  0  0
 17 26  1  0  0  0  0
M  CHG  1  24  -1
M  END
$$$$

  -OEChem-05262214473D

 47 46  0     1  0  0  0  0  0999 V2000
    0.5093   -4.7265    3.0306 C   0  0  0  0  0  0  0  0  0  0  0  0
    1.2735   -4.4402    3.9448 O   0  0  0  0  0  0  0  0  0  0  0  0
   -0.4465   -5.8608    3.1982 C   0  0  0  0  0  0  0  0  0  0  0  0
   -0.0219   -6.8213    2.8645 H   0  0  0  0  0  0  0  0  0  0  0  0
   -0.7314   -6.0185    4.2509 H   0  0  0  0  0  0  0  0  0  0  0  0
   -1.3983   -5.7596    2.6527 H   0  0  0  0  0  0  0  0  0  0  0  0
    0.4252   -4.0886    1.8040 N   0  0  0  0  0  0  0  0  0  0  0  0
    1.2532   -2.9707    1.4349 C   0  0  2  0  0  0  0  0  0  0  0  0
    0.3395   -1.8293    1.0083 C   0  0  0  0  0  0  0  0  0  0  0  0
   -0.8136   -2.0027    0.6194 O   0  0  0  0  0  0  0  0  0  0  0  0
    2.2176   -3.3411    0.3189 C   0  0  0  0  0  0  0  0  0  0  0  0
   -0.2574   -4.4279    1.1287 H   0  0  0  0  0  0  0  0  0  0  0  0
    1.8087   -2.6785    2.3327 H   0  0  0  0  0  0  0  0  0  0  0  0
    1.6793   -3.6366   -0.5890 H   0  0  0  0  0  0  0  0  0  0  0  0
    2.8662   -2.4980    0.0589 H   0  0  0  0  0  0  0  0  0  0  0  0
    2.8538   -4.1816    0.6166 H   0  0  0  0  0  0  0  0  0  0  0  0
    0.9758   -0.5952    1.0708 N   0  0  0  0  0  0  0  0  0  0  0  0
    0.3258    0.6374    0.7059 C   0  0  2  0  0  0  0  0  0  0  0  0
    0.8737    1.0600   -0.6531 C   0  0  0  0  0  0  0  0  0  0  0  0
    2.0585    1.3262   -0.8442 O   0  0  0  0  0  0  0  0  0  0  0  0
    0.5633    1.7409    1.7438 C   0  0  0  0  0  0  0  0  0  0  0  0
   -0.1010    1.4626    3.0915 C   0  0  0  0  0  0  0  0  0  0  0  0
    0.1168    2.5156    4.1831 C   0  0  0  0  0  0  0  0  0  0  0  0
    0.9402    3.4240    3.8727 O   0  5  0  0  0  0  0  0  0  0  0  0
   -0.5500    2.3681    5.2442 O   0  0  0  0  0  0  0  0  0  0  0  0
    1.9288   -0.5463    1.4242 H   0  0  0  0  0  0  0  0  0  0  0  0
   -0.7407    0.4108    0.6006 H   0  0  0  0  0  0  0  0  0  0  0  0
    0.2105    2.7041    1.3549 H   0  0  0  0  0  0  0  0  0  0  0  0
    1.6429    1.8589    1.9072 H   0  0  0  0  0  0  0  0  0  0  0  0
   -1.1775    1.3066    2.9530 H   0  0  0  0  0  0  0  0  0  0  0  0
    0.3017    0.5217    3.4878 H   0  0  0  0  0  0  0  0  0  0  0  0
   -0.1246    1.1493   -1.6132 N   0  0  0  0  0  0  0  0  0  0  0  0
    0.1343    1.5450   -2.9782 C   0  0  2  0  0  0  0  0  0  0  0  0
   -1.1883    1.9669   -3.6045 C   0  0  0  0  0  0  0  0  0  0  0  0
   -2.2803    1.5943   -3.1806 O   0  0  0  0  0  0  0  0  0  0  0  0
    0.7747    0.4154   -3.7697 C   0  0  0  0  0  0  0  0  0  0  0  0
   -1.0769    0.8948   -1.3678 H   0  0  0  0  0  0  0  0  0  0  0  0
    0.8098    2.4063   -2.9350 H   0  0  0  0  0  0  0  0  0  0  0  0
    0.1126   -0.4564   -3.8238 H   0  0  0  0  0  0  0  0  0  0  0  0
    0.9965    0.7262   -4.7960 H   0  0  0  0  0  0  0  0  0  0  0  0
    1.7109    0.0932   -3.3012 H   0  0  0  0  0  0  0  0  0  0  0  0
   -1.0043    2.7737   -4.7187 N   0  0  0  0  0  0  0  0  0  0  0  0
   -2.1055    3.2937   -5.4951 C   0  0  0  0  0  0  0  0  0  0  0  0
   -0.0638    3.0480   -4.9871 H   0  0  0  0  0  0  0  0  0  0  0  0
   -2.3268    2.6061   -6.3248 H   0  0  0  0  0  0  0  0  0  0  0  0
   -2.9932    3.3909   -4.8529 H   0  0  0  0  0  0  0  0  0  0  0  0
   -1.8354    4.2806   -5.8991 H   0  0  0  0  0  0  0  0  0  0  0  0
  1  3  1  0  0  0  0
  1  7  1  0  0  0  0
  1  2  2  0  0  0  0
 33 34  1  0  0  0  0
 34 42  1  0  0  0  0
 34 35  2  0  0  0  0
  8  9  1  0  0  0  0
  9 17  1  0  0  0  0
  9 10  2  0  0  0  0
 18 19  1  0  0  0  0
 19 32  1  0  0  0  0
 19 20  2  0  0  0  0
 22 23  1  0  0  0  0
 23 24  1  0  0  0  0
 23 25  2  0  0  0  0
 33 36  1  0  0  0  0
  8 11  1  0  0  0  0
 42 43  1  0  0  0  0
 21 22  1  0  0  0  0
 18 21  1  0  0  0  0
 32 33  1  0  0  0  0
  7  8  1  0  0  0  0
 17 18  1  0  0  0  0
  3  4  1  0  0  0  0
  3  5  1  0  0  0  0
  3  6  1  0  0  0  0
 36 39  1  0  0  0  0
 36 40  1  0  0  0  0
 36 41  1  0  0  0  0
 11 14  1  0  0  0  0
 11 15  1  0  0  0  0
 11 16  1  0  0  0  0
 43 45  1  0  0  0  0
 43 46  1  0  0  0  0
 43 47  1  0  0  0  0
 22 30  1  0  0  0  0
 22 31  1  0  0  0  0
 21 28  1  0  0  0  0
 21 29  1  0  0  0  0
 33 38  1  0  0  0  0
  8 13  1  0  0  0  0
 18 27  1  0  0  0  0
 42 44  1  0  0  0  0
  7 12  1  0  0  0  0
 32 37  1  0  0  0  0
 17 26  1  0  0  0  0
M  CHG  1  24  -1
M  END
$$$$

  -OEChem-05262214473D

 47 46  0     1  0  0  0  0  0999 V2000
    0.5093   -4.7265    3.0306 C   0  0  0  0  0  0  0  0  0  0  0  0
    1.2735   -4.4402    3.9448 O   0  0  0  0  0  0  0  0  0  0  0  0
   -0.4465   -5.8608    3.1982 C   0  0  0  0  0  0  0  0  0  0  0  0
   -0.0219   -6.8213    2.8645 H   0  0  0  0  0  0  0  0  0  0  0  0
   -0.7314   -6.0185    4.2509 H   0  0  0  0  0  0  0  0  0  0  0  0
   -1.3983   -5.7596    2.6527 H   0  0  0  0  0  0  0  0  0  0  0  0
    0.4252   -4.0886    1.8040 N   0  0  0  0  0  0  0  0  0  0  0  0
    1.2532   -2.9707    1.4349 C   0  0  2  0  0  0  0  0  0  0  0  0
    0.3395   -1.8293    1.0083 C   0  0  0  0  0  0  0  0  0  0  0  0
   -0.8136   -2.0027    0.6194 O   0  0  0  0  0  0  0  0  0  0  0  0
    2.2176   -3.3411    0.3189 C   0  0  0  0  0  0  0  0  0  0  0  0
   -0.2574   -4.4279    1.1287 H   0  0  0  0  0  0  0  0  0  0  0  0
    1.8087   -2.6785    2.3327 H   0  0  0  0  0  0  0  0  0  0  0  0
    1.6793   -3.6366   -0.5890 H   0  0  0  0  0  0  0  0  0  0  0  0
    2.8662   -2.4980    0.0589 H   0  0  0  0  0  0  0  0  0  0  0  0
    2.8538   -4.1816    0.6166 H   0  0  0  0  0  0  0  0  0  0  0  0
    0.9758   -0.5952    1.0708 N   0  0  0  0  0  0  0  0  0  0  0  0
    0.3258    0.6374    0.7059 C   0  0  2  0  0  0  0  0  0  0  0  0
    0.8737    1.0600   -0.6531 C   0  0  0  0  0  0  0  0  0  0  0  0
    2.0740    1.0680   -0.9183 O   0  0  0  0  0  0  0  0  0  0  0  0
    0.5633    1.7409    1.7438 C   0  0  0  0  0  0  0  0  0  0  0  0
   -0.1010    1.4626    3.0915 C   0  0  0  0  0  0  0  0  0  0  0  0
    0.1168    2.5156    4.1831 C   0  0  0  0  0  0  0  0  0  0  0  0
    0.9402    3.4240    3.8727 O   0  5  0  0  0  0  0  0  0  0  0  0
   -0.5500    2.3681    5.2442 O   0  0  0  0  0  0  0  0  0  0  0  0
    1.9288   -0.5463    1.4242 H   0  0  0  0  0  0  0  0  0  0  0  0
   -0.7407    0.4108    0.6006 H   0  0  0  0  0  0  0  0  0  0  0  0
    0.2105    2.7041    1.3549 H   0  0  0  0  0  0  0  0  0  0  0  0
    1.6429    1.8589    1.9072 H   0  0  0  0  0  0  0  0  0  0  0  0
   -1.1775    1.3066    2.9530 H   0  0  0  0  0  0  0  0  0  0  0  0
    0.3017    0.5217    3.4878 H   0  0  0  0  0  0  0  0  0  0  0  0
   -0.1325    1.4707   -1.5164 N   0  0  0  0  0  0  0  0  0  0  0  0
    0.1284    1.9335   -2.8597 C   0  0  2  0  0  0  0  0  0  0  0  0
   -1.0943    2.7062   -3.3367 C   0  0  0  0  0  0  0  0  0  0  0  0
   -2.2154    2.5505   -2.8570 O   0  0  0  0  0  0  0  0  0  0  0  0
    0.4373    0.7742   -3.7942 C   0  0  0  0  0  0  0  0  0  0  0  0
   -1.1011    1.4158   -1.2156 H   0  0  0  0  0  0  0  0  0  0  0  0
    0.9881    2.6099   -2.7999 H   0  0  0  0  0  0  0  0  0  0  0  0
   -0.4125    0.0858   -3.8669 H   0  0  0  0  0  0  0  0  0  0  0  0
    0.6628    1.1289   -4.8053 H   0  0  0  0  0  0  0  0  0  0  0  0
    1.2988    0.2018   -3.4336 H   0  0  0  0  0  0  0  0  0  0  0  0
   -0.7947    3.5588   -4.3900 N   0  0  0  0  0  0  0  0  0  0  0  0
   -1.7887    4.3914   -5.0261 C   0  0  0  0  0  0  0  0  0  0  0  0
    0.1657    3.6380   -4.7111 H   0  0  0  0  0  0  0  0  0  0  0  0
   -2.2148    3.8599   -5.8898 H   0  0  0  0  0  0  0  0  0  0  0  0
   -2.5883    4.6222   -4.3068 H   0  0  0  0  0  0  0  0  0  0  0  0
   -1.3202    5.3268   -5.3661 H   0  0  0  0  0  0  0  0  0  0  0  0
  1  3  1  0  0  0  0
  1  7  1  0  0  0  0
  1  2  2  0  0  0  0
 33 34  1  0  0  0  0
 34 42  1  0  0  0  0
 34 35  2  0  0  0  0
  8  9  1  0  0  0  0
  9 17  1  0  0  0  0
  9 10  2  0  0  0  0
 18 19  1  0  0  0  0
 19 32  1  0  0  0  0
 19 20  2  0  0  0  0
 22 23  1  0  0  0  0
 23 24  1  0  0  0  0
 23 25  2  0  0  0  0
 33 36  1  0  0  0  0
  8 11  1  0  0  0  0
 42 43  1  0  0  0  0
 21 22  1  0  0  0  0
 18 21  1  0  0  0  0
 32 33  1  0  0  0  0
  7  8  1  0  0  0  0
 17 18  1  0  0  0  0
  3  4  1  0  0  0  0
  3  5  1  0  0  0  0
  3  6  1  0  0  0  0
 36 39  1  0  0  0  0
 36 40  1  0  0  0  0
 36 41  1  0  0  0  0
 11 14  1  0  0  0  0
 11 15  1  0  0  0  0
 11 16  1  0  0  0  0
 43 45  1  0  0  0  0
 43 46  1  0  0  0  0
 43 47  1  0  0  0  0
 22 30  1  0  0  0  0
 22 31  1  0  0  0  0
 21 28  1  0  0  0  0
 21 29  1  0  0  0  0
 33 38  1  0  0  0  0
  8 13  1  0  0  0  0
 18 27  1  0  0  0  0
 42 44  1  0  0  0  0
  7 12  1  0  0  0  0
 32 37  1  0  0  0  0
 17 26  1  0  0  0  0
M  CHG  1  24  -1
M  END
$$$$

  -OEChem-05262214473D

 47 46  0     1  0  0  0  0  0999 V2000
    0.5093   -4.7265    3.0306 C   0  0  0  0  0  0  0  0  0  0  0  0
    1.2735   -4.4402    3.9448 O   0  0  0  0  0  0  0  0  0  0  0  0
   -0.4465   -5.8608    3.1982 C   0  0  0  0  0  0  0  0  0  0  0  0
   -0.0219   -6.8213    2.8645 H   0  0  0  0  0  0  0  0  0  0  0  0
   -0.7314   -6.0185    4.2509 H   0  0  0  0  0  0  0  0  0  0  0  0
   -1.3983   -5.7596    2.6527 H   0  0  0  0  0  0  0  0  0  0  0  0
    0.4252   -4.0886    1.8040 N   0  0  0  0  0  0  0  0  0  0  0  0
    1.2532   -2.9707    1.4349 C   0  0  2  0  0  0  0  0  0  0  0  0
    0.3395   -1.8293    1.0083 C   0  0  0  0  0  0  0  0  0  0  0  0
   -0.8136   -2.0027    0.6194 O   0  0  0  0  0  0  0  0  0  0  0  0
    2.2176   -3.3411    0.3189 C   0  0  0  0  0  0  0  0  0  0  0  0
   -0.2574   -4.4279    1.1287 H   0  0  0  0  0  0  0  0  0  0  0  0
    1.8087   -2.6785    2.3327 H   0  0  0  0  0  0  0  0  0  0  0  0
    1.6793   -3.6366   -0.5890 H   0  0  0  0  0  0  0  0  0  0  0  0
    2.8662   -2.4980    0.0589 H   0  0  0  0  0  0  0  0  0  0  0  0
    2.8538   -4.1816    0.6166 H   0  0  0  0  0  0  0  0  0  0  0  0
    0.9758   -0.5952    1.0708 N   0  0  0  0  0  0  0  0  0  0  0  0
    0.3258    0.6374    0.7059 C   0  0  2  0  0  0  0  0  0  0  0  0
    0.8737    1.0600   -0.6531 C   0  0  0  0  0  0  0  0  0  0  0  0
    2.0242    0.8218   -1.0149 O   0  0  0  0  0  0  0  0  0  0  0  0
    0.5633    1.7409    1.7438 C   0  0  0  0  0  0  0  0  0  0  0  0
   -0.1010    1.4626    3.0915 C   0  0  0  0  0  0  0  0  0  0  0  0
    0.1168    2.5156    4.1831 C   0  0  0  0  0  0  0  0  0  0  0  0
    0.9402    3.4240    3.8727 O   0  5  0  0  0  0  0  0  0  0  0  0
   -0.5500    2.3681    5.2442 O   0  0  0  0  0  0  0  0  0  0  0  0
    1.9288   -0.5463    1.4242 H   0  0  0  0  0  0  0  0  0  0  0  0
   -0.7407    0.4108    0.6006 H   0  0  0  0  0  0  0  0  0  0  0  0
    0.2105    2.7041    1.3549 H   0  0  0  0  0  0  0  0  0  0  0  0
    1.6429    1.8589    1.9072 H   0  0  0  0  0  0  0  0  0  0  0  0
   -1.1775    1.3066    2.9530 H   0  0  0  0  0  0  0  0  0  0  0  0
    0.3017    0.5217    3.4878 H   0  0  0  0  0  0  0  0  0  0  0  0
   -0.0590    1.7740   -1.3925 N   0  0  0  0  0  0  0  0  0  0  0  0
    0.2208    2.2992   -2.7088 C   0  0  2  0  0  0  0  0  0  0  0  0
   -0.8138    3.3738   -3.0160 C   0  0  0  0  0  0  0  0  0  0  0  0
   -1.9089    3.4291   -2.4603 O   0  0  0  0  0  0  0  0  0  0  0  0
    0.1924    1.2009   -3.7603 C   0  0  0  0  0  0  0  0  0  0  0  0
   -0.9934    1.9104   -1.0184 H   0  0  0  0  0  0  0  0  0  0  0  0
    1.2168    2.7528   -2.6632 H   0  0  0  0  0  0  0  0  0  0  0  0
   -0.7978    0.7346   -3.8205 H   0  0  0  0  0  0  0  0  0  0  0  0
    0.4327    1.5957   -4.7530 H   0  0  0  0  0  0  0  0  0  0  0  0
    0.9162    0.4142   -3.5217 H   0  0  0  0  0  0  0  0  0  0  0  0
   -0.3876    4.2383   -4.0146 N   0  0  0  0  0  0  0  0  0  0  0  0
   -1.1960    5.3351   -4.4937 C   0  0  0  0  0  0  0  0  0  0  0  0
    0.5433    4.1293   -4.4061 H   0  0  0  0  0  0  0  0  0  0  0  0
   -1.7863    5.0047   -5.3610 H   0  0  0  0  0  0  0  0  0  0  0  0
   -1.8741    5.6673   -3.6938 H   0  0  0  0  0  0  0  0  0  0  0  0
   -0.5431    6.1691   -4.7908 H   0  0  0  0  0  0  0  0  0  0  0  0
  1  3  1  0  0  0  0
  1  7  1  0  0  0  0
  1  2  2  0  0  0  0
 33 34  1  0  0  0  0
 34 42  1  0  0  0  0
 34 35  2  0  0  0  0
  8  9  1  0  0  0  0
  9 17  1  0  0  0  0
  9 10  2  0  0  0  0
 18 19  1  0  0  0  0
 19 32  1  0  0  0  0
 19 20  2  0  0  0  0
 22 23  1  0  0  0  0
 23 24  1  0  0  0  0
 23 25  2  0  0  0  0
 33 36  1  0  0  0  0
  8 11  1  0  0  0  0
 42 43  1  0  0  0  0
 21 22  1  0  0  0  0
 18 21  1  0  0  0  0
 32 33  1  0  0  0  0
  7  8  1  0  0  0  0
 17 18  1  0  0  0  0
  3  4  1  0  0  0  0
  3  5  1  0  0  0  0
  3  6  1  0  0  0  0
 36 39  1  0  0  0  0
 36 40  1  0  0  0  0
 36 41  1  0  0  0  0
 11 14  1  0  0  0  0
 11 15  1  0  0  0  0
 11 16  1  0  0  0  0
 43 45  1  0  0  0  0
 43 46  1  0  0  0  0
 43 47  1  0  0  0  0
 22 30  1  0  0  0  0
 22 31  1  0  0  0  0
 21 28  1  0  0  0  0
 21 29  1  0  0  0  0
 33 38  1  0  0  0  0
  8 13  1  0  0  0  0
 18 27  1  0  0  0  0
 42 44  1  0  0  0  0
  7 12  1  0  0  0  0
 32 37  1  0  0  0  0
 17 26  1  0  0  0  0
M  CHG  1  24  -1
M  END
$$$$

  -OEChem-05262214473D

 47 46  0     1  0  0  0  0  0999 V2000
    0.5093   -4.7265    3.0306 C   0  0  0  0  0  0  0  0  0  0  0  0
    1.2735   -4.4402    3.9448 O   0  0  0  0  0  0  0  0  0  0  0  0
   -0.4465   -5.8608    3.1982 C   0  0  0  0  0  0  0  0  0  0  0  0
   -0.0219   -6.8213    2.8645 H   0  0  0  0  0  0  0  0  0  0  0  0
   -0.7314   -6.0185    4.2509 H   0  0  0  0  0  0  0  0  0  0  0  0
   -1.3983   -5.7596    2.6527 H   0  0  0  0  0  0  0  0  0  0  0  0
    0.4252   -4.0886    1.8040 N   0  0  0  0  0  0  0  0  0  0  0  0
    1.2532   -2.9707    1.4349 C   0  0  2  0  0  0  0  0  0  0  0  0
    0.3395   -1.8293    1.0083 C   0  0  0  0  0  0  0  0  0  0  0  0
   -0.8136   -2.0027    0.6194 O   0  0  0  0  0  0  0  0  0  0  0  0
    2.2176   -3.3411    0.3189 C   0  0  0  0  0  0  0  0  0  0  0  0
   -0.2574   -4.4279    1.1287 H   0  0  0  0  0  0  0  0  0  0  0  0
    1.8087   -2.6785    2.3327 H   0  0  0  0  0  0  0  0  0  0  0  0
    1.6793   -3.6366   -0.5890 H   0  0  0  0  0  0  0  0  0  0  0  0
    2.8662   -2.4980    0.0589 H   0  0  0  0  0  0  0  0  0  0  0  0
    2.8538   -4.1816    0.6166 H   0  0  0  0  0  0  0  0  0  0  0  0
    0.9758   -0.5952    1.0708 N   0  0  0  0  0  0  0  0  0  0  0  0
    0.3258    0.6374    0.7059 C   0  0  2  0  0  0  0  0  0  0  0  0
    0.8737    1.0600   -0.6531 C   0  0  0  0  0  0  0  0  0  0  0  0
    1.9123    0.6045   -1.1276 O   0  0  0  0  0  0  0  0  0  0  0  0
    0.5633    1.7409    1.7438 C   0  0  0  0  0  0  0  0  0  0  0  0
   -0.1010    1.4626    3.0915 C   0  0  0  0  0  0  0  0  0  0  0  0
    0.1168    2.5156    4.1831 C   0  0  0  0  0  0  0  0  0  0  0  0
    0.9402    3.4240    3.8727 O   0  5  0  0  0  0  0  0  0  0  0  0
   -0.5500    2.3681    5.2442 O   0  0  0  0  0  0  0  0  0  0  0  0
    1.9288   -0.5463    1.4242 H   0  0  0  0  0  0  0  0  0  0  0  0
   -0.7407    0.4108    0.6006 H   0  0  0  0  0  0  0  0  0  0  0  0
    0.2105    2.7041    1.3549 H   0  0  0  0  0  0  0  0  0  0  0  0
    1.6429    1.8589    1.9072 H   0  0  0  0  0  0  0  0  0  0  0  0
   -1.1775    1.3066    2.9530 H   0  0  0  0  0  0  0  0  0  0  0  0
    0.3017    0.5217    3.4878 H   0  0  0  0  0  0  0  0  0  0  0  0
    0.0908    2.0385   -1.2499 N   0  0  0  0  0  0  0  0  0  0  0  0
    0.4051    2.6170   -2.5356 C   0  0  2  0  0  0  0  0  0  0  0  0
   -0.3659    3.9241   -2.6643 C   0  0  0  0  0  0  0  0  0  0  0  0
   -1.3817    4.1702   -2.0173 O   0  0  0  0  0  0  0  0  0  0  0  0
    0.0566    1.6664   -3.6703 C   0  0  0  0  0  0  0  0  0  0  0  0
   -0.7612    2.3450   -0.7896 H   0  0  0  0  0  0  0  0  0  0  0  0
    1.4806    2.8254   -2.5343 H   0  0  0  0  0  0  0  0  0  0  0  0
   -1.0170    1.4459   -3.6877 H   0  0  0  0  0  0  0  0  0  0  0  0
    0.3218    2.0948   -4.6425 H   0  0  0  0  0  0  0  0  0  0  0  0
    0.5894    0.7157   -3.5598 H   0  0  0  0  0  0  0  0  0  0  0  0
    0.1892    4.7658   -3.6180 N   0  0  0  0  0  0  0  0  0  0  0  0
   -0.3676    6.0604   -3.9342 C   0  0  0  0  0  0  0  0  0  0  0  0
    1.0432    4.4883   -4.0929 H   0  0  0  0  0  0  0  0  0  0  0  0
   -1.0705    5.9625   -4.7746 H   0  0  0  0  0  0  0  0  0  0  0  0
   -0.8992    6.4551   -3.0558 H   0  0  0  0  0  0  0  0  0  0  0  0
    0.4430    6.7499   -4.2127 H   0  0  0  0  0  0  0  0  0  0  0  0
  1  3  1  0  0  0  0
  1  7  1  0  0  0  0
  1  2  2  0  0  0  0
 33 34  1  0  0  0  0
 34 42  1  0  0  0  0
 34 35  2  0  0  0  0
  8  9  1  0  0  0  0
  9 17  1  0  0  0  0
  9 10  2  0  0  0  0
 18 19  1  0  0  0  0
 19 32  1  0  0  0  0
 19 20  2  0  0  0  0
 22 23  1  0  0  0  0
 23 24  1  0  0  0  0
 23 25  2  0  0  0  0
 33 36  1  0  0  0  0
  8 11  1  0  0  0  0
 42 43  1  0  0  0  0
 21 22  1  0  0  0  0
 18 21  1  0  0  0  0
 32 33  1  0  0  0  0
  7  8  1  0  0  0  0
 17 18  1  0  0  0  0
  3  4  1  0  0  0  0
  3  5  1  0  0  0  0
  3  6  1  0  0  0  0
 36 39  1  0  0  0  0
 36 40  1  0  0  0  0
 36 41  1  0  0  0  0
 11 14  1  0  0  0  0
 11 15  1  0  0  0  0
 11 16  1  0  0  0  0
 43 45  1  0  0  0  0
 43 46  1  0  0  0  0
 43 47  1  0  0  0  0
 22 30  1  0  0  0  0
 22 31  1  0  0  0  0
 21 28  1  0  0  0  0
 21 29  1  0  0  0  0
 33 38  1  0  0  0  0
  8 13  1  0  0  0  0
 18 27  1  0  0  0  0
 42 44  1  0  0  0  0
  7 12  1  0  0  0  0
 32 37  1  0  0  0  0
 17 26  1  0  0  0  0
M  CHG  1  24  -1
M  END
$$$$

  -OEChem-05262214473D

 47 46  0     1  0  0  0  0  0999 V2000
    0.5093   -4.7265    3.0306 C   0  0  0  0  0  0  0  0  0  0  0  0
    1.2735   -4.4402    3.9448 O   0  0  0  0  0  0  0  0  0  0  0  0
   -0.4465   -5.8608    3.1982 C   0  0  0  0  0  0  0  0  0  0  0  0
   -0.0219   -6.8213    2.8645 H   0  0  0  0  0  0  0  0  0  0  0  0
   -0.7314   -6.0185    4.2509 H   0  0  0  0  0  0  0  0  0  0  0  0
   -1.3983   -5.7596    2.6527 H   0  0  0  0  0  0  0  0  0  0  0  0
    0.4252   -4.0886    1.8040 N   0  0  0  0  0  0  0  0  0  0  0  0
    1.2532   -2.9707    1.4349 C   0  0  2  0  0  0  0  0  0  0  0  0
    0.3395   -1.8293    1.0083 C   0  0  0  0  0  0  0  0  0  0  0  0
   -0.8136   -2.0027    0.6194 O   0  0  0  0  0  0  0  0  0  0  0  0
    2.2176   -3.3411    0.3189 C   0  0  0  0  0  0  0  0  0  0  0  0
   -0.2574   -4.4279    1.1287 H   0  0  0  0  0  0  0  0  0  0  0  0
    1.8087   -2.6785    2.3327 H   0  0  0  0  0  0  0  0  0  0  0  0
    1.6793   -3.6366   -0.5890 H   0  0  0  0  0  0  0  0  0  0  0  0
    2.8662   -2.4980    0.0589 H   0  0  0  0  0  0  0  0  0  0  0  0
    2.8538   -4.1816    0.6166 H   0  0  0  0  0  0  0  0  0  0  0  0
    0.9758   -0.5952    1.0708 N   0  0  0  0  0  0  0  0  0  0  0  0
    0.3258    0.6374    0.7059 C   0  0  2  0  0  0  0  0  0  0  0  0
    0.5747    0.8643   -0.7815 C   0  0  0  0  0  0  0  0  0  0  0  0
    1.2562    0.1072   -1.4696 O   0  0  0  0  0  0  0  0  0  0  0  0
    0.8486    1.8257    1.5219 C   0  0  0  0  0  0  0  0  0  0  0  0
    0.4915    1.7497    3.0058 C   0  0  0  0  0  0  0  0  0  0  0  0
    1.0045    2.8954    3.8844 C   0  0  0  0  0  0  0  0  0  0  0  0
    1.7832    3.6967    3.2920 O   0  5  0  0  0  0  0  0  0  0  0  0
    0.5872    2.9178    5.0751 O   0  0  0  0  0  0  0  0  0  0  0  0
    1.9288   -0.5463    1.4242 H   0  0  0  0  0  0  0  0  0  0  0  0
   -0.7474    0.4853    0.8641 H   0  0  0  0  0  0  0  0  0  0  0  0
    0.4682    2.7654    1.1026 H   0  0  0  0  0  0  0  0  0  0  0  0
    1.9419    1.8755    1.4306 H   0  0  0  0  0  0  0  0  0  0  0  0
   -0.5952    1.6648    3.1253 H   0  0  0  0  0  0  0  0  0  0  0  0
    0.9232    0.8290    3.4187 H   0  0  0  0  0  0  0  0  0  0  0  0
   -0.0150    2.0355   -1.2363 N   0  0  0  0  0  0  0  0  0  0  0  0
    0.0873    2.4835   -2.6059 C   0  0  2  0  0  0  0  0  0  0  0  0
   -0.2639    3.9649   -2.6436 C   0  0  0  0  0  0  0  0  0  0  0  0
   -0.9390    4.5165   -1.7769 O   0  0  0  0  0  0  0  0  0  0  0  0
   -0.8289    1.6842   -3.5194 C   0  0  0  0  0  0  0  0  0  0  0  0
   -0.5743    2.5930   -0.5976 H   0  0  0  0  0  0  0  0  0  0  0  0
    1.1321    2.3475   -2.9059 H   0  0  0  0  0  0  0  0  0  0  0  0
   -1.8800    1.8081   -3.2342 H   0  0  0  0  0  0  0  0  0  0  0  0
   -0.7291    2.0058   -4.5613 H   0  0  0  0  0  0  0  0  0  0  0  0
   -0.5944    0.6155   -3.4684 H   0  0  0  0  0  0  0  0  0  0  0  0
    0.2289    4.5893   -3.7809 N   0  0  0  0  0  0  0  0  0  0  0  0
    0.0177    5.9918   -4.0539 C   0  0  0  0  0  0  0  0  0  0  0  0
    0.7946    4.0588   -4.4368 H   0  0  0  0  0  0  0  0  0  0  0  0
   -0.8869    6.1142   -4.6677 H   0  0  0  0  0  0  0  0  0  0  0  0
   -0.1066    6.5351   -3.1055 H   0  0  0  0  0  0  0  0  0  0  0  0
    0.8859    6.3945   -4.5961 H   0  0  0  0  0  0  0  0  0  0  0  0
  1  3  1  0  0  0  0
  1  7  1  0  0  0  0
  1  2  2  0  0  0  0
 33 34  1  0  0  0  0
 34 42  1  0  0  0  0
 34 35  2  0  0  0  0
  8  9  1  0  0  0  0
  9 17  1  0  0  0  0
  9 10  2  0  0  0  0
 18 19  1  0  0  0  0
 19 32  1  0  0  0  0
 19 20  2  0  0  0  0
 22 23  1  0  0  0  0
 23 24  1  0  0  0  0
 23 25  2  0  0  0  0
 33 36  1  0  0  0  0
  8 11  1  0  0  0  0
 42 43  1  0  0  0  0
 21 22  1  0  0  0  0
 18 21  1  0  0  0  0
 32 33  1  0  0  0  0
  7  8  1  0  0  0  0
 17 18  1  0  0  0  0
  3  4  1  0  0  0  0
  3  5  1  0  0  0  0
  3  6  1  0  0  0  0
 36 39  1  0  0  0  0
 36 40  1  0  0  0  0
 36 41  1  0  0  0  0
 11 14  1  0  0  0  0
 11 15  1  0  0  0  0
 11 16  1  0  0  0  0
 43 45  1  0  0  0  0
 43 46  1  0  0  0  0
 43 47  1  0  0  0  0
 22 30  1  0  0  0  0
 22 31  1  0  0  0  0
 21 28  1  0  0  0  0
 21 29  1  0  0  0  0
 33 38  1  0  0  0  0
  8 13  1  0  0  0  0
 18 27  1  0  0  0  0
 42 44  1  0  0  0  0
  7 12  1  0  0  0  0
 32 37  1  0  0  0  0
 17 26  1  0  0  0  0
M  CHG  1  24  -1
M  END
$$$$

  -OEChem-05262214473D

 47 46  0     1  0  0  0  0  0999 V2000
    0.5093   -4.7265    3.0306 C   0  0  0  0  0  0  0  0  0  0  0  0
    1.2735   -4.4402    3.9448 O   0  0  0  0  0  0  0  0  0  0  0  0
   -0.4465   -5.8608    3.1982 C   0  0  0  0  0  0  0  0  0  0  0  0
   -0.0219   -6.8213    2.8645 H   0  0  0  0  0  0  0  0  0  0  0  0
   -0.7314   -6.0185    4.2509 H   0  0  0  0  0  0  0  0  0  0  0  0
   -1.3983   -5.7596    2.6527 H   0  0  0  0  0  0  0  0  0  0  0  0
    0.4252   -4.0886    1.8040 N   0  0  0  0  0  0  0  0  0  0  0  0
    1.2532   -2.9707    1.4349 C   0  0  2  0  0  0  0  0  0  0  0  0
    0.3395   -1.8293    1.0083 C   0  0  0  0  0  0  0  0  0  0  0  0
   -0.8136   -2.0027    0.6194 O   0  0  0  0  0  0  0  0  0  0  0  0
    2.2176   -3.3411    0.3189 C   0  0  0  0  0  0  0  0  0  0  0  0
   -0.2574   -4.4279    1.1287 H   0  0  0  0  0  0  0  0  0  0  0  0
    1.8087   -2.6785    2.3327 H   0  0  0  0  0  0  0  0  0  0  0  0
    1.6793   -3.6366   -0.5890 H   0  0  0  0  0  0  0  0  0  0  0  0
    2.8662   -2.4980    0.0589 H   0  0  0  0  0  0  0  0  0  0  0  0
    2.8538   -4.1816    0.6166 H   0  0  0  0  0  0  0  0  0  0  0  0
    0.9758   -0.5952    1.0708 N   0  0  0  0  0  0  0  0  0  0  0  0
    0.3258    0.6374    0.7059 C   0  0  2  0  0  0  0  0  0  0  0  0
    0.5747    0.8643   -0.7815 C   0  0  0  0  0  0  0  0  0  0  0  0
    1.0191   -0.0066   -1.5267 O   0  0  0  0  0  0  0  0  0  0  0  0
    0.8486    1.8257    1.5219 C   0  0  0  0  0  0  0  0  0  0  0  0
    0.4915    1.7497    3.0058 C   0  0  0  0  0  0  0  0  0  0  0  0
    1.0045    2.8954    3.8844 C   0  0  0  0  0  0  0  0  0  0  0  0
    1.7832    3.6967    3.2920 O   0  5  0  0  0  0  0  0  0  0  0  0
    0.5872    2.9178    5.0751 O   0  0  0  0  0  0  0  0  0  0  0  0
    1.9288   -0.5463    1.4242 H   0  0  0  0  0  0  0  0  0  0  0  0
   -0.7474    0.4853    0.8641 H   0  0  0  0  0  0  0  0  0  0  0  0
    0.4682    2.7654    1.1026 H   0  0  0  0  0  0  0  0  0  0  0  0
    1.9419    1.8755    1.4306 H   0  0  0  0  0  0  0  0  0  0  0  0
   -0.5952    1.6648    3.1253 H   0  0  0  0  0  0  0  0  0  0  0  0
    0.9232    0.8290    3.4187 H   0  0  0  0  0  0  0  0  0  0  0  0
    0.2861    2.1663   -1.1660 N   0  0  0  0  0  0  0  0  0  0  0  0
    0.4532    2.6382   -2.5210 C   0  0  2  0  0  0  0  0  0  0  0  0
    0.4876    4.1605   -2.4880 C   0  0  0  0  0  0  0  0  0  0  0  0
    0.0033    4.8227   -1.5726 O   0  0  0  0  0  0  0  0  0  0  0  0
   -0.6652    2.1393   -3.4226 C   0  0  0  0  0  0  0  0  0  0  0  0
   -0.0923    2.8158   -0.4829 H   0  0  0  0  0  0  0  0  0  0  0  0
    1.4189    2.2581   -2.8715 H   0  0  0  0  0  0  0  0  0  0  0  0
   -1.6407    2.5100   -3.0871 H   0  0  0  0  0  0  0  0  0  0  0  0
   -0.5218    2.4742   -4.4552 H   0  0  0  0  0  0  0  0  0  0  0  0
   -0.7075    1.0447   -3.4218 H   0  0  0  0  0  0  0  0  0  0  0  0
    1.0845    4.6937   -3.6218 N   0  0  0  0  0  0  0  0  0  0  0  0
    1.2264    6.1155   -3.8327 C   0  0  0  0  0  0  0  0  0  0  0  0
    1.4754    4.0695   -4.3213 H   0  0  0  0  0  0  0  0  0  0  0  0
    0.3626    6.4904   -4.4012 H   0  0  0  0  0  0  0  0  0  0  0  0
    1.2752    6.6272   -2.8602 H   0  0  0  0  0  0  0  0  0  0  0  0
    2.1499    6.3119   -4.3971 H   0  0  0  0  0  0  0  0  0  0  0  0
  1  3  1  0  0  0  0
  1  7  1  0  0  0  0
  1  2  2  0  0  0  0
 33 34  1  0  0  0  0
 34 42  1  0  0  0  0
 34 35  2  0  0  0  0
  8  9  1  0  0  0  0
  9 17  1  0  0  0  0
  9 10  2  0  0  0  0
 18 19  1  0  0  0  0
 19 32  1  0  0  0  0
 19 20  2  0  0  0  0
 22 23  1  0  0  0  0
 23 24  1  0  0  0  0
 23 25  2  0  0  0  0
 33 36  1  0  0  0  0
  8 11  1  0  0  0  0
 42 43  1  0  0  0  0
 21 22  1  0  0  0  0
 18 21  1  0  0  0  0
 32 33  1  0  0  0  0
  7  8  1  0  0  0  0
 17 18  1  0  0  0  0
  3  4  1  0  0  0  0
  3  5  1  0  0  0  0
  3  6  1  0  0  0  0
 36 39  1  0  0  0  0
 36 40  1  0  0  0  0
 36 41  1  0  0  0  0
 11 14  1  0  0  0  0
 11 15  1  0  0  0  0
 11 16  1  0  0  0  0
 43 45  1  0  0  0  0
 43 46  1  0  0  0  0
 43 47  1  0  0  0  0
 22 30  1  0  0  0  0
 22 31  1  0  0  0  0
 21 28  1  0  0  0  0
 21 29  1  0  0  0  0
 33 38  1  0  0  0  0
  8 13  1  0  0  0  0
 18 27  1  0  0  0  0
 42 44  1  0  0  0  0
  7 12  1  0  0  0  0
 32 37  1  0  0  0  0
 17 26  1  0  0  0  0
M  CHG  1  24  -1
M  END
$$$$

  -OEChem-05262214473D

 47 46  0     1  0  0  0  0  0999 V2000
    0.5093   -4.7265    3.0306 C   0  0  0  0  0  0  0  0  0  0  0  0
    1.2735   -4.4402    3.9448 O   0  0  0  0  0  0  0  0  0  0  0  0
   -0.4465   -5.8608    3.1982 C   0  0  0  0  0  0  0  0  0  0  0  0
   -0.0219   -6.8213    2.8645 H   0  0  0  0  0  0  0  0  0  0  0  0
   -0.7314   -6.0185    4.2509 H   0  0  0  0  0  0  0  0  0  0  0  0
   -1.3983   -5.7596    2.6527 H   0  0  0  0  0  0  0  0  0  0  0  0
    0.4252   -4.0886    1.8040 N   0  0  0  0  0  0  0  0  0  0  0  0
    1.2532   -2.9707    1.4349 C   0  0  2  0  0  0  0  0  0  0  0  0
    0.3395   -1.8293    1.0083 C   0  0  0  0  0  0  0  0  0  0  0  0
   -0.8136   -2.0027    0.6194 O   0  0  0  0  0  0  0  0  0  0  0  0
    2.2176   -3.3411    0.3189 C   0  0  0  0  0  0  0  0  0  0  0  0
   -0.2574   -4.4279    1.1287 H   0  0  0  0  0  0  0  0  0  0  0  0
    1.8087   -2.6785    2.3327 H   0  0  0  0  0  0  0  0  0  0  0  0
    1.6793   -3.6366   -0.5890 H   0  0  0  0  0  0  0  0  0  0  0  0
    2.8662   -2.4980    0.0589 H   0  0  0  0  0  0  0  0  0  0  0  0
    2.8538   -4.1816    0.6166 H   0  0  0  0  0  0  0  0  0  0  0  0
    0.9758   -0.5952    1.0708 N   0  0  0  0  0  0  0  0  0  0  0  0
    0.3258    0.6374    0.7059 C   0  0  2  0  0  0  0  0  0  0  0  0
    0.5747    0.8643   -0.7815 C   0  0  0  0  0  0  0  0  0  0  0  0
    0.7591   -0.0542   -1.5775 O   0  0  0  0  0  0  0  0  0  0  0  0
    0.8486    1.8257    1.5219 C   0  0  0  0  0  0  0  0  0  0  0  0
    0.4915    1.7497    3.0058 C   0  0  0  0  0  0  0  0  0  0  0  0
    1.0045    2.8954    3.8844 C   0  0  0  0  0  0  0  0  0  0  0  0
    1.7832    3.6967    3.2920 O   0  5  0  0  0  0  0  0  0  0  0  0
    0.5872    2.9178    5.0751 O   0  0  0  0  0  0  0  0  0  0  0  0
    1.9288   -0.5463    1.4242 H   0  0  0  0  0  0  0  0  0  0  0  0
   -0.7474    0.4853    0.8641 H   0  0  0  0  0  0  0  0  0  0  0  0
    0.4682    2.7654    1.1026 H   0  0  0  0  0  0  0  0  0  0  0  0
    1.9419    1.8755    1.4306 H   0  0  0  0  0  0  0  0  0  0  0  0
   -0.5952    1.6648    3.1253 H   0  0  0  0  0  0  0  0  0  0  0  0
    0.9232    0.8290    3.4187 H   0  0  0  0  0  0  0  0  0  0  0  0
    0.6127    2.2137   -1.1041 N   0  0  0  0  0  0  0  0  0  0  0  0
    0.8489    2.6918   -2.4466 C   0  0  2  0  0  0  0  0  0  0  0  0
    1.2688    4.1531   -2.3584 C   0  0  0  0  0  0  0  0  0  0  0  0
    0.9985    4.8719   -1.3985 O   0  0  0  0  0  0  0  0  0  0  0  0
   -0.3886    2.5334   -3.3162 C   0  0  0  0  0  0  0  0  0  0  0  0
    0.4339    2.9045   -0.3813 H   0  0  0  0  0  0  0  0  0  0  0  0
    1.6748    2.0978   -2.8532 H   0  0  0  0  0  0  0  0  0  0  0  0
   -1.2267    3.1213   -2.9245 H   0  0  0  0  0  0  0  0  0  0  0  0
   -0.1993    2.8698   -4.3409 H   0  0  0  0  0  0  0  0  0  0  0  0
   -0.7066    1.4859   -3.3544 H   0  0  0  0  0  0  0  0  0  0  0  0
    1.9434    4.5719   -3.4966 N   0  0  0  0  0  0  0  0  0  0  0  0
    2.4337    5.9205   -3.6604 C   0  0  0  0  0  0  0  0  0  0  0  0
    2.1401    3.9031   -4.2354 H   0  0  0  0  0  0  0  0  0  0  0  0
    1.6747    6.5271   -4.1760 H   0  0  0  0  0  0  0  0  0  0  0  0
    2.6427    6.3571   -2.6726 H   0  0  0  0  0  0  0  0  0  0  0  0
    3.3577    5.9047   -4.2571 H   0  0  0  0  0  0  0  0  0  0  0  0
  1  3  1  0  0  0  0
  1  7  1  0  0  0  0
  1  2  2  0  0  0  0
 33 34  1  0  0  0  0
 34 42  1  0  0  0  0
 34 35  2  0  0  0  0
  8  9  1  0  0  0  0
  9 17  1  0  0  0  0
  9 10  2  0  0  0  0
 18 19  1  0  0  0  0
 19 32  1  0  0  0  0
 19 20  2  0  0  0  0
 22 23  1  0  0  0  0
 23 24  1  0  0  0  0
 23 25  2  0  0  0  0
 33 36  1  0  0  0  0
  8 11  1  0  0  0  0
 42 43  1  0  0  0  0
 21 22  1  0  0  0  0
 18 21  1  0  0  0  0
 32 33  1  0  0  0  0
  7  8  1  0  0  0  0
 17 18  1  0  0  0  0
  3  4  1  0  0  0  0
  3  5  1  0  0  0  0
  3  6  1  0  0  0  0
 36 39  1  0  0  0  0
 36 40  1  0  0  0  0
 36 41  1  0  0  0  0
 11 14  1  0  0  0  0
 11 15  1  0  0  0  0
 11 16  1  0  0  0  0
 43 45  1  0  0  0  0
 43 46  1  0  0  0  0
 43 47  1  0  0  0  0
 22 30  1  0  0  0  0
 22 31  1  0  0  0  0
 21 28  1  0  0  0  0
 21 29  1  0  0  0  0
 33 38  1  0  0  0  0
  8 13  1  0  0  0  0
 18 27  1  0  0  0  0
 42 44  1  0  0  0  0
  7 12  1  0  0  0  0
 32 37  1  0  0  0  0
 17 26  1  0  0  0  0
M  CHG  1  24  -1
M  END
$$$$

  -OEChem-05262214473D

 47 46  0     1  0  0  0  0  0999 V2000
    0.5093   -4.7265    3.0306 C   0  0  0  0  0  0  0  0  0  0  0  0
    1.2735   -4.4402    3.9448 O   0  0  0  0  0  0  0  0  0  0  0  0
   -0.4465   -5.8608    3.1982 C   0  0  0  0  0  0  0  0  0  0  0  0
   -0.0219   -6.8213    2.8645 H   0  0  0  0  0  0  0  0  0  0  0  0
   -0.7314   -6.0185    4.2509 H   0  0  0  0  0  0  0  0  0  0  0  0
   -1.3983   -5.7596    2.6527 H   0  0  0  0  0  0  0  0  0  0  0  0
    0.4252   -4.0886    1.8040 N   0  0  0  0  0  0  0  0  0  0  0  0
    1.2532   -2.9707    1.4349 C   0  0  2  0  0  0  0  0  0  0  0  0
    0.3395   -1.8293    1.0083 C   0  0  0  0  0  0  0  0  0  0  0  0
   -0.8136   -2.0027    0.6194 O   0  0  0  0  0  0  0  0  0  0  0  0
    2.2176   -3.3411    0.3189 C   0  0  0  0  0  0  0  0  0  0  0  0
   -0.2574   -4.4279    1.1287 H   0  0  0  0  0  0  0  0  0  0  0  0
    1.8087   -2.6785    2.3327 H   0  0  0  0  0  0  0  0  0  0  0  0
    1.6793   -3.6366   -0.5890 H   0  0  0  0  0  0  0  0  0  0  0  0
    2.8662   -2.4980    0.0589 H   0  0  0  0  0  0  0  0  0  0  0  0
    2.8538   -4.1816    0.6166 H   0  0  0  0  0  0  0  0  0  0  0  0
    0.9758   -0.5952    1.0708 N   0  0  0  0  0  0  0  0  0  0  0  0
    0.3258    0.6374    0.7059 C   0  0  2  0  0  0  0  0  0  0  0  0
    0.5747    0.8643   -0.7815 C   0  0  0  0  0  0  0  0  0  0  0  0
    0.4941   -0.0325   -1.6185 O   0  0  0  0  0  0  0  0  0  0  0  0
    0.8486    1.8257    1.5219 C   0  0  0  0  0  0  0  0  0  0  0  0
    0.4915    1.7497    3.0058 C   0  0  0  0  0  0  0  0  0  0  0  0
    1.0045    2.8954    3.8844 C   0  0  0  0  0  0  0  0  0  0  0  0
    1.7832    3.6967    3.2920 O   0  5  0  0  0  0  0  0  0  0  0  0
    0.5872    2.9178    5.0751 O   0  0  0  0  0  0  0  0  0  0  0  0
    1.9288   -0.5463    1.4242 H   0  0  0  0  0  0  0  0  0  0  0  0
   -0.7474    0.4853    0.8641 H   0  0  0  0  0  0  0  0  0  0  0  0
    0.4682    2.7654    1.1026 H   0  0  0  0  0  0  0  0  0  0  0  0
    1.9419    1.8755    1.4306 H   0  0  0  0  0  0  0  0  0  0  0  0
   -0.5952    1.6648    3.1253 H   0  0  0  0  0  0  0  0  0  0  0  0
    0.9232    0.8290    3.4187 H   0  0  0  0  0  0  0  0  0  0  0  0
    0.9425    2.1744   -1.0549 N   0  0  0  0  0  0  0  0  0  0  0  0
    1.2476    2.6405   -2.3877 C   0  0  2  0  0  0  0  0  0  0  0  0
    2.0265    3.9433   -2.2636 C   0  0  0  0  0  0  0  0  0  0  0  0
    1.9790    4.6608   -1.2666 O   0  0  0  0  0  0  0  0  0  0  0  0
   -0.0178    2.8398   -3.2074 C   0  0  0  0  0  0  0  0  0  0  0  0
    0.9686    2.8531   -0.2997 H   0  0  0  0  0  0  0  0  0  0  0  0
    1.8821    1.8777   -2.8520 H   0  0  0  0  0  0  0  0  0  0  0  0
   -0.6663    3.6005   -2.7576 H   0  0  0  0  0  0  0  0  0  0  0  0
    0.2166    3.1656   -4.2261 H   0  0  0  0  0  0  0  0  0  0  0  0
   -0.5918    1.9090   -3.2706 H   0  0  0  0  0  0  0  0  0  0  0  0
    2.7472    4.2321   -3.4139 N   0  0  0  0  0  0  0  0  0  0  0  0
    3.5574    5.4202   -3.5487 C   0  0  0  0  0  0  0  0  0  0  0  0
    2.7435    3.5710   -4.1851 H   0  0  0  0  0  0  0  0  0  0  0  0
    2.9601    6.2219   -4.0075 H   0  0  0  0  0  0  0  0  0  0  0  0
    3.9026    5.7430   -2.5554 H   0  0  0  0  0  0  0  0  0  0  0  0
    4.4269    5.2006   -4.1856 H   0  0  0  0  0  0  0  0  0  0  0  0
  1  3  1  0  0  0  0
  1  7  1  0  0  0  0
  1  2  2  0  0  0  0
 33 34  1  0  0  0  0
 34 42  1  0  0  0  0
 34 35  2  0  0  0  0
  8  9  1  0  0  0  0
  9 17  1  0  0  0  0
  9 10  2  0  0  0  0
 18 19  1  0  0  0  0
 19 32  1  0  0  0  0
 19 20  2  0  0  0  0
 22 23  1  0  0  0  0
 23 24  1  0  0  0  0
 23 25  2  0  0  0  0
 33 36  1  0  0  0  0
  8 11  1  0  0  0  0
 42 43  1  0  0  0  0
 21 22  1  0  0  0  0
 18 21  1  0  0  0  0
 32 33  1  0  0  0  0
  7  8  1  0  0  0  0
 17 18  1  0  0  0  0
  3  4  1  0  0  0  0
  3  5  1  0  0  0  0
  3  6  1  0  0  0  0
 36 39  1  0  0  0  0
 36 40  1  0  0  0  0
 36 41  1  0  0  0  0
 11 14  1  0  0  0  0
 11 15  1  0  0  0  0
 11 16  1  0  0  0  0
 43 45  1  0  0  0  0
 43 46  1  0  0  0  0
 43 47  1  0  0  0  0
 22 30  1  0  0  0  0
 22 31  1  0  0  0  0
 21 28  1  0  0  0  0
 21 29  1  0  0  0  0
 33 38  1  0  0  0  0
  8 13  1  0  0  0  0
 18 27  1  0  0  0  0
 42 44  1  0  0  0  0
  7 12  1  0  0  0  0
 32 37  1  0  0  0  0
 17 26  1  0  0  0  0
M  CHG  1  24  -1
M  END
$$$$

  -OEChem-05262214473D

 47 46  0     1  0  0  0  0  0999 V2000
    0.5093   -4.7265    3.0306 C   0  0  0  0  0  0  0  0  0  0  0  0
    1.2735   -4.4402    3.9448 O   0  0  0  0  0  0  0  0  0  0  0  0
   -0.4465   -5.8608    3.1982 C   0  0  0  0  0  0  0  0  0  0  0  0
   -0.0219   -6.8213    2.8645 H   0  0  0  0  0  0  0  0  0  0  0  0
   -0.7314   -6.0185    4.2509 H   0  0  0  0  0  0  0  0  0  0  0  0
   -1.3983   -5.7596    2.6527 H   0  0  0  0  0  0  0  0  0  0  0  0
    0.4252   -4.0886    1.8040 N   0  0  0  0  0  0  0  0  0  0  0  0
    1.2532   -2.9707    1.4349 C   0  0  2  0  0  0  0  0  0  0  0  0
    0.3395   -1.8293    1.0083 C   0  0  0  0  0  0  0  0  0  0  0  0
   -0.8136   -2.0027    0.6194 O   0  0  0  0  0  0  0  0  0  0  0  0
    2.2176   -3.3411    0.3189 C   0  0  0  0  0  0  0  0  0  0  0  0
   -0.2574   -4.4279    1.1287 H   0  0  0  0  0  0  0  0  0  0  0  0
    1.8087   -2.6785    2.3327 H   0  0  0  0  0  0  0  0  0  0  0  0
    1.6793   -3.6366   -0.5890 H   0  0  0  0  0  0  0  0  0  0  0  0
    2.8662   -2.4980    0.0589 H   0  0  0  0  0  0  0  0  0  0  0  0
    2.8538   -4.1816    0.6166 H   0  0  0  0  0  0  0  0  0  0  0  0
    0.9758   -0.5952    1.0708 N   0  0  0  0  0  0  0  0  0  0  0  0
    0.3258    0.6374    0.7059 C   0  0  2  0  0  0  0  0  0  0  0  0
    0.5747    0.8643   -0.7815 C   0  0  0  0  0  0  0  0  0  0  0  0
    0.2420    0.0572   -1.6470 O   0  0  0  0  0  0  0  0  0  0  0  0
    0.8486    1.8257    1.5219 C   0  0  0  0  0  0  0  0  0  0  0  0
    0.4915    1.7497    3.0058 C   0  0  0  0  0  0  0  0  0  0  0  0
    1.0045    2.8954    3.8844 C   0  0  0  0  0  0  0  0  0  0  0  0
    1.7832    3.6967    3.2920 O   0  5  0  0  0  0  0  0  0  0  0  0
    0.5872    2.9178    5.0751 O   0  0  0  0  0  0  0  0  0  0  0  0
    1.9288   -0.5463    1.4242 H   0  0  0  0  0  0  0  0  0  0  0  0
   -0.7474    0.4853    0.8641 H   0  0  0  0  0  0  0  0  0  0  0  0
    0.4682    2.7654    1.1026 H   0  0  0  0  0  0  0  0  0  0  0  0
    1.9419    1.8755    1.4306 H   0  0  0  0  0  0  0  0  0  0  0  0
   -0.5952    1.6648    3.1253 H   0  0  0  0  0  0  0  0  0  0  0  0
    0.9232    0.8290    3.4187 H   0  0  0  0  0  0  0  0  0  0  0  0
    1.2531    2.0511   -1.0218 N   0  0  0  0  0  0  0  0  0  0  0  0
    1.6219    2.4878   -2.3484 C   0  0  2  0  0  0  0  0  0  0  0  0
    2.7091    3.5454   -2.2100 C   0  0  0  0  0  0  0  0  0  0  0  0
    2.8779    4.2039   -1.1859 O   0  0  0  0  0  0  0  0  0  0  0  0
    0.4219    3.0375   -3.1036 C   0  0  0  0  0  0  0  0  0  0  0  0
    1.4751    2.6650   -0.2436 H   0  0  0  0  0  0  0  0  0  0  0  0
    2.0269    1.6127   -2.8682 H   0  0  0  0  0  0  0  0  0  0  0  0
    0.0025    3.9148   -2.5977 H   0  0  0  0  0  0  0  0  0  0  0  0
    0.6973    3.3416   -4.1188 H   0  0  0  0  0  0  0  0  0  0  0  0
   -0.3709    2.2851   -3.1762 H   0  0  0  0  0  0  0  0  0  0  0  0
    3.4410    3.6976   -3.3794 N   0  0  0  0  0  0  0  0  0  0  0  0
    4.5207    4.6485   -3.5052 C   0  0  0  0  0  0  0  0  0  0  0  0
    3.2445    3.0958   -4.1737 H   0  0  0  0  0  0  0  0  0  0  0  0
    4.1310    5.5954   -3.9071 H   0  0  0  0  0  0  0  0  0  0  0  0
    4.9691    4.8268   -2.5167 H   0  0  0  0  0  0  0  0  0  0  0  0
    5.2847    4.2475   -4.1874 H   0  0  0  0  0  0  0  0  0  0  0  0
  1  3  1  0  0  0  0
  1  7  1  0  0  0  0
  1  2  2  0  0  0  0
 33 34  1  0  0  0  0
 34 42  1  0  0  0  0
 34 35  2  0  0  0  0
  8  9  1  0  0  0  0
  9 17  1  0  0  0  0
  9 10  2  0  0  0  0
 18 19  1  0  0  0  0
 19 32  1  0  0  0  0
 19 20  2  0  0  0  0
 22 23  1  0  0  0  0
 23 24  1  0  0  0  0
 23 25  2  0  0  0  0
 33 36  1  0  0  0  0
  8 11  1  0  0  0  0
 42 43  1  0  0  0  0
 21 22  1  0  0  0  0
 18 21  1  0  0  0  0
 32 33  1  0  0  0  0
  7  8  1  0  0  0  0
 17 18  1  0  0  0  0
  3  4  1  0  0  0  0
  3  5  1  0  0  0  0
  3  6  1  0  0  0  0
 36 39  1  0  0  0  0
 36 40  1  0  0  0  0
 36 41  1  0  0  0  0
 11 14  1  0  0  0  0
 11 15  1  0  0  0  0
 11 16  1  0  0  0  0
 43 45  1  0  0  0  0
 43 46  1  0  0  0  0
 43 47  1  0  0  0  0
 22 30  1  0  0  0  0
 22 31  1  0  0  0  0
 21 28  1  0  0  0  0
 21 29  1  0  0  0  0
 33 38  1  0  0  0  0
  8 13  1  0  0  0  0
 18 27  1  0  0  0  0
 42 44  1  0  0  0  0
  7 12  1  0  0  0  0
 32 37  1  0  0  0  0
 17 26  1  0  0  0  0
M  CHG  1  24  -1
M  END
$$$$

  -OEChem-05262214473D

 47 46  0     1  0  0  0  0  0999 V2000
    0.5093   -4.7265    3.0306 C   0  0  0  0  0  0  0  0  0  0  0  0
    1.2735   -4.4402    3.9448 O   0  0  0  0  0  0  0  0  0  0  0  0
   -0.4465   -5.8608    3.1982 C   0  0  0  0  0  0  0  0  0  0  0  0
   -0.0219   -6.8213    2.8645 H   0  0  0  0  0  0  0  0  0  0  0  0
   -0.7314   -6.0185    4.2509 H   0  0  0  0  0  0  0  0  0  0  0  0
   -1.3983   -5.7596    2.6527 H   0  0  0  0  0  0  0  0  0  0  0  0
    0.4252   -4.0886    1.8040 N   0  0  0  0  0  0  0  0  0  0  0  0
    1.2532   -2.9707    1.4349 C   0  0  2  0  0  0  0  0  0  0  0  0
    0.3395   -1.8293    1.0083 C   0  0  0  0  0  0  0  0  0  0  0  0
   -0.8136   -2.0027    0.6194 O   0  0  0  0  0  0  0  0  0  0  0  0
    2.2176   -3.3411    0.3189 C   0  0  0  0  0  0  0  0  0  0  0  0
   -0.2574   -4.4279    1.1287 H   0  0  0  0  0  0  0  0  0  0  0  0
    1.8087   -2.6785    2.3327 H   0  0  0  0  0  0  0  0  0  0  0  0
    1.6793   -3.6366   -0.5890 H   0  0  0  0  0  0  0  0  0  0  0  0
    2.8662   -2.4980    0.0589 H   0  0  0  0  0  0  0  0  0  0  0  0
    2.8538   -4.1816    0.6166 H   0  0  0  0  0  0  0  0  0  0  0  0
    0.9758   -0.5952    1.0708 N   0  0  0  0  0  0  0  0  0  0  0  0
    0.3258    0.6374    0.7059 C   0  0  2  0  0  0  0  0  0  0  0  0
    0.5747    0.8643   -0.7815 C   0  0  0  0  0  0  0  0  0  0  0  0
    0.0200    0.2086   -1.6611 O   0  0  0  0  0  0  0  0  0  0  0  0
    0.8486    1.8257    1.5219 C   0  0  0  0  0  0  0  0  0  0  0  0
    0.4915    1.7497    3.0058 C   0  0  0  0  0  0  0  0  0  0  0  0
    1.0045    2.8954    3.8844 C   0  0  0  0  0  0  0  0  0  0  0  0
    1.7832    3.6967    3.2920 O   0  5  0  0  0  0  0  0  0  0  0  0
    0.5872    2.9178    5.0751 O   0  0  0  0  0  0  0  0  0  0  0  0
    1.9288   -0.5463    1.4242 H   0  0  0  0  0  0  0  0  0  0  0  0
   -0.7474    0.4853    0.8641 H   0  0  0  0  0  0  0  0  0  0  0  0
    0.4682    2.7654    1.1026 H   0  0  0  0  0  0  0  0  0  0  0  0
    1.9419    1.8755    1.4306 H   0  0  0  0  0  0  0  0  0  0  0  0
   -0.5952    1.6648    3.1253 H   0  0  0  0  0  0  0  0  0  0  0  0
    0.9232    0.8290    3.4187 H   0  0  0  0  0  0  0  0  0  0  0  0
    1.5232    1.8522   -1.0069 N   0  0  0  0  0  0  0  0  0  0  0  0
    1.9465    2.2442   -2.3312 C   0  0  2  0  0  0  0  0  0  0  0  0
    3.2700    2.9864   -2.2014 C   0  0  0  0  0  0  0  0  0  0  0  0
    3.6339    3.5322   -1.1618 O   0  0  0  0  0  0  0  0  0  0  0  0
    0.9005    3.1131   -3.0120 C   0  0  0  0  0  0  0  0  0  0  0  0
    1.9191    2.3531   -0.2169 H   0  0  0  0  0  0  0  0  0  0  0  0
    2.0993    1.3209   -2.9006 H   0  0  0  0  0  0  0  0  0  0  0  0
    0.7339    4.0428   -2.4558 H   0  0  0  0  0  0  0  0  0  0  0  0
    1.2102    3.3857   -4.0263 H   0  0  0  0  0  0  0  0  0  0  0  0
   -0.0589    2.5887   -3.0777 H   0  0  0  0  0  0  0  0  0  0  0  0
    3.9775    3.0046   -3.3953 N   0  0  0  0  0  0  0  0  0  0  0  0
    5.2581    3.6582   -3.5328 C   0  0  0  0  0  0  0  0  0  0  0  0
    3.6088    2.5098   -4.2022 H   0  0  0  0  0  0  0  0  0  0  0  0
    5.1079    4.6905   -3.8816 H   0  0  0  0  0  0  0  0  0  0  0  0
    5.7695    3.6710   -2.5590 H   0  0  0  0  0  0  0  0  0  0  0  0
    5.8726    3.1105   -4.2625 H   0  0  0  0  0  0  0  0  0  0  0  0
  1  3  1  0  0  0  0
  1  7  1  0  0  0  0
  1  2  2  0  0  0  0
 33 34  1  0  0  0  0
 34 42  1  0  0  0  0
 34 35  2  0  0  0  0
  8  9  1  0  0  0  0
  9 17  1  0  0  0  0
  9 10  2  0  0  0  0
 18 19  1  0  0  0  0
 19 32  1  0  0  0  0
 19 20  2  0  0  0  0
 22 23  1  0  0  0  0
 23 24  1  0  0  0  0
 23 25  2  0  0  0  0
 33 36  1  0  0  0  0
  8 11  1  0  0  0  0
 42 43  1  0  0  0  0
 21 22  1  0  0  0  0
 18 21  1  0  0  0  0
 32 33  1  0  0  0  0
  7  8  1  0  0  0  0
 17 18  1  0  0  0  0
  3  4  1  0  0  0  0
  3  5  1  0  0  0  0
  3  6  1  0  0  0  0
 36 39  1  0  0  0  0
 36 40  1  0  0  0  0
 36 41  1  0  0  0  0
 11 14  1  0  0  0  0
 11 15  1  0  0  0  0
 11 16  1  0  0  0  0
 43 45  1  0  0  0  0
 43 46  1  0  0  0  0
 43 47  1  0  0  0  0
 22 30  1  0  0  0  0
 22 31  1  0  0  0  0
 21 28  1  0  0  0  0
 21 29  1  0  0  0  0
 33 38  1  0  0  0  0
  8 13  1  0  0  0  0
 18 27  1  0  0  0  0
 42 44  1  0  0  0  0
  7 12  1  0  0  0  0
 32 37  1  0  0  0  0
 17 26  1  0  0  0  0
M  CHG  1  24  -1
M  END
$$$$

  -OEChem-05262214473D

 47 46  0     1  0  0  0  0  0999 V2000
    0.5093   -4.7265    3.0306 C   0  0  0  0  0  0  0  0  0  0  0  0
    1.2735   -4.4402    3.9448 O   0  0  0  0  0  0  0  0  0  0  0  0
   -0.4465   -5.8608    3.1982 C   0  0  0  0  0  0  0  0  0  0  0  0
   -0.0219   -6.8213    2.8645 H   0  0  0  0  0  0  0  0  0  0  0  0
   -0.7314   -6.0185    4.2509 H   0  0  0  0  0  0  0  0  0  0  0  0
   -1.3983   -5.7596    2.6527 H   0  0  0  0  0  0  0  0  0  0  0  0
    0.4252   -4.0886    1.8040 N   0  0  0  0  0  0  0  0  0  0  0  0
    1.2532   -2.9707    1.4349 C   0  0  2  0  0  0  0  0  0  0  0  0
    0.3395   -1.8293    1.0083 C   0  0  0  0  0  0  0  0  0  0  0  0
   -0.8136   -2.0027    0.6194 O   0  0  0  0  0  0  0  0  0  0  0  0
    2.2176   -3.3411    0.3189 C   0  0  0  0  0  0  0  0  0  0  0  0
   -0.2574   -4.4279    1.1287 H   0  0  0  0  0  0  0  0  0  0  0  0
    1.8087   -2.6785    2.3327 H   0  0  0  0  0  0  0  0  0  0  0  0
    1.6793   -3.6366   -0.5890 H   0  0  0  0  0  0  0  0  0  0  0  0
    2.8662   -2.4980    0.0589 H   0  0  0  0  0  0  0  0  0  0  0  0
    2.8538   -4.1816    0.6166 H   0  0  0  0  0  0  0  0  0  0  0  0
    0.9758   -0.5952    1.0708 N   0  0  0  0  0  0  0  0  0  0  0  0
    0.3258    0.6374    0.7059 C   0  0  2  0  0  0  0  0  0  0  0  0
    0.5747    0.8643   -0.7815 C   0  0  0  0  0  0  0  0  0  0  0  0
   -0.1568    0.4116   -1.6597 O   0  0  0  0  0  0  0  0  0  0  0  0
    0.8486    1.8257    1.5219 C   0  0  0  0  0  0  0  0  0  0  0  0
    0.4915    1.7497    3.0058 C   0  0  0  0  0  0  0  0  0  0  0  0
    1.0045    2.8954    3.8844 C   0  0  0  0  0  0  0  0  0  0  0  0
    1.7832    3.6967    3.2920 O   0  5  0  0  0  0  0  0  0  0  0  0
    0.5872    2.9178    5.0751 O   0  0  0  0  0  0  0  0  0  0  0  0
    1.9288   -0.5463    1.4242 H   0  0  0  0  0  0  0  0  0  0  0  0
   -0.7474    0.4853    0.8641 H   0  0  0  0  0  0  0  0  0  0  0  0
    0.4682    2.7654    1.1026 H   0  0  0  0  0  0  0  0  0  0  0  0
    1.9419    1.8755    1.4306 H   0  0  0  0  0  0  0  0  0  0  0  0
   -0.5952    1.6648    3.1253 H   0  0  0  0  0  0  0  0  0  0  0  0
    0.9232    0.8290    3.4187 H   0  0  0  0  0  0  0  0  0  0  0  0
    1.7345    1.5913   -1.0113 N   0  0  0  0  0  0  0  0  0  0  0  0
    2.1992    1.9262   -2.3374 C   0  0  2  0  0  0  0  0  0  0  0  0
    3.6711    2.3046   -2.2383 C   0  0  0  0  0  0  0  0  0  0  0  0
    4.1955    2.6916   -1.1961 O   0  0  0  0  0  0  0  0  0  0  0  0
    1.3854    3.0615   -2.9387 C   0  0  0  0  0  0  0  0  0  0  0  0
    2.2702    1.9386   -0.2214 H   0  0  0  0  0  0  0  0  0  0  0  0
    2.0942    1.0221   -2.9471 H   0  0  0  0  0  0  0  0  0  0  0  0
    1.4782    3.9759   -2.3414 H   0  0  0  0  0  0  0  0  0  0  0  0
    1.7203    3.2949   -3.9547 H   0  0  0  0  0  0  0  0  0  0  0  0
    0.3228    2.7990   -2.9817 H   0  0  0  0  0  0  0  0  0  0  0  0
    4.3202    2.2005   -3.4606 N   0  0  0  0  0  0  0  0  0  0  0  0
    5.7193    2.5166   -3.6298 C   0  0  0  0  0  0  0  0  0  0  0  0
    3.8118    1.8530   -4.2684 H   0  0  0  0  0  0  0  0  0  0  0  0
    5.8240    3.5688   -3.9329 H   0  0  0  0  0  0  0  0  0  0  0  0
    6.2492    2.3544   -2.6796 H   0  0  0  0  0  0  0  0  0  0  0  0
    6.1506    1.8670   -4.4057 H   0  0  0  0  0  0  0  0  0  0  0  0
  1  3  1  0  0  0  0
  1  7  1  0  0  0  0
  1  2  2  0  0  0  0
 33 34  1  0  0  0  0
 34 42  1  0  0  0  0
 34 35  2  0  0  0  0
  8  9  1  0  0  0  0
  9 17  1  0  0  0  0
  9 10  2  0  0  0  0
 18 19  1  0  0  0  0
 19 32  1  0  0  0  0
 19 20  2  0  0  0  0
 22 23  1  0  0  0  0
 23 24  1  0  0  0  0
 23 25  2  0  0  0  0
 33 36  1  0  0  0  0
  8 11  1  0  0  0  0
 42 43  1  0  0  0  0
 21 22  1  0  0  0  0
 18 21  1  0  0  0  0
 32 33  1  0  0  0  0
  7  8  1  0  0  0  0
 17 18  1  0  0  0  0
  3  4  1  0  0  0  0
  3  5  1  0  0  0  0
  3  6  1  0  0  0  0
 36 39  1  0  0  0  0
 36 40  1  0  0  0  0
 36 41  1  0  0  0  0
 11 14  1  0  0  0  0
 11 15  1  0  0  0  0
 11 16  1  0  0  0  0
 43 45  1  0  0  0  0
 43 46  1  0  0  0  0
 43 47  1  0  0  0  0
 22 30  1  0  0  0  0
 22 31  1  0  0  0  0
 21 28  1  0  0  0  0
 21 29  1  0  0  0  0
 33 38  1  0  0  0  0
  8 13  1  0  0  0  0
 18 27  1  0  0  0  0
 42 44  1  0  0  0  0
  7 12  1  0  0  0  0
 32 37  1  0  0  0  0
 17 26  1  0  0  0  0
M  CHG  1  24  -1
M  END
$$$$

  -OEChem-05262214473D

 47 46  0     1  0  0  0  0  0999 V2000
    0.5093   -4.7265    3.0306 C   0  0  0  0  0  0  0  0  0  0  0  0
    1.2735   -4.4402    3.9448 O   0  0  0  0  0  0  0  0  0  0  0  0
   -0.4465   -5.8608    3.1982 C   0  0  0  0  0  0  0  0  0  0  0  0
   -0.0219   -6.8213    2.8645 H   0  0  0  0  0  0  0  0  0  0  0  0
   -0.7314   -6.0185    4.2509 H   0  0  0  0  0  0  0  0  0  0  0  0
   -1.3983   -5.7596    2.6527 H   0  0  0  0  0  0  0  0  0  0  0  0
    0.4252   -4.0886    1.8040 N   0  0  0  0  0  0  0  0  0  0  0  0
    1.2532   -2.9707    1.4349 C   0  0  2  0  0  0  0  0  0  0  0  0
    0.3395   -1.8293    1.0083 C   0  0  0  0  0  0  0  0  0  0  0  0
   -0.8136   -2.0027    0.6194 O   0  0  0  0  0  0  0  0  0  0  0  0
    2.2176   -3.3411    0.3189 C   0  0  0  0  0  0  0  0  0  0  0  0
   -0.2574   -4.4279    1.1287 H   0  0  0  0  0  0  0  0  0  0  0  0
    1.8087   -2.6785    2.3327 H   0  0  0  0  0  0  0  0  0  0  0  0
    1.6793   -3.6366   -0.5890 H   0  0  0  0  0  0  0  0  0  0  0  0
    2.8662   -2.4980    0.0589 H   0  0  0  0  0  0  0  0  0  0  0  0
    2.8538   -4.1816    0.6166 H   0  0  0  0  0  0  0  0  0  0  0  0
    0.9758   -0.5952    1.0708 N   0  0  0  0  0  0  0  0  0  0  0  0
    0.3258    0.6374    0.7059 C   0  0  2  0  0  0  0  0  0  0  0  0
    0.5747    0.8643   -0.7815 C   0  0  0  0  0  0  0  0  0  0  0  0
   -0.2762    0.6521   -1.6430 O   0  0  0  0  0  0  0  0  0  0  0  0
    0.8486    1.8257    1.5219 C   0  0  0  0  0  0  0  0  0  0  0  0
    0.4915    1.7497    3.0058 C   0  0  0  0  0  0  0  0  0  0  0  0
    1.0045    2.8954    3.8844 C   0  0  0  0  0  0  0  0  0  0  0  0
    1.7832    3.6967    3.2920 O   0  5  0  0  0  0  0  0  0  0  0  0
    0.5872    2.9178    5.0751 O   0  0  0  0  0  0  0  0  0  0  0  0
    1.9288   -0.5463    1.4242 H   0  0  0  0  0  0  0  0  0  0  0  0
   -0.7474    0.4853    0.8641 H   0  0  0  0  0  0  0  0  0  0  0  0
    0.4682    2.7654    1.1026 H   0  0  0  0  0  0  0  0  0  0  0  0
    1.9419    1.8755    1.4306 H   0  0  0  0  0  0  0  0  0  0  0  0
   -0.5952    1.6648    3.1253 H   0  0  0  0  0  0  0  0  0  0  0  0
    0.9232    0.8290    3.4187 H   0  0  0  0  0  0  0  0  0  0  0  0
    1.8725    1.2861   -1.0348 N   0  0  0  0  0  0  0  0  0  0  0  0
    2.3628    1.5555   -2.3666 C   0  0  2  0  0  0  0  0  0  0  0  0
    3.8850    1.5463   -2.3182 C   0  0  0  0  0  0  0  0  0  0  0  0
    4.5245    1.7393   -1.2863 O   0  0  0  0  0  0  0  0  0  0  0  0
    1.8436    2.8861   -2.8888 C   0  0  0  0  0  0  0  0  0  0  0  0
    2.5046    1.4497   -0.2567 H   0  0  0  0  0  0  0  0  0  0  0  0
    2.0121    0.7367   -3.0043 H   0  0  0  0  0  0  0  0  0  0  0  0
    2.1847    3.7185   -2.2625 H   0  0  0  0  0  0  0  0  0  0  0  0
    2.1929    3.0754   -3.9091 H   0  0  0  0  0  0  0  0  0  0  0  0
    0.7484    2.9018   -2.8948 H   0  0  0  0  0  0  0  0  0  0  0  0
    4.4457    1.3400   -3.5709 N   0  0  0  0  0  0  0  0  0  0  0  0
    5.8729    1.3015   -3.7895 C   0  0  0  0  0  0  0  0  0  0  0  0
    3.8394    1.1702   -4.3679 H   0  0  0  0  0  0  0  0  0  0  0  0
    6.2305    2.3067   -4.0574 H   0  0  0  0  0  0  0  0  0  0  0  0
    6.3756    0.9666   -2.8702 H   0  0  0  0  0  0  0  0  0  0  0  0
    6.0997    0.6017   -4.6072 H   0  0  0  0  0  0  0  0  0  0  0  0
  1  3  1  0  0  0  0
  1  7  1  0  0  0  0
  1  2  2  0  0  0  0
 33 34  1  0  0  0  0
 34 42  1  0  0  0  0
 34 35  2  0  0  0  0
  8  9  1  0  0  0  0
  9 17  1  0  0  0  0
  9 10  2  0  0  0  0
 18 19  1  0  0  0  0
 19 32  1  0  0  0  0
 19 20  2  0  0  0  0
 22 23  1  0  0  0  0
 23 24  1  0  0  0  0
 23 25  2  0  0  0  0
 33 36  1  0  0  0  0
  8 11  1  0  0  0  0
 42 43  1  0  0  0  0
 21 22  1  0  0  0  0
 18 21  1  0  0  0  0
 32 33  1  0  0  0  0
  7  8  1  0  0  0  0
 17 18  1  0  0  0  0
  3  4  1  0  0  0  0
  3  5  1  0  0  0  0
  3  6  1  0  0  0  0
 36 39  1  0  0  0  0
 36 40  1  0  0  0  0
 36 41  1  0  0  0  0
 11 14  1  0  0  0  0
 11 15  1  0  0  0  0
 11 16  1  0  0  0  0
 43 45  1  0  0  0  0
 43 46  1  0  0  0  0
 43 47  1  0  0  0  0
 22 30  1  0  0  0  0
 22 31  1  0  0  0  0
 21 28  1  0  0  0  0
 21 29  1  0  0  0  0
 33 38  1  0  0  0  0
  8 13  1  0  0  0  0
 18 27  1  0  0  0  0
 42 44  1  0  0  0  0
  7 12  1  0  0  0  0
 32 37  1  0  0  0  0
 17 26  1  0  0  0  0
M  CHG  1  24  -1
M  END
$$$$

  -OEChem-05262214473D

 47 46  0     1  0  0  0  0  0999 V2000
    0.5093   -4.7265    3.0306 C   0  0  0  0  0  0  0  0  0  0  0  0
    1.2735   -4.4402    3.9448 O   0  0  0  0  0  0  0  0  0  0  0  0
   -0.4465   -5.8608    3.1982 C   0  0  0  0  0  0  0  0  0  0  0  0
   -0.0219   -6.8213    2.8645 H   0  0  0  0  0  0  0  0  0  0  0  0
   -0.7314   -6.0185    4.2509 H   0  0  0  0  0  0  0  0  0  0  0  0
   -1.3983   -5.7596    2.6527 H   0  0  0  0  0  0  0  0  0  0  0  0
    0.4252   -4.0886    1.8040 N   0  0  0  0  0  0  0  0  0  0  0  0
    1.2532   -2.9707    1.4349 C   0  0  2  0  0  0  0  0  0  0  0  0
    0.3395   -1.8293    1.0083 C   0  0  0  0  0  0  0  0  0  0  0  0
   -0.8136   -2.0027    0.6194 O   0  0  0  0  0  0  0  0  0  0  0  0
    2.2176   -3.3411    0.3189 C   0  0  0  0  0  0  0  0  0  0  0  0
   -0.2574   -4.4279    1.1287 H   0  0  0  0  0  0  0  0  0  0  0  0
    1.8087   -2.6785    2.3327 H   0  0  0  0  0  0  0  0  0  0  0  0
    1.6793   -3.6366   -0.5890 H   0  0  0  0  0  0  0  0  0  0  0  0
    2.8662   -2.4980    0.0589 H   0  0  0  0  0  0  0  0  0  0  0  0
    2.8538   -4.1816    0.6166 H   0  0  0  0  0  0  0  0  0  0  0  0
    0.9758   -0.5952    1.0708 N   0  0  0  0  0  0  0  0  0  0  0  0
    0.3258    0.6374    0.7059 C   0  0  2  0  0  0  0  0  0  0  0  0
    0.5747    0.8643   -0.7815 C   0  0  0  0  0  0  0  0  0  0  0  0
   -0.3302    0.9140   -1.6121 O   0  0  0  0  0  0  0  0  0  0  0  0
    0.8486    1.8257    1.5219 C   0  0  0  0  0  0  0  0  0  0  0  0
    0.4915    1.7497    3.0058 C   0  0  0  0  0  0  0  0  0  0  0  0
    1.0045    2.8954    3.8844 C   0  0  0  0  0  0  0  0  0  0  0  0
    1.7832    3.6967    3.2920 O   0  5  0  0  0  0  0  0  0  0  0  0
    0.5872    2.9178    5.0751 O   0  0  0  0  0  0  0  0  0  0  0  0
    1.9288   -0.5463    1.4242 H   0  0  0  0  0  0  0  0  0  0  0  0
   -0.7474    0.4853    0.8641 H   0  0  0  0  0  0  0  0  0  0  0  0
    0.4682    2.7654    1.1026 H   0  0  0  0  0  0  0  0  0  0  0  0
    1.9419    1.8755    1.4306 H   0  0  0  0  0  0  0  0  0  0  0  0
   -0.5952    1.6648    3.1253 H   0  0  0  0  0  0  0  0  0  0  0  0
    0.9232    0.8290    3.4187 H   0  0  0  0  0  0  0  0  0  0  0  0
    1.9279    0.9574   -1.0757 N   0  0  0  0  0  0  0  0  0  0  0  0
    2.4261    1.1574   -2.4168 C   0  0  2  0  0  0  0  0  0  0  0  0
    3.8971    0.7632   -2.4357 C   0  0  0  0  0  0  0  0  0  0  0  0
    4.5984    0.7402   -1.4263 O   0  0  0  0  0  0  0  0  0  0  0  0
    2.2438    2.5989   -2.8656 C   0  0  0  0  0  0  0  0  0  0  0  0
    2.6062    0.9199   -0.3206 H   0  0  0  0  0  0  0  0  0  0  0  0
    1.8586    0.4842   -3.0686 H   0  0  0  0  0  0  0  0  0  0  0  0
    2.8051    3.2882   -2.2243 H   0  0  0  0  0  0  0  0  0  0  0  0
    2.5958    2.7422   -3.8925 H   0  0  0  0  0  0  0  0  0  0  0  0
    1.1887    2.8899   -2.8230 H   0  0  0  0  0  0  0  0  0  0  0  0
    4.3455    0.4819   -3.7186 N   0  0  0  0  0  0  0  0  0  0  0  0
    5.7084    0.0959   -4.0009 C   0  0  0  0  0  0  0  0  0  0  0  0
    3.6899    0.5078   -4.4940 H   0  0  0  0  0  0  0  0  0  0  0  0
    6.2999    0.9902   -4.2467 H   0  0  0  0  0  0  0  0  0  0  0  0
    6.1400   -0.3977   -3.1178 H   0  0  0  0  0  0  0  0  0  0  0  0
    5.7234   -0.5991   -4.8534 H   0  0  0  0  0  0  0  0  0  0  0  0
  1  3  1  0  0  0  0
  1  7  1  0  0  0  0
  1  2  2  0  0  0  0
 33 34  1  0  0  0  0
 34 42  1  0  0  0  0
 34 35  2  0  0  0  0
  8  9  1  0  0  0  0
  9 17  1  0  0  0  0
  9 10  2  0  0  0  0
 18 19  1  0  0  0  0
 19 32  1  0  0  0  0
 19 20  2  0  0  0  0
 22 23  1  0  0  0  0
 23 24  1  0  0  0  0
 23 25  2  0  0  0  0
 33 36  1  0  0  0  0
  8 11  1  0  0  0  0
 42 43  1  0  0  0  0
 21 22  1  0  0  0  0
 18 21  1  0  0  0  0
 32 33  1  0  0  0  0
  7  8  1  0  0  0  0
 17 18  1  0  0  0  0
  3  4  1  0  0  0  0
  3  5  1  0  0  0  0
  3  6  1  0  0  0  0
 36 39  1  0  0  0  0
 36 40  1  0  0  0  0
 36 41  1  0  0  0  0
 11 14  1  0  0  0  0
 11 15  1  0  0  0  0
 11 16  1  0  0  0  0
 43 45  1  0  0  0  0
 43 46  1  0  0  0  0
 43 47  1  0  0  0  0
 22 30  1  0  0  0  0
 22 31  1  0  0  0  0
 21 28  1  0  0  0  0
 21 29  1  0  0  0  0
 33 38  1  0  0  0  0
  8 13  1  0  0  0  0
 18 27  1  0  0  0  0
 42 44  1  0  0  0  0
  7 12  1  0  0  0  0
 32 37  1  0  0  0  0
 17 26  1  0  0  0  0
M  CHG  1  24  -1
M  END
$$$$

  -OEChem-05262214473D

 47 46  0     1  0  0  0  0  0999 V2000
    0.5093   -4.7265    3.0306 C   0  0  0  0  0  0  0  0  0  0  0  0
    1.2735   -4.4402    3.9448 O   0  0  0  0  0  0  0  0  0  0  0  0
   -0.4465   -5.8608    3.1982 C   0  0  0  0  0  0  0  0  0  0  0  0
   -0.0219   -6.8213    2.8645 H   0  0  0  0  0  0  0  0  0  0  0  0
   -0.7314   -6.0185    4.2509 H   0  0  0  0  0  0  0  0  0  0  0  0
   -1.3983   -5.7596    2.6527 H   0  0  0  0  0  0  0  0  0  0  0  0
    0.4252   -4.0886    1.8040 N   0  0  0  0  0  0  0  0  0  0  0  0
    1.2532   -2.9707    1.4349 C   0  0  2  0  0  0  0  0  0  0  0  0
    0.3395   -1.8293    1.0083 C   0  0  0  0  0  0  0  0  0  0  0  0
   -0.8136   -2.0027    0.6194 O   0  0  0  0  0  0  0  0  0  0  0  0
    2.2176   -3.3411    0.3189 C   0  0  0  0  0  0  0  0  0  0  0  0
   -0.2574   -4.4279    1.1287 H   0  0  0  0  0  0  0  0  0  0  0  0
    1.8087   -2.6785    2.3327 H   0  0  0  0  0  0  0  0  0  0  0  0
    1.6793   -3.6366   -0.5890 H   0  0  0  0  0  0  0  0  0  0  0  0
    2.8662   -2.4980    0.0589 H   0  0  0  0  0  0  0  0  0  0  0  0
    2.8538   -4.1816    0.6166 H   0  0  0  0  0  0  0  0  0  0  0  0
    0.9758   -0.5952    1.0708 N   0  0  0  0  0  0  0  0  0  0  0  0
    0.3258    0.6374    0.7059 C   0  0  2  0  0  0  0  0  0  0  0  0
    0.5747    0.8643   -0.7815 C   0  0  0  0  0  0  0  0  0  0  0  0
   -0.3151    1.1792   -1.5691 O   0  0  0  0  0  0  0  0  0  0  0  0
    0.8486    1.8257    1.5219 C   0  0  0  0  0  0  0  0  0  0  0  0
    0.4915    1.7497    3.0058 C   0  0  0  0  0  0  0  0  0  0  0  0
    1.0045    2.8954    3.8844 C   0  0  0  0  0  0  0  0  0  0  0  0
    1.7832    3.6967    3.2920 O   0  5  0  0  0  0  0  0  0  0  0  0
    0.5872    2.9178    5.0751 O   0  0  0  0  0  0  0  0  0  0  0  0
    1.9288   -0.5463    1.4242 H   0  0  0  0  0  0  0  0  0  0  0  0
   -0.7474    0.4853    0.8641 H   0  0  0  0  0  0  0  0  0  0  0  0
    0.4682    2.7654    1.1026 H   0  0  0  0  0  0  0  0  0  0  0  0
    1.9419    1.8755    1.4306 H   0  0  0  0  0  0  0  0  0  0  0  0
   -0.5952    1.6648    3.1253 H   0  0  0  0  0  0  0  0  0  0  0  0
    0.9232    0.8290    3.4187 H   0  0  0  0  0  0  0  0  0  0  0  0
    1.8969    0.6278   -1.1311 N   0  0  0  0  0  0  0  0  0  0  0  0
    2.3848    0.7590   -2.4845 C   0  0  2  0  0  0  0  0  0  0  0  0
    3.7065    0.0087   -2.5826 C   0  0  0  0  0  0  0  0  0  0  0  0
    4.4121   -0.2376   -1.6067 O   0  0  0  0  0  0  0  0  0  0  0  0
    2.5588    2.2195   -2.8708 C   0  0  0  0  0  0  0  0  0  0  0  0
    2.5682    0.3852   -0.4085 H   0  0  0  0  0  0  0  0  0  0  0  0
    1.6441    0.2817   -3.1353 H   0  0  0  0  0  0  0  0  0  0  0  0
    3.2973    2.7143   -2.2295 H   0  0  0  0  0  0  0  0  0  0  0  0
    2.9014    2.3180   -3.9061 H   0  0  0  0  0  0  0  0  0  0  0  0
    1.6138    2.7643   -2.7710 H   0  0  0  0  0  0  0  0  0  0  0  0
    4.0264   -0.3155   -3.8936 N   0  0  0  0  0  0  0  0  0  0  0  0
    5.2370   -1.0182   -4.2498 C   0  0  0  0  0  0  0  0  0  0  0  0
    3.3735   -0.0889   -4.6380 H   0  0  0  0  0  0  0  0  0  0  0  0
    6.0272   -0.2909   -4.4877 H   0  0  0  0  0  0  0  0  0  0  0  0
    5.5585   -1.6457   -3.4055 H   0  0  0  0  0  0  0  0  0  0  0  0
    5.0473   -1.6536   -5.1274 H   0  0  0  0  0  0  0  0  0  0  0  0
  1  3  1  0  0  0  0
  1  7  1  0  0  0  0
  1  2  2  0  0  0  0
 33 34  1  0  0  0  0
 34 42  1  0  0  0  0
 34 35  2  0  0  0  0
  8  9  1  0  0  0  0
  9 17  1  0  0  0  0
  9 10  2  0  0  0  0
 18 19  1  0  0  0  0
 19 32  1  0  0  0  0
 19 20  2  0  0  0  0
 22 23  1  0  0  0  0
 23 24  1  0  0  0  0
 23 25  2  0  0  0  0
 33 36  1  0  0  0  0
  8 11  1  0  0  0  0
 42 43  1  0  0  0  0
 21 22  1  0  0  0  0
 18 21  1  0  0  0  0
 32 33  1  0  0  0  0
  7  8  1  0  0  0  0
 17 18  1  0  0  0  0
  3  4  1  0  0  0  0
  3  5  1  0  0  0  0
  3  6  1  0  0  0  0
 36 39  1  0  0  0  0
 36 40  1  0  0  0  0
 36 41  1  0  0  0  0
 11 14  1  0  0  0  0
 11 15  1  0  0  0  0
 11 16  1  0  0  0  0
 43 45  1  0  0  0  0
 43 46  1  0  0  0  0
 43 47  1  0  0  0  0
 22 30  1  0  0  0  0
 22 31  1  0  0  0  0
 21 28  1  0  0  0  0
 21 29  1  0  0  0  0
 33 38  1  0  0  0  0
  8 13  1  0  0  0  0
 18 27  1  0  0  0  0
 42 44  1  0  0  0  0
  7 12  1  0  0  0  0
 32 37  1  0  0  0  0
 17 26  1  0  0  0  0
M  CHG  1  24  -1
M  END
$$$$

  -OEChem-05262214473D

 47 46  0     1  0  0  0  0  0999 V2000
    0.5093   -4.7265    3.0306 C   0  0  0  0  0  0  0  0  0  0  0  0
    1.2735   -4.4402    3.9448 O   0  0  0  0  0  0  0  0  0  0  0  0
   -0.4465   -5.8608    3.1982 C   0  0  0  0  0  0  0  0  0  0  0  0
   -0.0219   -6.8213    2.8645 H   0  0  0  0  0  0  0  0  0  0  0  0
   -0.7314   -6.0185    4.2509 H   0  0  0  0  0  0  0  0  0  0  0  0
   -1.3983   -5.7596    2.6527 H   0  0  0  0  0  0  0  0  0  0  0  0
    0.4252   -4.0886    1.8040 N   0  0  0  0  0  0  0  0  0  0  0  0
    1.2532   -2.9707    1.4349 C   0  0  2  0  0  0  0  0  0  0  0  0
    0.3395   -1.8293    1.0083 C   0  0  0  0  0  0  0  0  0  0  0  0
   -0.8136   -2.0027    0.6194 O   0  0  0  0  0  0  0  0  0  0  0  0
    2.2176   -3.3411    0.3189 C   0  0  0  0  0  0  0  0  0  0  0  0
   -0.2574   -4.4279    1.1287 H   0  0  0  0  0  0  0  0  0  0  0  0
    1.8087   -2.6785    2.3327 H   0  0  0  0  0  0  0  0  0  0  0  0
    1.6793   -3.6366   -0.5890 H   0  0  0  0  0  0  0  0  0  0  0  0
    2.8662   -2.4980    0.0589 H   0  0  0  0  0  0  0  0  0  0  0  0
    2.8538   -4.1816    0.6166 H   0  0  0  0  0  0  0  0  0  0  0  0
    0.9758   -0.5952    1.0708 N   0  0  0  0  0  0  0  0  0  0  0  0
    0.3258    0.6374    0.7059 C   0  0  2  0  0  0  0  0  0  0  0  0
    0.5747    0.8643   -0.7815 C   0  0  0  0  0  0  0  0  0  0  0  0
   -0.2319    1.4297   -1.5169 O   0  0  0  0  0  0  0  0  0  0  0  0
    0.8486    1.8257    1.5219 C   0  0  0  0  0  0  0  0  0  0  0  0
    0.4915    1.7497    3.0058 C   0  0  0  0  0  0  0  0  0  0  0  0
    1.0045    2.8954    3.8844 C   0  0  0  0  0  0  0  0  0  0  0  0
    1.7832    3.6967    3.2920 O   0  5  0  0  0  0  0  0  0  0  0  0
    0.5872    2.9178    5.0751 O   0  0  0  0  0  0  0  0  0  0  0  0
    1.9288   -0.5463    1.4242 H   0  0  0  0  0  0  0  0  0  0  0  0
   -0.7474    0.4853    0.8641 H   0  0  0  0  0  0  0  0  0  0  0  0
    0.4682    2.7654    1.1026 H   0  0  0  0  0  0  0  0  0  0  0  0
    1.9419    1.8755    1.4306 H   0  0  0  0  0  0  0  0  0  0  0  0
   -0.5952    1.6648    3.1253 H   0  0  0  0  0  0  0  0  0  0  0  0
    0.9232    0.8290    3.4187 H   0  0  0  0  0  0  0  0  0  0  0  0
    1.7816    0.3195   -1.1975 N   0  0  0  0  0  0  0  0  0  0  0  0
    2.2417    0.3874   -2.5651 C   0  0  2  0  0  0  0  0  0  0  0  0
    3.3264   -0.6658   -2.7492 C   0  0  0  0  0  0  0  0  0  0  0  0
    3.9785   -1.1275   -1.8150 O   0  0  0  0  0  0  0  0  0  0  0  0
    2.7671    1.7737   -2.9039 C   0  0  0  0  0  0  0  0  0  0  0  0
    2.3931   -0.1180   -0.5146 H   0  0  0  0  0  0  0  0  0  0  0  0
    1.3832    0.1432   -3.2002 H   0  0  0  0  0  0  0  0  0  0  0  0
    3.6276    2.0360   -2.2777 H   0  0  0  0  0  0  0  0  0  0  0  0
    3.0890    1.8316   -3.9489 H   0  0  0  0  0  0  0  0  0  0  0  0
    1.9947    2.5334   -2.7425 H   0  0  0  0  0  0  0  0  0  0  0  0
    3.5102   -0.9978   -4.0841 N   0  0  0  0  0  0  0  0  0  0  0  0
    4.4909   -1.9648   -4.5191 C   0  0  0  0  0  0  0  0  0  0  0  0
    2.9117   -0.5794   -4.7901 H   0  0  0  0  0  0  0  0  0  0  0  0
    5.4312   -1.4494   -4.7642 H   0  0  0  0  0  0  0  0  0  0  0  0
    4.6707   -2.6921   -3.7137 H   0  0  0  0  0  0  0  0  0  0  0  0
    4.1175   -2.4899   -5.4106 H   0  0  0  0  0  0  0  0  0  0  0  0
  1  3  1  0  0  0  0
  1  7  1  0  0  0  0
  1  2  2  0  0  0  0
 33 34  1  0  0  0  0
 34 42  1  0  0  0  0
 34 35  2  0  0  0  0
  8  9  1  0  0  0  0
  9 17  1  0  0  0  0
  9 10  2  0  0  0  0
 18 19  1  0  0  0  0
 19 32  1  0  0  0  0
 19 20  2  0  0  0  0
 22 23  1  0  0  0  0
 23 24  1  0  0  0  0
 23 25  2  0  0  0  0
 33 36  1  0  0  0  0
  8 11  1  0  0  0  0
 42 43  1  0  0  0  0
 21 22  1  0  0  0  0
 18 21  1  0  0  0  0
 32 33  1  0  0  0  0
  7  8  1  0  0  0  0
 17 18  1  0  0  0  0
  3  4  1  0  0  0  0
  3  5  1  0  0  0  0
  3  6  1  0  0  0  0
 36 39  1  0  0  0  0
 36 40  1  0  0  0  0
 36 41  1  0  0  0  0
 11 14  1  0  0  0  0
 11 15  1  0  0  0  0
 11 16  1  0  0  0  0
 43 45  1  0  0  0  0
 43 46  1  0  0  0  0
 43 47  1  0  0  0  0
 22 30  1  0  0  0  0
 22 31  1  0  0  0  0
 21 28  1  0  0  0  0
 21 29  1  0  0  0  0
 33 38  1  0  0  0  0
  8 13  1  0  0  0  0
 18 27  1  0  0  0  0
 42 44  1  0  0  0  0
  7 12  1  0  0  0  0
 32 37  1  0  0  0  0
 17 26  1  0  0  0  0
M  CHG  1  24  -1
M  END
$$$$

  -OEChem-05262214473D

 47 46  0     1  0  0  0  0  0999 V2000
    0.5093   -4.7265    3.0306 C   0  0  0  0  0  0  0  0  0  0  0  0
    1.2735   -4.4402    3.9448 O   0  0  0  0  0  0  0  0  0  0  0  0
   -0.4465   -5.8608    3.1982 C   0  0  0  0  0  0  0  0  0  0  0  0
   -0.0219   -6.8213    2.8645 H   0  0  0  0  0  0  0  0  0  0  0  0
   -0.7314   -6.0185    4.2509 H   0  0  0  0  0  0  0  0  0  0  0  0
   -1.3983   -5.7596    2.6527 H   0  0  0  0  0  0  0  0  0  0  0  0
    0.4252   -4.0886    1.8040 N   0  0  0  0  0  0  0  0  0  0  0  0
    1.2532   -2.9707    1.4349 C   0  0  2  0  0  0  0  0  0  0  0  0
    0.3395   -1.8293    1.0083 C   0  0  0  0  0  0  0  0  0  0  0  0
   -0.8136   -2.0027    0.6194 O   0  0  0  0  0  0  0  0  0  0  0  0
    2.2176   -3.3411    0.3189 C   0  0  0  0  0  0  0  0  0  0  0  0
   -0.2574   -4.4279    1.1287 H   0  0  0  0  0  0  0  0  0  0  0  0
    1.8087   -2.6785    2.3327 H   0  0  0  0  0  0  0  0  0  0  0  0
    1.6793   -3.6366   -0.5890 H   0  0  0  0  0  0  0  0  0  0  0  0
    2.8662   -2.4980    0.0589 H   0  0  0  0  0  0  0  0  0  0  0  0
    2.8538   -4.1816    0.6166 H   0  0  0  0  0  0  0  0  0  0  0  0
    0.9758   -0.5952    1.0708 N   0  0  0  0  0  0  0  0  0  0  0  0
    0.3258    0.6374    0.7059 C   0  0  2  0  0  0  0  0  0  0  0  0
    0.5747    0.8643   -0.7815 C   0  0  0  0  0  0  0  0  0  0  0  0
   -0.0863    1.6485   -1.4592 O   0  0  0  0  0  0  0  0  0  0  0  0
    0.8486    1.8257    1.5219 C   0  0  0  0  0  0  0  0  0  0  0  0
    0.4915    1.7497    3.0058 C   0  0  0  0  0  0  0  0  0  0  0  0
    1.0045    2.8954    3.8844 C   0  0  0  0  0  0  0  0  0  0  0  0
    1.7832    3.6967    3.2920 O   0  5  0  0  0  0  0  0  0  0  0  0
    0.5872    2.9178    5.0751 O   0  0  0  0  0  0  0  0  0  0  0  0
    1.9288   -0.5463    1.4242 H   0  0  0  0  0  0  0  0  0  0  0  0
   -0.7474    0.4853    0.8641 H   0  0  0  0  0  0  0  0  0  0  0  0
    0.4682    2.7654    1.1026 H   0  0  0  0  0  0  0  0  0  0  0  0
    1.9419    1.8755    1.4306 H   0  0  0  0  0  0  0  0  0  0  0  0
   -0.5952    1.6648    3.1253 H   0  0  0  0  0  0  0  0  0  0  0  0
    0.9232    0.8290    3.4187 H   0  0  0  0  0  0  0  0  0  0  0  0
    1.5898    0.0536   -1.2701 N   0  0  0  0  0  0  0  0  0  0  0  0
    2.0067    0.0680   -2.6531 C   0  0  2  0  0  0  0  0  0  0  0  0
    2.7825   -1.2142   -2.9239 C   0  0  0  0  0  0  0  0  0  0  0  0
    3.3270   -1.8687   -2.0371 O   0  0  0  0  0  0  0  0  0  0  0  0
    2.8545    1.2920   -2.9628 C   0  0  0  0  0  0  0  0  0  0  0  0
    2.0928   -0.5554   -0.6316 H   0  0  0  0  0  0  0  0  0  0  0  0
    1.0938    0.0779   -3.2586 H   0  0  0  0  0  0  0  0  0  0  0  0
    3.7736    1.2995   -2.3656 H   0  0  0  0  0  0  0  0  0  0  0  0
    3.1458    1.3162   -4.0180 H   0  0  0  0  0  0  0  0  0  0  0  0
    2.3054    2.2131   -2.7393 H   0  0  0  0  0  0  0  0  0  0  0  0
    2.8320   -1.5185   -4.2770 N   0  0  0  0  0  0  0  0  0  0  0  0
    3.5208   -2.6795   -4.7904 C   0  0  0  0  0  0  0  0  0  0  0  0
    2.3360   -0.9301   -4.9400 H   0  0  0  0  0  0  0  0  0  0  0  0
    4.5524   -2.4062   -5.0573 H   0  0  0  0  0  0  0  0  0  0  0  0
    3.5372   -3.4658   -4.0214 H   0  0  0  0  0  0  0  0  0  0  0  0
    2.9974   -3.0511   -5.6837 H   0  0  0  0  0  0  0  0  0  0  0  0
  1  3  1  0  0  0  0
  1  7  1  0  0  0  0
  1  2  2  0  0  0  0
 33 34  1  0  0  0  0
 34 42  1  0  0  0  0
 34 35  2  0  0  0  0
  8  9  1  0  0  0  0
  9 17  1  0  0  0  0
  9 10  2  0  0  0  0
 18 19  1  0  0  0  0
 19 32  1  0  0  0  0
 19 20  2  0  0  0  0
 22 23  1  0  0  0  0
 23 24  1  0  0  0  0
 23 25  2  0  0  0  0
 33 36  1  0  0  0  0
  8 11  1  0  0  0  0
 42 43  1  0  0  0  0
 21 22  1  0  0  0  0
 18 21  1  0  0  0  0
 32 33  1  0  0  0  0
  7  8  1  0  0  0  0
 17 18  1  0  0  0  0
  3  4  1  0  0  0  0
  3  5  1  0  0  0  0
  3  6  1  0  0  0  0
 36 39  1  0  0  0  0
 36 40  1  0  0  0  0
 36 41  1  0  0  0  0
 11 14  1  0  0  0  0
 11 15  1  0  0  0  0
 11 16  1  0  0  0  0
 43 45  1  0  0  0  0
 43 46  1  0  0  0  0
 43 47  1  0  0  0  0
 22 30  1  0  0  0  0
 22 31  1  0  0  0  0
 21 28  1  0  0  0  0
 21 29  1  0  0  0  0
 33 38  1  0  0  0  0
  8 13  1  0  0  0  0
 18 27  1  0  0  0  0
 42 44  1  0  0  0  0
  7 12  1  0  0  0  0
 32 37  1  0  0  0  0
 17 26  1  0  0  0  0
M  CHG  1  24  -1
M  END
$$$$

  -OEChem-05262214473D

 47 46  0     1  0  0  0  0  0999 V2000
    0.5093   -4.7265    3.0306 C   0  0  0  0  0  0  0  0  0  0  0  0
    1.2735   -4.4402    3.9448 O   0  0  0  0  0  0  0  0  0  0  0  0
   -0.4465   -5.8608    3.1982 C   0  0  0  0  0  0  0  0  0  0  0  0
   -0.0219   -6.8213    2.8645 H   0  0  0  0  0  0  0  0  0  0  0  0
   -0.7314   -6.0185    4.2509 H   0  0  0  0  0  0  0  0  0  0  0  0
   -1.3983   -5.7596    2.6527 H   0  0  0  0  0  0  0  0  0  0  0  0
    0.4252   -4.0886    1.8040 N   0  0  0  0  0  0  0  0  0  0  0  0
    1.2532   -2.9707    1.4349 C   0  0  2  0  0  0  0  0  0  0  0  0
    0.3395   -1.8293    1.0083 C   0  0  0  0  0  0  0  0  0  0  0  0
   -0.8136   -2.0027    0.6194 O   0  0  0  0  0  0  0  0  0  0  0  0
    2.2176   -3.3411    0.3189 C   0  0  0  0  0  0  0  0  0  0  0  0
   -0.2574   -4.4279    1.1287 H   0  0  0  0  0  0  0  0  0  0  0  0
    1.8087   -2.6785    2.3327 H   0  0  0  0  0  0  0  0  0  0  0  0
    1.6793   -3.6366   -0.5890 H   0  0  0  0  0  0  0  0  0  0  0  0
    2.8662   -2.4980    0.0589 H   0  0  0  0  0  0  0  0  0  0  0  0
    2.8538   -4.1816    0.6166 H   0  0  0  0  0  0  0  0  0  0  0  0
    0.9758   -0.5952    1.0708 N   0  0  0  0  0  0  0  0  0  0  0  0
    0.3258    0.6374    0.7059 C   0  0  2  0  0  0  0  0  0  0  0  0
    0.5747    0.8643   -0.7815 C   0  0  0  0  0  0  0  0  0  0  0  0
    0.1118    1.8207   -1.3998 O   0  0  0  0  0  0  0  0  0  0  0  0
    0.8486    1.8257    1.5219 C   0  0  0  0  0  0  0  0  0  0  0  0
    0.4915    1.7497    3.0058 C   0  0  0  0  0  0  0  0  0  0  0  0
    1.0045    2.8954    3.8844 C   0  0  0  0  0  0  0  0  0  0  0  0
    1.7832    3.6967    3.2920 O   0  5  0  0  0  0  0  0  0  0  0  0
    0.5872    2.9178    5.0751 O   0  0  0  0  0  0  0  0  0  0  0  0
    1.9288   -0.5463    1.4242 H   0  0  0  0  0  0  0  0  0  0  0  0
   -0.7474    0.4853    0.8641 H   0  0  0  0  0  0  0  0  0  0  0  0
    0.4682    2.7654    1.1026 H   0  0  0  0  0  0  0  0  0  0  0  0
    1.9419    1.8755    1.4306 H   0  0  0  0  0  0  0  0  0  0  0  0
   -0.5952    1.6648    3.1253 H   0  0  0  0  0  0  0  0  0  0  0  0
    0.9232    0.8290    3.4187 H   0  0  0  0  0  0  0  0  0  0  0  0
    1.3347   -0.1517   -1.3441 N   0  0  0  0  0  0  0  0  0  0  0  0
    1.6956   -0.1774   -2.7426 C   0  0  2  0  0  0  0  0  0  0  0  0
    2.1120   -1.5994   -3.0948 C   0  0  0  0  0  0  0  0  0  0  0  0
    2.5020   -2.4109   -2.2579 O   0  0  0  0  0  0  0  0  0  0  0  0
    2.8150    0.8071   -3.0434 C   0  0  0  0  0  0  0  0  0  0  0  0
    1.6879   -0.8971   -0.7515 H   0  0  0  0  0  0  0  0  0  0  0  0
    0.7954    0.0904   -3.3066 H   0  0  0  0  0  0  0  0  0  0  0  0
    3.7253    0.5549   -2.4873 H   0  0  0  0  0  0  0  0  0  0  0  0
    3.0679    0.8070   -4.1088 H   0  0  0  0  0  0  0  0  0  0  0  0
    2.5248    1.8251   -2.7618 H   0  0  0  0  0  0  0  0  0  0  0  0
    2.0380   -1.8421   -4.4593 N   0  0  0  0  0  0  0  0  0  0  0  0
    2.3930   -3.1135   -5.0454 C   0  0  0  0  0  0  0  0  0  0  0  0
    1.6855   -1.1172   -5.0774 H   0  0  0  0  0  0  0  0  0  0  0  0
    3.4507   -3.0963   -5.3469 H   0  0  0  0  0  0  0  0  0  0  0  0
    2.2351   -3.9140   -4.3077 H   0  0  0  0  0  0  0  0  0  0  0  0
    1.7632   -3.2988   -5.9280 H   0  0  0  0  0  0  0  0  0  0  0  0
  1  3  1  0  0  0  0
  1  7  1  0  0  0  0
  1  2  2  0  0  0  0
 33 34  1  0  0  0  0
 34 42  1  0  0  0  0
 34 35  2  0  0  0  0
  8  9  1  0  0  0  0
  9 17  1  0  0  0  0
  9 10  2  0  0  0  0
 18 19  1  0  0  0  0
 19 32  1  0  0  0  0
 19 20  2  0  0  0  0
 22 23  1  0  0  0  0
 23 24  1  0  0  0  0
 23 25  2  0  0  0  0
 33 36  1  0  0  0  0
  8 11  1  0  0  0  0
 42 43  1  0  0  0  0
 21 22  1  0  0  0  0
 18 21  1  0  0  0  0
 32 33  1  0  0  0  0
  7  8  1  0  0  0  0
 17 18  1  0  0  0  0
  3  4  1  0  0  0  0
  3  5  1  0  0  0  0
  3  6  1  0  0  0  0
 36 39  1  0  0  0  0
 36 40  1  0  0  0  0
 36 41  1  0  0  0  0
 11 14  1  0  0  0  0
 11 15  1  0  0  0  0
 11 16  1  0  0  0  0
 43 45  1  0  0  0  0
 43 46  1  0  0  0  0
 43 47  1  0  0  0  0
 22 30  1  0  0  0  0
 22 31  1  0  0  0  0
 21 28  1  0  0  0  0
 21 29  1  0  0  0  0
 33 38  1  0  0  0  0
  8 13  1  0  0  0  0
 18 27  1  0  0  0  0
 42 44  1  0  0  0  0
  7 12  1  0  0  0  0
 32 37  1  0  0  0  0
 17 26  1  0  0  0  0
M  CHG  1  24  -1
M  END
$$$$

  -OEChem-05262214473D

 47 46  0     1  0  0  0  0  0999 V2000
    0.5093   -4.7265    3.0306 C   0  0  0  0  0  0  0  0  0  0  0  0
    1.2735   -4.4402    3.9448 O   0  0  0  0  0  0  0  0  0  0  0  0
   -0.4465   -5.8608    3.1982 C   0  0  0  0  0  0  0  0  0  0  0  0
   -0.0219   -6.8213    2.8645 H   0  0  0  0  0  0  0  0  0  0  0  0
   -0.7314   -6.0185    4.2509 H   0  0  0  0  0  0  0  0  0  0  0  0
   -1.3983   -5.7596    2.6527 H   0  0  0  0  0  0  0  0  0  0  0  0
    0.4252   -4.0886    1.8040 N   0  0  0  0  0  0  0  0  0  0  0  0
    1.2532   -2.9707    1.4349 C   0  0  2  0  0  0  0  0  0  0  0  0
    0.3395   -1.8293    1.0083 C   0  0  0  0  0  0  0  0  0  0  0  0
   -0.8136   -2.0027    0.6194 O   0  0  0  0  0  0  0  0  0  0  0  0
    2.2176   -3.3411    0.3189 C   0  0  0  0  0  0  0  0  0  0  0  0
   -0.2574   -4.4279    1.1287 H   0  0  0  0  0  0  0  0  0  0  0  0
    1.8087   -2.6785    2.3327 H   0  0  0  0  0  0  0  0  0  0  0  0
    1.6793   -3.6366   -0.5890 H   0  0  0  0  0  0  0  0  0  0  0  0
    2.8662   -2.4980    0.0589 H   0  0  0  0  0  0  0  0  0  0  0  0
    2.8538   -4.1816    0.6166 H   0  0  0  0  0  0  0  0  0  0  0  0
    0.9758   -0.5952    1.0708 N   0  0  0  0  0  0  0  0  0  0  0  0
    0.3258    0.6374    0.7059 C   0  0  2  0  0  0  0  0  0  0  0  0
    0.5747    0.8643   -0.7815 C   0  0  0  0  0  0  0  0  0  0  0  0
    0.3489    1.9345   -1.3427 O   0  0  0  0  0  0  0  0  0  0  0  0
    0.8486    1.8257    1.5219 C   0  0  0  0  0  0  0  0  0  0  0  0
    0.4915    1.7497    3.0058 C   0  0  0  0  0  0  0  0  0  0  0  0
    1.0045    2.8954    3.8844 C   0  0  0  0  0  0  0  0  0  0  0  0
    1.7832    3.6967    3.2920 O   0  5  0  0  0  0  0  0  0  0  0  0
    0.5872    2.9178    5.0751 O   0  0  0  0  0  0  0  0  0  0  0  0
    1.9288   -0.5463    1.4242 H   0  0  0  0  0  0  0  0  0  0  0  0
   -0.7474    0.4853    0.8641 H   0  0  0  0  0  0  0  0  0  0  0  0
    0.4682    2.7654    1.1026 H   0  0  0  0  0  0  0  0  0  0  0  0
    1.9419    1.8755    1.4306 H   0  0  0  0  0  0  0  0  0  0  0  0
   -0.5952    1.6648    3.1253 H   0  0  0  0  0  0  0  0  0  0  0  0
    0.9232    0.8290    3.4187 H   0  0  0  0  0  0  0  0  0  0  0  0
    1.0335   -0.2825   -1.4145 N   0  0  0  0  0  0  0  0  0  0  0  0
    1.3297   -0.3322   -2.8275 C   0  0  2  0  0  0  0  0  0  0  0  0
    1.3606   -1.7949   -3.2504 C   0  0  0  0  0  0  0  0  0  0  0  0
    1.5598   -2.7170   -2.4623 O   0  0  0  0  0  0  0  0  0  0  0  0
    2.6514    0.3520   -3.1402 C   0  0  0  0  0  0  0  0  0  0  0  0
    1.2059   -1.1199   -0.8661 H   0  0  0  0  0  0  0  0  0  0  0  0
    0.5086    0.1798   -3.3409 H   0  0  0  0  0  0  0  0  0  0  0  0
    3.4860   -0.1470   -2.6344 H   0  0  0  0  0  0  0  0  0  0  0  0
    2.8606    0.3386   -4.2149 H   0  0  0  0  0  0  0  0  0  0  0  0
    2.6380    1.3958   -2.8083 H   0  0  0  0  0  0  0  0  0  0  0  0
    1.1824   -1.9465   -4.6184 N   0  0  0  0  0  0  0  0  0  0  0  0
    1.1842   -3.2372   -5.2666 C   0  0  0  0  0  0  0  0  0  0  0  0
    1.0047   -1.1279   -5.1929 H   0  0  0  0  0  0  0  0  0  0  0  0
    2.2013   -3.4725   -5.6134 H   0  0  0  0  0  0  0  0  0  0  0  0
    0.8533   -4.0062   -4.5530 H   0  0  0  0  0  0  0  0  0  0  0  0
    0.4992   -3.2163   -6.1270 H   0  0  0  0  0  0  0  0  0  0  0  0
  1  3  1  0  0  0  0
  1  7  1  0  0  0  0
  1  2  2  0  0  0  0
 33 34  1  0  0  0  0
 34 42  1  0  0  0  0
 34 35  2  0  0  0  0
  8  9  1  0  0  0  0
  9 17  1  0  0  0  0
  9 10  2  0  0  0  0
 18 19  1  0  0  0  0
 19 32  1  0  0  0  0
 19 20  2  0  0  0  0
 22 23  1  0  0  0  0
 23 24  1  0  0  0  0
 23 25  2  0  0  0  0
 33 36  1  0  0  0  0
  8 11  1  0  0  0  0
 42 43  1  0  0  0  0
 21 22  1  0  0  0  0
 18 21  1  0  0  0  0
 32 33  1  0  0  0  0
  7  8  1  0  0  0  0
 17 18  1  0  0  0  0
  3  4  1  0  0  0  0
  3  5  1  0  0  0  0
  3  6  1  0  0  0  0
 36 39  1  0  0  0  0
 36 40  1  0  0  0  0
 36 41  1  0  0  0  0
 11 14  1  0  0  0  0
 11 15  1  0  0  0  0
 11 16  1  0  0  0  0
 43 45  1  0  0  0  0
 43 46  1  0  0  0  0
 43 47  1  0  0  0  0
 22 30  1  0  0  0  0
 22 31  1  0  0  0  0
 21 28  1  0  0  0  0
 21 29  1  0  0  0  0
 33 38  1  0  0  0  0
  8 13  1  0  0  0  0
 18 27  1  0  0  0  0
 42 44  1  0  0  0  0
  7 12  1  0  0  0  0
 32 37  1  0  0  0  0
 17 26  1  0  0  0  0
M  CHG  1  24  -1
M  END
$$$$

  -OEChem-05262214473D

 47 46  0     1  0  0  0  0  0999 V2000
    0.5093   -4.7265    3.0306 C   0  0  0  0  0  0  0  0  0  0  0  0
    1.2735   -4.4402    3.9448 O   0  0  0  0  0  0  0  0  0  0  0  0
   -0.4465   -5.8608    3.1982 C   0  0  0  0  0  0  0  0  0  0  0  0
   -0.0219   -6.8213    2.8645 H   0  0  0  0  0  0  0  0  0  0  0  0
   -0.7314   -6.0185    4.2509 H   0  0  0  0  0  0  0  0  0  0  0  0
   -1.3983   -5.7596    2.6527 H   0  0  0  0  0  0  0  0  0  0  0  0
    0.4252   -4.0886    1.8040 N   0  0  0  0  0  0  0  0  0  0  0  0
    1.2532   -2.9707    1.4349 C   0  0  2  0  0  0  0  0  0  0  0  0
    0.3395   -1.8293    1.0083 C   0  0  0  0  0  0  0  0  0  0  0  0
   -0.8136   -2.0027    0.6194 O   0  0  0  0  0  0  0  0  0  0  0  0
    2.2176   -3.3411    0.3189 C   0  0  0  0  0  0  0  0  0  0  0  0
   -0.2574   -4.4279    1.1287 H   0  0  0  0  0  0  0  0  0  0  0  0
    1.8087   -2.6785    2.3327 H   0  0  0  0  0  0  0  0  0  0  0  0
    1.6793   -3.6366   -0.5890 H   0  0  0  0  0  0  0  0  0  0  0  0
    2.8662   -2.4980    0.0589 H   0  0  0  0  0  0  0  0  0  0  0  0
    2.8538   -4.1816    0.6166 H   0  0  0  0  0  0  0  0  0  0  0  0
    0.9758   -0.5952    1.0708 N   0  0  0  0  0  0  0  0  0  0  0  0
    0.3258    0.6374    0.7059 C   0  0  2  0  0  0  0  0  0  0  0  0
    0.5747    0.8643   -0.7815 C   0  0  0  0  0  0  0  0  0  0  0  0
    0.6089    1.9821   -1.2919 O   0  0  0  0  0  0  0  0  0  0  0  0
    0.8486    1.8257    1.5219 C   0  0  0  0  0  0  0  0  0  0  0  0
    0.4915    1.7497    3.0058 C   0  0  0  0  0  0  0  0  0  0  0  0
    1.0045    2.8954    3.8844 C   0  0  0  0  0  0  0  0  0  0  0  0
    1.7832    3.6967    3.2920 O   0  5  0  0  0  0  0  0  0  0  0  0
    0.5872    2.9178    5.0751 O   0  0  0  0  0  0  0  0  0  0  0  0
    1.9288   -0.5463    1.4242 H   0  0  0  0  0  0  0  0  0  0  0  0
   -0.7474    0.4853    0.8641 H   0  0  0  0  0  0  0  0  0  0  0  0
    0.4682    2.7654    1.1026 H   0  0  0  0  0  0  0  0  0  0  0  0
    1.9419    1.8755    1.4306 H   0  0  0  0  0  0  0  0  0  0  0  0
   -0.5952    1.6648    3.1253 H   0  0  0  0  0  0  0  0  0  0  0  0
    0.9232    0.8290    3.4187 H   0  0  0  0  0  0  0  0  0  0  0  0
    0.7069   -0.3299   -1.4764 N   0  0  0  0  0  0  0  0  0  0  0  0
    0.9340   -0.3857   -2.9019 C   0  0  2  0  0  0  0  0  0  0  0  0
    0.5794   -1.7875   -3.3800 C   0  0  0  0  0  0  0  0  0  0  0  0
    0.5646   -2.7662   -2.6364 O   0  0  0  0  0  0  0  0  0  0  0  0
    2.3748   -0.0421   -3.2466 C   0  0  0  0  0  0  0  0  0  0  0  0
    0.6796   -1.2086   -0.9677 H   0  0  0  0  0  0  0  0  0  0  0  0
    0.2528    0.3400   -3.3593 H   0  0  0  0  0  0  0  0  0  0  0  0
    3.0721   -0.7584   -2.7969 H   0  0  0  0  0  0  0  0  0  0  0  0
    2.5381   -0.0570   -4.3292 H   0  0  0  0  0  0  0  0  0  0  0  0
    2.6371    0.9547   -2.8758 H   0  0  0  0  0  0  0  0  0  0  0  0
    0.3235   -1.8247   -4.7436 N   0  0  0  0  0  0  0  0  0  0  0  0
   -0.0231   -3.0423   -5.4389 C   0  0  0  0  0  0  0  0  0  0  0  0
    0.3400   -0.9616   -5.2788 H   0  0  0  0  0  0  0  0  0  0  0  0
    0.8892   -3.5092   -5.8386 H   0  0  0  0  0  0  0  0  0  0  0  0
   -0.5142   -3.7360   -4.7407 H   0  0  0  0  0  0  0  0  0  0  0  0
   -0.7085   -2.8090   -6.2670 H   0  0  0  0  0  0  0  0  0  0  0  0
  1  3  1  0  0  0  0
  1  7  1  0  0  0  0
  1  2  2  0  0  0  0
 33 34  1  0  0  0  0
 34 42  1  0  0  0  0
 34 35  2  0  0  0  0
  8  9  1  0  0  0  0
  9 17  1  0  0  0  0
  9 10  2  0  0  0  0
 18 19  1  0  0  0  0
 19 32  1  0  0  0  0
 19 20  2  0  0  0  0
 22 23  1  0  0  0  0
 23 24  1  0  0  0  0
 23 25  2  0  0  0  0
 33 36  1  0  0  0  0
  8 11  1  0  0  0  0
 42 43  1  0  0  0  0
 21 22  1  0  0  0  0
 18 21  1  0  0  0  0
 32 33  1  0  0  0  0
  7  8  1  0  0  0  0
 17 18  1  0  0  0  0
  3  4  1  0  0  0  0
  3  5  1  0  0  0  0
  3  6  1  0  0  0  0
 36 39  1  0  0  0  0
 36 40  1  0  0  0  0
 36 41  1  0  0  0  0
 11 14  1  0  0  0  0
 11 15  1  0  0  0  0
 11 16  1  0  0  0  0
 43 45  1  0  0  0  0
 43 46  1  0  0  0  0
 43 47  1  0  0  0  0
 22 30  1  0  0  0  0
 22 31  1  0  0  0  0
 21 28  1  0  0  0  0
 21 29  1  0  0  0  0
 33 38  1  0  0  0  0
  8 13  1  0  0  0  0
 18 27  1  0  0  0  0
 42 44  1  0  0  0  0
  7 12  1  0  0  0  0
 32 37  1  0  0  0  0
 17 26  1  0  0  0  0
M  CHG  1  24  -1
M  END
$$$$

  -OEChem-05262214473D

 47 46  0     1  0  0  0  0  0999 V2000
    0.5093   -4.7265    3.0306 C   0  0  0  0  0  0  0  0  0  0  0  0
    1.2735   -4.4402    3.9448 O   0  0  0  0  0  0  0  0  0  0  0  0
   -0.4465   -5.8608    3.1982 C   0  0  0  0  0  0  0  0  0  0  0  0
   -0.0219   -6.8213    2.8645 H   0  0  0  0  0  0  0  0  0  0  0  0
   -0.7314   -6.0185    4.2509 H   0  0  0  0  0  0  0  0  0  0  0  0
   -1.3983   -5.7596    2.6527 H   0  0  0  0  0  0  0  0  0  0  0  0
    0.4252   -4.0886    1.8040 N   0  0  0  0  0  0  0  0  0  0  0  0
    1.2532   -2.9707    1.4349 C   0  0  2  0  0  0  0  0  0  0  0  0
    0.3395   -1.8293    1.0083 C   0  0  0  0  0  0  0  0  0  0  0  0
   -0.8136   -2.0027    0.6194 O   0  0  0  0  0  0  0  0  0  0  0  0
    2.2176   -3.3411    0.3189 C   0  0  0  0  0  0  0  0  0  0  0  0
   -0.2574   -4.4279    1.1287 H   0  0  0  0  0  0  0  0  0  0  0  0
    1.8087   -2.6785    2.3327 H   0  0  0  0  0  0  0  0  0  0  0  0
    1.6793   -3.6366   -0.5890 H   0  0  0  0  0  0  0  0  0  0  0  0
    2.8662   -2.4980    0.0589 H   0  0  0  0  0  0  0  0  0  0  0  0
    2.8538   -4.1816    0.6166 H   0  0  0  0  0  0  0  0  0  0  0  0
    0.9758   -0.5952    1.0708 N   0  0  0  0  0  0  0  0  0  0  0  0
    0.3258    0.6374    0.7059 C   0  0  2  0  0  0  0  0  0  0  0  0
    0.5747    0.8643   -0.7815 C   0  0  0  0  0  0  0  0  0  0  0  0
    0.8739    1.9603   -1.2509 O   0  0  0  0  0  0  0  0  0  0  0  0
    0.8486    1.8257    1.5219 C   0  0  0  0  0  0  0  0  0  0  0  0
    0.4915    1.7497    3.0058 C   0  0  0  0  0  0  0  0  0  0  0  0
    1.0045    2.8954    3.8844 C   0  0  0  0  0  0  0  0  0  0  0  0
    1.7832    3.6967    3.2920 O   0  5  0  0  0  0  0  0  0  0  0  0
    0.5872    2.9178    5.0751 O   0  0  0  0  0  0  0  0  0  0  0  0
    1.9288   -0.5463    1.4242 H   0  0  0  0  0  0  0  0  0  0  0  0
   -0.7474    0.4853    0.8641 H   0  0  0  0  0  0  0  0  0  0  0  0
    0.4682    2.7654    1.1026 H   0  0  0  0  0  0  0  0  0  0  0  0
    1.9419    1.8755    1.4306 H   0  0  0  0  0  0  0  0  0  0  0  0
   -0.5952    1.6648    3.1253 H   0  0  0  0  0  0  0  0  0  0  0  0
    0.9232    0.8290    3.4187 H   0  0  0  0  0  0  0  0  0  0  0  0
    0.3771   -0.2906   -1.5256 N   0  0  0  0  0  0  0  0  0  0  0  0
    0.5354   -0.3344   -2.9608 C   0  0  2  0  0  0  0  0  0  0  0  0
   -0.1783   -1.5777   -3.4748 C   0  0  0  0  0  0  0  0  0  0  0  0
   -0.4159   -2.5552   -2.7683 O   0  0  0  0  0  0  0  0  0  0  0  0
    2.0040   -0.3484   -3.3554 C   0  0  0  0  0  0  0  0  0  0  0  0
    0.1450   -1.1572   -1.0493 H   0  0  0  0  0  0  0  0  0  0  0  0
    0.0454    0.5602   -3.3604 H   0  0  0  0  0  0  0  0  0  0  0  0
    2.5116   -1.2375   -2.9638 H   0  0  0  0  0  0  0  0  0  0  0  0
    2.1223   -0.3528   -4.4440 H   0  0  0  0  0  0  0  0  0  0  0  0
    2.5223    0.5316   -2.9596 H   0  0  0  0  0  0  0  0  0  0  0  0
   -0.4803   -1.4849   -4.8263 N   0  0  0  0  0  0  0  0  0  0  0  0
   -1.1467   -2.5419   -5.5506 C   0  0  0  0  0  0  0  0  0  0  0  0
   -0.2634   -0.6294   -5.3291 H   0  0  0  0  0  0  0  0  0  0  0  0
   -0.3962   -3.2039   -6.0072 H   0  0  0  0  0  0  0  0  0  0  0  0
   -1.7741   -3.1219   -4.8579 H   0  0  0  0  0  0  0  0  0  0  0  0
   -1.7778   -2.1049   -6.3385 H   0  0  0  0  0  0  0  0  0  0  0  0
  1  3  1  0  0  0  0
  1  7  1  0  0  0  0
  1  2  2  0  0  0  0
 33 34  1  0  0  0  0
 34 42  1  0  0  0  0
 34 35  2  0  0  0  0
  8  9  1  0  0  0  0
  9 17  1  0  0  0  0
  9 10  2  0  0  0  0
 18 19  1  0  0  0  0
 19 32  1  0  0  0  0
 19 20  2  0  0  0  0
 22 23  1  0  0  0  0
 23 24  1  0  0  0  0
 23 25  2  0  0  0  0
 33 36  1  0  0  0  0
  8 11  1  0  0  0  0
 42 43  1  0  0  0  0
 21 22  1  0  0  0  0
 18 21  1  0  0  0  0
 32 33  1  0  0  0  0
  7  8  1  0  0  0  0
 17 18  1  0  0  0  0
  3  4  1  0  0  0  0
  3  5  1  0  0  0  0
  3  6  1  0  0  0  0
 36 39  1  0  0  0  0
 36 40  1  0  0  0  0
 36 41  1  0  0  0  0
 11 14  1  0  0  0  0
 11 15  1  0  0  0  0
 11 16  1  0  0  0  0
 43 45  1  0  0  0  0
 43 46  1  0  0  0  0
 43 47  1  0  0  0  0
 22 30  1  0  0  0  0
 22 31  1  0  0  0  0
 21 28  1  0  0  0  0
 21 29  1  0  0  0  0
 33 38  1  0  0  0  0
  8 13  1  0  0  0  0
 18 27  1  0  0  0  0
 42 44  1  0  0  0  0
  7 12  1  0  0  0  0
 32 37  1  0  0  0  0
 17 26  1  0  0  0  0
M  CHG  1  24  -1
M  END
$$$$

  -OEChem-05262214473D

 47 46  0     1  0  0  0  0  0999 V2000
    0.5093   -4.7265    3.0306 C   0  0  0  0  0  0  0  0  0  0  0  0
    1.2735   -4.4402    3.9448 O   0  0  0  0  0  0  0  0  0  0  0  0
   -0.4465   -5.8608    3.1982 C   0  0  0  0  0  0  0  0  0  0  0  0
   -0.0219   -6.8213    2.8645 H   0  0  0  0  0  0  0  0  0  0  0  0
   -0.7314   -6.0185    4.2509 H   0  0  0  0  0  0  0  0  0  0  0  0
   -1.3983   -5.7596    2.6527 H   0  0  0  0  0  0  0  0  0  0  0  0
    0.4252   -4.0886    1.8040 N   0  0  0  0  0  0  0  0  0  0  0  0
    1.2532   -2.9707    1.4349 C   0  0  2  0  0  0  0  0  0  0  0  0
    0.3395   -1.8293    1.0083 C   0  0  0  0  0  0  0  0  0  0  0  0
   -0.8136   -2.0027    0.6194 O   0  0  0  0  0  0  0  0  0  0  0  0
    2.2176   -3.3411    0.3189 C   0  0  0  0  0  0  0  0  0  0  0  0
   -0.2574   -4.4279    1.1287 H   0  0  0  0  0  0  0  0  0  0  0  0
    1.8087   -2.6785    2.3327 H   0  0  0  0  0  0  0  0  0  0  0  0
    1.6793   -3.6366   -0.5890 H   0  0  0  0  0  0  0  0  0  0  0  0
    2.8662   -2.4980    0.0589 H   0  0  0  0  0  0  0  0  0  0  0  0
    2.8538   -4.1816    0.6166 H   0  0  0  0  0  0  0  0  0  0  0  0
    0.9758   -0.5952    1.0708 N   0  0  0  0  0  0  0  0  0  0  0  0
    0.3258    0.6374    0.7059 C   0  0  2  0  0  0  0  0  0  0  0  0
    0.5747    0.8643   -0.7815 C   0  0  0  0  0  0  0  0  0  0  0  0
    1.1261    1.8707   -1.2224 O   0  0  0  0  0  0  0  0  0  0  0  0
    0.8486    1.8257    1.5219 C   0  0  0  0  0  0  0  0  0  0  0  0
    0.4915    1.7497    3.0058 C   0  0  0  0  0  0  0  0  0  0  0  0
    1.0045    2.8954    3.8844 C   0  0  0  0  0  0  0  0  0  0  0  0
    1.7832    3.6967    3.2920 O   0  5  0  0  0  0  0  0  0  0  0  0
    0.5872    2.9178    5.0751 O   0  0  0  0  0  0  0  0  0  0  0  0
    1.9288   -0.5463    1.4242 H   0  0  0  0  0  0  0  0  0  0  0  0
   -0.7474    0.4853    0.8641 H   0  0  0  0  0  0  0  0  0  0  0  0
    0.4682    2.7654    1.1026 H   0  0  0  0  0  0  0  0  0  0  0  0
    1.9419    1.8755    1.4306 H   0  0  0  0  0  0  0  0  0  0  0  0
   -0.5952    1.6648    3.1253 H   0  0  0  0  0  0  0  0  0  0  0  0
    0.9232    0.8290    3.4187 H   0  0  0  0  0  0  0  0  0  0  0  0
    0.0666   -0.1673   -1.5587 N   0  0  0  0  0  0  0  0  0  0  0  0
    0.1610   -0.1817   -3.0001 C   0  0  2  0  0  0  0  0  0  0  0  0
   -0.8609   -1.1798   -3.5284 C   0  0  0  0  0  0  0  0  0  0  0  0
   -1.3148   -2.0982   -2.8490 O   0  0  0  0  0  0  0  0  0  0  0  0
    1.5643   -0.5462   -3.4591 C   0  0  0  0  0  0  0  0  0  0  0  0
   -0.3615   -0.9691   -1.1054 H   0  0  0  0  0  0  0  0  0  0  0  0
   -0.0994    0.8252   -3.3442 H   0  0  0  0  0  0  0  0  0  0  0  0
    1.8429   -1.5518   -3.1237 H   0  0  0  0  0  0  0  0  0  0  0  0
    1.6415   -0.5288   -4.5513 H   0  0  0  0  0  0  0  0  0  0  0  0
    2.3014    0.1554   -3.0539 H   0  0  0  0  0  0  0  0  0  0  0  0
   -1.1741   -0.9503   -4.8608 N   0  0  0  0  0  0  0  0  0  0  0  0
   -2.1100   -1.7702   -5.5941 C   0  0  0  0  0  0  0  0  0  0  0  0
   -0.7644   -0.1542   -5.3405 H   0  0  0  0  0  0  0  0  0  0  0  0
   -1.5672   -2.5775   -6.1076 H   0  0  0  0  0  0  0  0  0  0  0  0
   -2.8406   -2.2057   -4.8966 H   0  0  0  0  0  0  0  0  0  0  0  0
   -2.6356   -1.1519   -6.3367 H   0  0  0  0  0  0  0  0  0  0  0  0
  1  3  1  0  0  0  0
  1  7  1  0  0  0  0
  1  2  2  0  0  0  0
 33 34  1  0  0  0  0
 34 42  1  0  0  0  0
 34 35  2  0  0  0  0
  8  9  1  0  0  0  0
  9 17  1  0  0  0  0
  9 10  2  0  0  0  0
 18 19  1  0  0  0  0
 19 32  1  0  0  0  0
 19 20  2  0  0  0  0
 22 23  1  0  0  0  0
 23 24  1  0  0  0  0
 23 25  2  0  0  0  0
 33 36  1  0  0  0  0
  8 11  1  0  0  0  0
 42 43  1  0  0  0  0
 21 22  1  0  0  0  0
 18 21  1  0  0  0  0
 32 33  1  0  0  0  0
  7  8  1  0  0  0  0
 17 18  1  0  0  0  0
  3  4  1  0  0  0  0
  3  5  1  0  0  0  0
  3  6  1  0  0  0  0
 36 39  1  0  0  0  0
 36 40  1  0  0  0  0
 36 41  1  0  0  0  0
 11 14  1  0  0  0  0
 11 15  1  0  0  0  0
 11 16  1  0  0  0  0
 43 45  1  0  0  0  0
 43 46  1  0  0  0  0
 43 47  1  0  0  0  0
 22 30  1  0  0  0  0
 22 31  1  0  0  0  0
 21 28  1  0  0  0  0
 21 29  1  0  0  0  0
 33 38  1  0  0  0  0
  8 13  1  0  0  0  0
 18 27  1  0  0  0  0
 42 44  1  0  0  0  0
  7 12  1  0  0  0  0
 32 37  1  0  0  0  0
 17 26  1  0  0  0  0
M  CHG  1  24  -1
M  END
$$$$

  -OEChem-05262214473D

 47 46  0     1  0  0  0  0  0999 V2000
    0.5093   -4.7265    3.0306 C   0  0  0  0  0  0  0  0  0  0  0  0
    1.2735   -4.4402    3.9448 O   0  0  0  0  0  0  0  0  0  0  0  0
   -0.4465   -5.8608    3.1982 C   0  0  0  0  0  0  0  0  0  0  0  0
   -0.0219   -6.8213    2.8645 H   0  0  0  0  0  0  0  0  0  0  0  0
   -0.7314   -6.0185    4.2509 H   0  0  0  0  0  0  0  0  0  0  0  0
   -1.3983   -5.7596    2.6527 H   0  0  0  0  0  0  0  0  0  0  0  0
    0.4252   -4.0886    1.8040 N   0  0  0  0  0  0  0  0  0  0  0  0
    1.2532   -2.9707    1.4349 C   0  0  2  0  0  0  0  0  0  0  0  0
    0.3395   -1.8293    1.0083 C   0  0  0  0  0  0  0  0  0  0  0  0
   -0.8136   -2.0027    0.6194 O   0  0  0  0  0  0  0  0  0  0  0  0
    2.2176   -3.3411    0.3189 C   0  0  0  0  0  0  0  0  0  0  0  0
   -0.2574   -4.4279    1.1287 H   0  0  0  0  0  0  0  0  0  0  0  0
    1.8087   -2.6785    2.3327 H   0  0  0  0  0  0  0  0  0  0  0  0
    1.6793   -3.6366   -0.5890 H   0  0  0  0  0  0  0  0  0  0  0  0
    2.8662   -2.4980    0.0589 H   0  0  0  0  0  0  0  0  0  0  0  0
    2.8538   -4.1816    0.6166 H   0  0  0  0  0  0  0  0  0  0  0  0
    0.9758   -0.5952    1.0708 N   0  0  0  0  0  0  0  0  0  0  0  0
    0.3258    0.6374    0.7059 C   0  0  2  0  0  0  0  0  0  0  0  0
    0.5747    0.8643   -0.7815 C   0  0  0  0  0  0  0  0  0  0  0  0
    1.3481    1.7192   -1.2083 O   0  0  0  0  0  0  0  0  0  0  0  0
    0.8486    1.8257    1.5219 C   0  0  0  0  0  0  0  0  0  0  0  0
    0.4915    1.7497    3.0058 C   0  0  0  0  0  0  0  0  0  0  0  0
    1.0045    2.8954    3.8844 C   0  0  0  0  0  0  0  0  0  0  0  0
    1.7832    3.6967    3.2920 O   0  5  0  0  0  0  0  0  0  0  0  0
    0.5872    2.9178    5.0751 O   0  0  0  0  0  0  0  0  0  0  0  0
    1.9288   -0.5463    1.4242 H   0  0  0  0  0  0  0  0  0  0  0  0
   -0.7474    0.4853    0.8641 H   0  0  0  0  0  0  0  0  0  0  0  0
    0.4682    2.7654    1.1026 H   0  0  0  0  0  0  0  0  0  0  0  0
    1.9419    1.8755    1.4306 H   0  0  0  0  0  0  0  0  0  0  0  0
   -0.5952    1.6648    3.1253 H   0  0  0  0  0  0  0  0  0  0  0  0
    0.9232    0.8290    3.4187 H   0  0  0  0  0  0  0  0  0  0  0  0
   -0.2035    0.0316   -1.5736 N   0  0  0  0  0  0  0  0  0  0  0  0
   -0.1636    0.0619   -3.0173 C   0  0  2  0  0  0  0  0  0  0  0  0
   -1.4219   -0.6209   -3.5370 C   0  0  0  0  0  0  0  0  0  0  0  0
   -2.0708   -1.4266   -2.8730 O   0  0  0  0  0  0  0  0  0  0  0  0
    1.0857   -0.6218   -3.5508 C   0  0  0  0  0  0  0  0  0  0  0  0
   -0.8055   -0.6571   -1.1321 H   0  0  0  0  0  0  0  0  0  0  0  0
   -0.1717    1.1170   -3.3118 H   0  0  0  0  0  0  0  0  0  0  0  0
    1.1114   -1.6799   -3.2657 H   0  0  0  0  0  0  0  0  0  0  0  0
    1.1286   -0.5729   -4.6438 H   0  0  0  0  0  0  0  0  0  0  0  0
    1.9894   -0.1481   -3.1524 H   0  0  0  0  0  0  0  0  0  0  0  0
   -1.7106   -0.2574   -4.8449 N   0  0  0  0  0  0  0  0  0  0  0  0
   -2.8474   -0.7799   -5.5664 C   0  0  0  0  0  0  0  0  0  0  0  0
   -1.1287    0.4318   -5.3120 H   0  0  0  0  0  0  0  0  0  0  0  0
   -2.5440   -1.6726   -6.1330 H   0  0  0  0  0  0  0  0  0  0  0  0
   -3.6410   -1.0500   -4.8542 H   0  0  0  0  0  0  0  0  0  0  0  0
   -3.2235   -0.0148   -6.2616 H   0  0  0  0  0  0  0  0  0  0  0  0
  1  3  1  0  0  0  0
  1  7  1  0  0  0  0
  1  2  2  0  0  0  0
 33 34  1  0  0  0  0
 34 42  1  0  0  0  0
 34 35  2  0  0  0  0
  8  9  1  0  0  0  0
  9 17  1  0  0  0  0
  9 10  2  0  0  0  0
 18 19  1  0  0  0  0
 19 32  1  0  0  0  0
 19 20  2  0  0  0  0
 22 23  1  0  0  0  0
 23 24  1  0  0  0  0
 23 25  2  0  0  0  0
 33 36  1  0  0  0  0
  8 11  1  0  0  0  0
 42 43  1  0  0  0  0
 21 22  1  0  0  0  0
 18 21  1  0  0  0  0
 32 33  1  0  0  0  0
  7  8  1  0  0  0  0
 17 18  1  0  0  0  0
  3  4  1  0  0  0  0
  3  5  1  0  0  0  0
  3  6  1  0  0  0  0
 36 39  1  0  0  0  0
 36 40  1  0  0  0  0
 36 41  1  0  0  0  0
 11 14  1  0  0  0  0
 11 15  1  0  0  0  0
 11 16  1  0  0  0  0
 43 45  1  0  0  0  0
 43 46  1  0  0  0  0
 43 47  1  0  0  0  0
 22 30  1  0  0  0  0
 22 31  1  0  0  0  0
 21 28  1  0  0  0  0
 21 29  1  0  0  0  0
 33 38  1  0  0  0  0
  8 13  1  0  0  0  0
 18 27  1  0  0  0  0
 42 44  1  0  0  0  0
  7 12  1  0  0  0  0
 32 37  1  0  0  0  0
 17 26  1  0  0  0  0
M  CHG  1  24  -1
M  END
$$$$

  -OEChem-05262214473D

 47 46  0     1  0  0  0  0  0999 V2000
    0.5093   -4.7265    3.0306 C   0  0  0  0  0  0  0  0  0  0  0  0
    1.2735   -4.4402    3.9448 O   0  0  0  0  0  0  0  0  0  0  0  0
   -0.4465   -5.8608    3.1982 C   0  0  0  0  0  0  0  0  0  0  0  0
   -0.0219   -6.8213    2.8645 H   0  0  0  0  0  0  0  0  0  0  0  0
   -0.7314   -6.0185    4.2509 H   0  0  0  0  0  0  0  0  0  0  0  0
   -1.3983   -5.7596    2.6527 H   0  0  0  0  0  0  0  0  0  0  0  0
    0.4252   -4.0886    1.8040 N   0  0  0  0  0  0  0  0  0  0  0  0
    1.2532   -2.9707    1.4349 C   0  0  2  0  0  0  0  0  0  0  0  0
    0.3395   -1.8293    1.0083 C   0  0  0  0  0  0  0  0  0  0  0  0
   -0.8136   -2.0027    0.6194 O   0  0  0  0  0  0  0  0  0  0  0  0
    2.2176   -3.3411    0.3189 C   0  0  0  0  0  0  0  0  0  0  0  0
   -0.2574   -4.4279    1.1287 H   0  0  0  0  0  0  0  0  0  0  0  0
    1.8087   -2.6785    2.3327 H   0  0  0  0  0  0  0  0  0  0  0  0
    1.6793   -3.6366   -0.5890 H   0  0  0  0  0  0  0  0  0  0  0  0
    2.8662   -2.4980    0.0589 H   0  0  0  0  0  0  0  0  0  0  0  0
    2.8538   -4.1816    0.6166 H   0  0  0  0  0  0  0  0  0  0  0  0
    0.9758   -0.5952    1.0708 N   0  0  0  0  0  0  0  0  0  0  0  0
    0.3258    0.6374    0.7059 C   0  0  2  0  0  0  0  0  0  0  0  0
    0.5747    0.8643   -0.7815 C   0  0  0  0  0  0  0  0  0  0  0  0
    1.5248    1.5163   -1.2097 O   0  0  0  0  0  0  0  0  0  0  0  0
    0.8486    1.8257    1.5219 C   0  0  0  0  0  0  0  0  0  0  0  0
    0.4915    1.7497    3.0058 C   0  0  0  0  0  0  0  0  0  0  0  0
    1.0045    2.8954    3.8844 C   0  0  0  0  0  0  0  0  0  0  0  0
    1.7832    3.6967    3.2920 O   0  5  0  0  0  0  0  0  0  0  0  0
    0.5872    2.9178    5.0751 O   0  0  0  0  0  0  0  0  0  0  0  0
    1.9288   -0.5463    1.4242 H   0  0  0  0  0  0  0  0  0  0  0  0
   -0.7474    0.4853    0.8641 H   0  0  0  0  0  0  0  0  0  0  0  0
    0.4682    2.7654    1.1026 H   0  0  0  0  0  0  0  0  0  0  0  0
    1.9419    1.8755    1.4306 H   0  0  0  0  0  0  0  0  0  0  0  0
   -0.5952    1.6648    3.1253 H   0  0  0  0  0  0  0  0  0  0  0  0
    0.9232    0.8290    3.4187 H   0  0  0  0  0  0  0  0  0  0  0  0
   -0.4148    0.2925   -1.5692 N   0  0  0  0  0  0  0  0  0  0  0  0
   -0.4163    0.3799   -3.0111 C   0  0  2  0  0  0  0  0  0  0  0  0
   -1.8229    0.0610   -3.5001 C   0  0  0  0  0  0  0  0  0  0  0  0
   -2.6324   -0.5859   -2.8388 O   0  0  0  0  0  0  0  0  0  0  0  0
    0.6007   -0.5701   -3.6240 C   0  0  0  0  0  0  0  0  0  0  0  0
   -1.1566   -0.2426   -1.1277 H   0  0  0  0  0  0  0  0  0  0  0  0
   -0.1667    1.4158   -3.2654 H   0  0  0  0  0  0  0  0  0  0  0  0
    0.3671   -1.6129   -3.3800 H   0  0  0  0  0  0  0  0  0  0  0  0
    0.6185   -0.4821   -4.7154 H   0  0  0  0  0  0  0  0  0  0  0  0
    1.6076   -0.3585   -3.2484 H   0  0  0  0  0  0  0  0  0  0  0  0
   -2.0533    0.5467   -4.7796 N   0  0  0  0  0  0  0  0  0  0  0  0
   -3.3086    0.3617   -5.4695 C   0  0  0  0  0  0  0  0  0  0  0  0
   -1.3317    1.0886   -5.2458 H   0  0  0  0  0  0  0  0  0  0  0  0
   -3.2601   -0.5509   -6.0817 H   0  0  0  0  0  0  0  0  0  0  0  0
   -4.1207    0.2667   -4.7336 H   0  0  0  0  0  0  0  0  0  0  0  0
   -3.5015    1.2287   -6.1184 H   0  0  0  0  0  0  0  0  0  0  0  0
  1  3  1  0  0  0  0
  1  7  1  0  0  0  0
  1  2  2  0  0  0  0
 33 34  1  0  0  0  0
 34 42  1  0  0  0  0
 34 35  2  0  0  0  0
  8  9  1  0  0  0  0
  9 17  1  0  0  0  0
  9 10  2  0  0  0  0
 18 19  1  0  0  0  0
 19 32  1  0  0  0  0
 19 20  2  0  0  0  0
 22 23  1  0  0  0  0
 23 24  1  0  0  0  0
 23 25  2  0  0  0  0
 33 36  1  0  0  0  0
  8 11  1  0  0  0  0
 42 43  1  0  0  0  0
 21 22  1  0  0  0  0
 18 21  1  0  0  0  0
 32 33  1  0  0  0  0
  7  8  1  0  0  0  0
 17 18  1  0  0  0  0
  3  4  1  0  0  0  0
  3  5  1  0  0  0  0
  3  6  1  0  0  0  0
 36 39  1  0  0  0  0
 36 40  1  0  0  0  0
 36 41  1  0  0  0  0
 11 14  1  0  0  0  0
 11 15  1  0  0  0  0
 11 16  1  0  0  0  0
 43 45  1  0  0  0  0
 43 46  1  0  0  0  0
 43 47  1  0  0  0  0
 22 30  1  0  0  0  0
 22 31  1  0  0  0  0
 21 28  1  0  0  0  0
 21 29  1  0  0  0  0
 33 38  1  0  0  0  0
  8 13  1  0  0  0  0
 18 27  1  0  0  0  0
 42 44  1  0  0  0  0
  7 12  1  0  0  0  0
 32 37  1  0  0  0  0
 17 26  1  0  0  0  0
M  CHG  1  24  -1
M  END
$$$$

  -OEChem-05262214473D

 47 46  0     1  0  0  0  0  0999 V2000
    0.5093   -4.7265    3.0306 C   0  0  0  0  0  0  0  0  0  0  0  0
    1.2735   -4.4402    3.9448 O   0  0  0  0  0  0  0  0  0  0  0  0
   -0.4465   -5.8608    3.1982 C   0  0  0  0  0  0  0  0  0  0  0  0
   -0.0219   -6.8213    2.8645 H   0  0  0  0  0  0  0  0  0  0  0  0
   -0.7314   -6.0185    4.2509 H   0  0  0  0  0  0  0  0  0  0  0  0
   -1.3983   -5.7596    2.6527 H   0  0  0  0  0  0  0  0  0  0  0  0
    0.4252   -4.0886    1.8040 N   0  0  0  0  0  0  0  0  0  0  0  0
    1.2532   -2.9707    1.4349 C   0  0  2  0  0  0  0  0  0  0  0  0
    0.3395   -1.8293    1.0083 C   0  0  0  0  0  0  0  0  0  0  0  0
   -0.8136   -2.0027    0.6194 O   0  0  0  0  0  0  0  0  0  0  0  0
    2.2176   -3.3411    0.3189 C   0  0  0  0  0  0  0  0  0  0  0  0
   -0.2574   -4.4279    1.1287 H   0  0  0  0  0  0  0  0  0  0  0  0
    1.8087   -2.6785    2.3327 H   0  0  0  0  0  0  0  0  0  0  0  0
    1.6793   -3.6366   -0.5890 H   0  0  0  0  0  0  0  0  0  0  0  0
    2.8662   -2.4980    0.0589 H   0  0  0  0  0  0  0  0  0  0  0  0
    2.8538   -4.1816    0.6166 H   0  0  0  0  0  0  0  0  0  0  0  0
    0.9758   -0.5952    1.0708 N   0  0  0  0  0  0  0  0  0  0  0  0
    0.3258    0.6374    0.7059 C   0  0  2  0  0  0  0  0  0  0  0  0
    0.5747    0.8643   -0.7815 C   0  0  0  0  0  0  0  0  0  0  0  0
    1.6443    1.2757   -1.2264 O   0  0  0  0  0  0  0  0  0  0  0  0
    0.8486    1.8257    1.5219 C   0  0  0  0  0  0  0  0  0  0  0  0
    0.4915    1.7497    3.0058 C   0  0  0  0  0  0  0  0  0  0  0  0
    1.0045    2.8954    3.8844 C   0  0  0  0  0  0  0  0  0  0  0  0
    1.7832    3.6967    3.2920 O   0  5  0  0  0  0  0  0  0  0  0  0
    0.5872    2.9178    5.0751 O   0  0  0  0  0  0  0  0  0  0  0  0
    1.9288   -0.5463    1.4242 H   0  0  0  0  0  0  0  0  0  0  0  0
   -0.7474    0.4853    0.8641 H   0  0  0  0  0  0  0  0  0  0  0  0
    0.4682    2.7654    1.1026 H   0  0  0  0  0  0  0  0  0  0  0  0
    1.9419    1.8755    1.4306 H   0  0  0  0  0  0  0  0  0  0  0  0
   -0.5952    1.6648    3.1253 H   0  0  0  0  0  0  0  0  0  0  0  0
    0.9232    0.8290    3.4187 H   0  0  0  0  0  0  0  0  0  0  0  0
   -0.5528    0.5977   -1.5457 N   0  0  0  0  0  0  0  0  0  0  0  0
   -0.5799    0.7506   -2.9819 C   0  0  2  0  0  0  0  0  0  0  0  0
   -2.0368    0.8193   -3.4202 C   0  0  0  0  0  0  0  0  0  0  0  0
   -2.9614    0.3664   -2.7486 O   0  0  0  0  0  0  0  0  0  0  0  0
    0.1425   -0.3948   -3.6740 C   0  0  0  0  0  0  0  0  0  0  0  0
   -1.3910    0.2462   -1.0923 H   0  0  0  0  0  0  0  0  0  0  0  0
   -0.0846    1.7012   -3.2081 H   0  0  0  0  0  0  0  0  0  0  0  0
   -0.3393   -1.3555   -3.4590 H   0  0  0  0  0  0  0  0  0  0  0  0
    0.1459   -0.2626   -4.7610 H   0  0  0  0  0  0  0  0  0  0  0  0
    1.1821   -0.4612   -3.3353 H   0  0  0  0  0  0  0  0  0  0  0  0
   -2.1788    1.4072   -4.6693 N   0  0  0  0  0  0  0  0  0  0  0  0
   -3.4622    1.5767   -5.3098 C   0  0  0  0  0  0  0  0  0  0  0  0
   -1.3593    1.7714   -5.1463 H   0  0  0  0  0  0  0  0  0  0  0  0
   -3.6667    0.7113   -5.9572 H   0  0  0  0  0  0  0  0  0  0  0  0
   -4.2471    1.6545   -4.5431 H   0  0  0  0  0  0  0  0  0  0  0  0
   -3.4506    2.4940   -5.9169 H   0  0  0  0  0  0  0  0  0  0  0  0
  1  3  1  0  0  0  0
  1  7  1  0  0  0  0
  1  2  2  0  0  0  0
 33 34  1  0  0  0  0
 34 42  1  0  0  0  0
 34 35  2  0  0  0  0
  8  9  1  0  0  0  0
  9 17  1  0  0  0  0
  9 10  2  0  0  0  0
 18 19  1  0  0  0  0
 19 32  1  0  0  0  0
 19 20  2  0  0  0  0
 22 23  1  0  0  0  0
 23 24  1  0  0  0  0
 23 25  2  0  0  0  0
 33 36  1  0  0  0  0
  8 11  1  0  0  0  0
 42 43  1  0  0  0  0
 21 22  1  0  0  0  0
 18 21  1  0  0  0  0
 32 33  1  0  0  0  0
  7  8  1  0  0  0  0
 17 18  1  0  0  0  0
  3  4  1  0  0  0  0
  3  5  1  0  0  0  0
  3  6  1  0  0  0  0
 36 39  1  0  0  0  0
 36 40  1  0  0  0  0
 36 41  1  0  0  0  0
 11 14  1  0  0  0  0
 11 15  1  0  0  0  0
 11 16  1  0  0  0  0
 43 45  1  0  0  0  0
 43 46  1  0  0  0  0
 43 47  1  0  0  0  0
 22 30  1  0  0  0  0
 22 31  1  0  0  0  0
 21 28  1  0  0  0  0
 21 29  1  0  0  0  0
 33 38  1  0  0  0  0
  8 13  1  0  0  0  0
 18 27  1  0  0  0  0
 42 44  1  0  0  0  0
  7 12  1  0  0  0  0
 32 37  1  0  0  0  0
 17 26  1  0  0  0  0
M  CHG  1  24  -1
M  END
$$$$

  -OEChem-05262214473D

 47 46  0     1  0  0  0  0  0999 V2000
    0.5093   -4.7265    3.0306 C   0  0  0  0  0  0  0  0  0  0  0  0
    1.2735   -4.4402    3.9448 O   0  0  0  0  0  0  0  0  0  0  0  0
   -0.4465   -5.8608    3.1982 C   0  0  0  0  0  0  0  0  0  0  0  0
   -0.0219   -6.8213    2.8645 H   0  0  0  0  0  0  0  0  0  0  0  0
   -0.7314   -6.0185    4.2509 H   0  0  0  0  0  0  0  0  0  0  0  0
   -1.3983   -5.7596    2.6527 H   0  0  0  0  0  0  0  0  0  0  0  0
    0.4252   -4.0886    1.8040 N   0  0  0  0  0  0  0  0  0  0  0  0
    1.2532   -2.9707    1.4349 C   0  0  2  0  0  0  0  0  0  0  0  0
    0.3395   -1.8293    1.0083 C   0  0  0  0  0  0  0  0  0  0  0  0
   -0.8136   -2.0027    0.6194 O   0  0  0  0  0  0  0  0  0  0  0  0
    2.2176   -3.3411    0.3189 C   0  0  0  0  0  0  0  0  0  0  0  0
   -0.2574   -4.4279    1.1287 H   0  0  0  0  0  0  0  0  0  0  0  0
    1.8087   -2.6785    2.3327 H   0  0  0  0  0  0  0  0  0  0  0  0
    1.6793   -3.6366   -0.5890 H   0  0  0  0  0  0  0  0  0  0  0  0
    2.8662   -2.4980    0.0589 H   0  0  0  0  0  0  0  0  0  0  0  0
    2.8538   -4.1816    0.6166 H   0  0  0  0  0  0  0  0  0  0  0  0
    0.9758   -0.5952    1.0708 N   0  0  0  0  0  0  0  0  0  0  0  0
    0.3258    0.6374    0.7059 C   0  0  2  0  0  0  0  0  0  0  0  0
    0.5747    0.8643   -0.7815 C   0  0  0  0  0  0  0  0  0  0  0  0
    1.6983    1.0139   -1.2573 O   0  0  0  0  0  0  0  0  0  0  0  0
    0.8486    1.8257    1.5219 C   0  0  0  0  0  0  0  0  0  0  0  0
    0.4915    1.7497    3.0058 C   0  0  0  0  0  0  0  0  0  0  0  0
    1.0045    2.8954    3.8844 C   0  0  0  0  0  0  0  0  0  0  0  0
    1.7832    3.6967    3.2920 O   0  5  0  0  0  0  0  0  0  0  0  0
    0.5872    2.9178    5.0751 O   0  0  0  0  0  0  0  0  0  0  0  0
    1.9288   -0.5463    1.4242 H   0  0  0  0  0  0  0  0  0  0  0  0
   -0.7474    0.4853    0.8641 H   0  0  0  0  0  0  0  0  0  0  0  0
    0.4682    2.7654    1.1026 H   0  0  0  0  0  0  0  0  0  0  0  0
    1.9419    1.8755    1.4306 H   0  0  0  0  0  0  0  0  0  0  0  0
   -0.5952    1.6648    3.1253 H   0  0  0  0  0  0  0  0  0  0  0  0
    0.9232    0.8290    3.4187 H   0  0  0  0  0  0  0  0  0  0  0  0
   -0.6082    0.9263   -1.5048 N   0  0  0  0  0  0  0  0  0  0  0  0
   -0.6432    1.1487   -2.9317 C   0  0  2  0  0  0  0  0  0  0  0  0
   -2.0489    1.6024   -3.3027 C   0  0  0  0  0  0  0  0  0  0  0  0
   -3.0353    1.3655   -2.6085 O   0  0  0  0  0  0  0  0  0  0  0  0
   -0.2577   -0.1076   -3.6971 C   0  0  0  0  0  0  0  0  0  0  0  0
   -1.4926    0.7760   -1.0285 H   0  0  0  0  0  0  0  0  0  0  0  0
    0.0689    1.9537   -3.1439 H   0  0  0  0  0  0  0  0  0  0  0  0
   -0.9598   -0.9252   -3.4972 H   0  0  0  0  0  0  0  0  0  0  0  0
   -0.2569    0.0706   -4.7776 H   0  0  0  0  0  0  0  0  0  0  0  0
    0.7418   -0.4493   -3.4072 H   0  0  0  0  0  0  0  0  0  0  0  0
   -2.0787    2.2654   -4.5216 N   0  0  0  0  0  0  0  0  0  0  0  0
   -3.2977    2.7824   -5.0983 C   0  0  0  0  0  0  0  0  0  0  0  0
   -1.2098    2.4338   -5.0202 H   0  0  0  0  0  0  0  0  0  0  0  0
   -3.7360    2.0277   -5.7680 H   0  0  0  0  0  0  0  0  0  0  0  0
   -4.0115    3.0188   -4.2955 H   0  0  0  0  0  0  0  0  0  0  0  0
   -3.0742    3.6948   -5.6707 H   0  0  0  0  0  0  0  0  0  0  0  0
  1  3  1  0  0  0  0
  1  7  1  0  0  0  0
  1  2  2  0  0  0  0
 33 34  1  0  0  0  0
 34 42  1  0  0  0  0
 34 35  2  0  0  0  0
  8  9  1  0  0  0  0
  9 17  1  0  0  0  0
  9 10  2  0  0  0  0
 18 19  1  0  0  0  0
 19 32  1  0  0  0  0
 19 20  2  0  0  0  0
 22 23  1  0  0  0  0
 23 24  1  0  0  0  0
 23 25  2  0  0  0  0
 33 36  1  0  0  0  0
  8 11  1  0  0  0  0
 42 43  1  0  0  0  0
 21 22  1  0  0  0  0
 18 21  1  0  0  0  0
 32 33  1  0  0  0  0
  7  8  1  0  0  0  0
 17 18  1  0  0  0  0
  3  4  1  0  0  0  0
  3  5  1  0  0  0  0
  3  6  1  0  0  0  0
 36 39  1  0  0  0  0
 36 40  1  0  0  0  0
 36 41  1  0  0  0  0
 11 14  1  0  0  0  0
 11 15  1  0  0  0  0
 11 16  1  0  0  0  0
 43 45  1  0  0  0  0
 43 46  1  0  0  0  0
 43 47  1  0  0  0  0
 22 30  1  0  0  0  0
 22 31  1  0  0  0  0
 21 28  1  0  0  0  0
 21 29  1  0  0  0  0
 33 38  1  0  0  0  0
  8 13  1  0  0  0  0
 18 27  1  0  0  0  0
 42 44  1  0  0  0  0
  7 12  1  0  0  0  0
 32 37  1  0  0  0  0
 17 26  1  0  0  0  0
M  CHG  1  24  -1
M  END
$$$$

  -OEChem-05262214473D

 47 46  0     1  0  0  0  0  0999 V2000
    0.5093   -4.7265    3.0306 C   0  0  0  0  0  0  0  0  0  0  0  0
    1.2735   -4.4402    3.9448 O   0  0  0  0  0  0  0  0  0  0  0  0
   -0.4465   -5.8608    3.1982 C   0  0  0  0  0  0  0  0  0  0  0  0
   -0.0219   -6.8213    2.8645 H   0  0  0  0  0  0  0  0  0  0  0  0
   -0.7314   -6.0185    4.2509 H   0  0  0  0  0  0  0  0  0  0  0  0
   -1.3983   -5.7596    2.6527 H   0  0  0  0  0  0  0  0  0  0  0  0
    0.4252   -4.0886    1.8040 N   0  0  0  0  0  0  0  0  0  0  0  0
    1.2532   -2.9707    1.4349 C   0  0  2  0  0  0  0  0  0  0  0  0
    0.3395   -1.8293    1.0083 C   0  0  0  0  0  0  0  0  0  0  0  0
   -0.8136   -2.0027    0.6194 O   0  0  0  0  0  0  0  0  0  0  0  0
    2.2176   -3.3411    0.3189 C   0  0  0  0  0  0  0  0  0  0  0  0
   -0.2574   -4.4279    1.1287 H   0  0  0  0  0  0  0  0  0  0  0  0
    1.8087   -2.6785    2.3327 H   0  0  0  0  0  0  0  0  0  0  0  0
    1.6793   -3.6366   -0.5890 H   0  0  0  0  0  0  0  0  0  0  0  0
    2.8662   -2.4980    0.0589 H   0  0  0  0  0  0  0  0  0  0  0  0
    2.8538   -4.1816    0.6166 H   0  0  0  0  0  0  0  0  0  0  0  0
    0.9758   -0.5952    1.0708 N   0  0  0  0  0  0  0  0  0  0  0  0
    0.3258    0.6374    0.7059 C   0  0  2  0  0  0  0  0  0  0  0  0
    0.5747    0.8643   -0.7815 C   0  0  0  0  0  0  0  0  0  0  0  0
    1.6831    0.7487   -1.3003 O   0  0  0  0  0  0  0  0  0  0  0  0
    0.8486    1.8257    1.5219 C   0  0  0  0  0  0  0  0  0  0  0  0
    0.4915    1.7497    3.0058 C   0  0  0  0  0  0  0  0  0  0  0  0
    1.0045    2.8954    3.8844 C   0  0  0  0  0  0  0  0  0  0  0  0
    1.7832    3.6967    3.2920 O   0  5  0  0  0  0  0  0  0  0  0  0
    0.5872    2.9178    5.0751 O   0  0  0  0  0  0  0  0  0  0  0  0
    1.9288   -0.5463    1.4242 H   0  0  0  0  0  0  0  0  0  0  0  0
   -0.7474    0.4853    0.8641 H   0  0  0  0  0  0  0  0  0  0  0  0
    0.4682    2.7654    1.1026 H   0  0  0  0  0  0  0  0  0  0  0  0
    1.9419    1.8755    1.4306 H   0  0  0  0  0  0  0  0  0  0  0  0
   -0.5952    1.6648    3.1253 H   0  0  0  0  0  0  0  0  0  0  0  0
    0.9232    0.8290    3.4187 H   0  0  0  0  0  0  0  0  0  0  0  0
   -0.5772    1.2560   -1.4494 N   0  0  0  0  0  0  0  0  0  0  0  0
   -0.6019    1.5471   -2.8641 C   0  0  2  0  0  0  0  0  0  0  0  0
   -1.8584    2.3568   -3.1558 C   0  0  0  0  0  0  0  0  0  0  0  0
   -2.8491    2.3433   -2.4282 O   0  0  0  0  0  0  0  0  0  0  0  0
   -0.5727    0.2718   -3.6920 C   0  0  0  0  0  0  0  0  0  0  0  0
   -1.4546    1.3107   -0.9406 H   0  0  0  0  0  0  0  0  0  0  0  0
    0.2834    2.1561   -3.0771 H   0  0  0  0  0  0  0  0  0  0  0  0
   -1.4519   -0.3514   -3.4920 H   0  0  0  0  0  0  0  0  0  0  0  0
   -0.5626    0.4948   -4.7640 H   0  0  0  0  0  0  0  0  0  0  0  0
    0.3167   -0.3237   -3.4592 H   0  0  0  0  0  0  0  0  0  0  0  0
   -1.7596    3.0628   -4.3466 N   0  0  0  0  0  0  0  0  0  0  0  0
   -2.8263    3.8965   -4.8495 C   0  0  0  0  0  0  0  0  0  0  0  0
   -0.8934    3.0305   -4.8762 H   0  0  0  0  0  0  0  0  0  0  0  0
   -3.4634    3.3088   -5.5269 H   0  0  0  0  0  0  0  0  0  0  0  0
   -3.4300    4.2667   -4.0078 H   0  0  0  0  0  0  0  0  0  0  0  0
   -2.3981    4.7492   -5.3967 H   0  0  0  0  0  0  0  0  0  0  0  0
  1  3  1  0  0  0  0
  1  7  1  0  0  0  0
  1  2  2  0  0  0  0
 33 34  1  0  0  0  0
 34 42  1  0  0  0  0
 34 35  2  0  0  0  0
  8  9  1  0  0  0  0
  9 17  1  0  0  0  0
  9 10  2  0  0  0  0
 18 19  1  0  0  0  0
 19 32  1  0  0  0  0
 19 20  2  0  0  0  0
 22 23  1  0  0  0  0
 23 24  1  0  0  0  0
 23 25  2  0  0  0  0
 33 36  1  0  0  0  0
  8 11  1  0  0  0  0
 42 43  1  0  0  0  0
 21 22  1  0  0  0  0
 18 21  1  0  0  0  0
 32 33  1  0  0  0  0
  7  8  1  0  0  0  0
 17 18  1  0  0  0  0
  3  4  1  0  0  0  0
  3  5  1  0  0  0  0
  3  6  1  0  0  0  0
 36 39  1  0  0  0  0
 36 40  1  0  0  0  0
 36 41  1  0  0  0  0
 11 14  1  0  0  0  0
 11 15  1  0  0  0  0
 11 16  1  0  0  0  0
 43 45  1  0  0  0  0
 43 46  1  0  0  0  0
 43 47  1  0  0  0  0
 22 30  1  0  0  0  0
 22 31  1  0  0  0  0
 21 28  1  0  0  0  0
 21 29  1  0  0  0  0
 33 38  1  0  0  0  0
  8 13  1  0  0  0  0
 18 27  1  0  0  0  0
 42 44  1  0  0  0  0
  7 12  1  0  0  0  0
 32 37  1  0  0  0  0
 17 26  1  0  0  0  0
M  CHG  1  24  -1
M  END
$$$$

  -OEChem-05262214473D

 47 46  0     1  0  0  0  0  0999 V2000
    0.5093   -4.7265    3.0306 C   0  0  0  0  0  0  0  0  0  0  0  0
    1.2735   -4.4402    3.9448 O   0  0  0  0  0  0  0  0  0  0  0  0
   -0.4465   -5.8608    3.1982 C   0  0  0  0  0  0  0  0  0  0  0  0
   -0.0219   -6.8213    2.8645 H   0  0  0  0  0  0  0  0  0  0  0  0
   -0.7314   -6.0185    4.2509 H   0  0  0  0  0  0  0  0  0  0  0  0
   -1.3983   -5.7596    2.6527 H   0  0  0  0  0  0  0  0  0  0  0  0
    0.4252   -4.0886    1.8040 N   0  0  0  0  0  0  0  0  0  0  0  0
    1.2532   -2.9707    1.4349 C   0  0  2  0  0  0  0  0  0  0  0  0
    0.3395   -1.8293    1.0083 C   0  0  0  0  0  0  0  0  0  0  0  0
   -0.8136   -2.0027    0.6194 O   0  0  0  0  0  0  0  0  0  0  0  0
    2.2176   -3.3411    0.3189 C   0  0  0  0  0  0  0  0  0  0  0  0
   -0.2574   -4.4279    1.1287 H   0  0  0  0  0  0  0  0  0  0  0  0
    1.8087   -2.6785    2.3327 H   0  0  0  0  0  0  0  0  0  0  0  0
    1.6793   -3.6366   -0.5890 H   0  0  0  0  0  0  0  0  0  0  0  0
    2.8662   -2.4980    0.0589 H   0  0  0  0  0  0  0  0  0  0  0  0
    2.8538   -4.1816    0.6166 H   0  0  0  0  0  0  0  0  0  0  0  0
    0.9758   -0.5952    1.0708 N   0  0  0  0  0  0  0  0  0  0  0  0
    0.3258    0.6374    0.7059 C   0  0  2  0  0  0  0  0  0  0  0  0
    0.5747    0.8643   -0.7815 C   0  0  0  0  0  0  0  0  0  0  0  0
    1.5999    0.4981   -1.3525 O   0  0  0  0  0  0  0  0  0  0  0  0
    0.8486    1.8257    1.5219 C   0  0  0  0  0  0  0  0  0  0  0  0
    0.4915    1.7497    3.0058 C   0  0  0  0  0  0  0  0  0  0  0  0
    1.0045    2.8954    3.8844 C   0  0  0  0  0  0  0  0  0  0  0  0
    1.7832    3.6967    3.2920 O   0  5  0  0  0  0  0  0  0  0  0  0
    0.5872    2.9178    5.0751 O   0  0  0  0  0  0  0  0  0  0  0  0
    1.9288   -0.5463    1.4242 H   0  0  0  0  0  0  0  0  0  0  0  0
   -0.7474    0.4853    0.8641 H   0  0  0  0  0  0  0  0  0  0  0  0
    0.4682    2.7654    1.1026 H   0  0  0  0  0  0  0  0  0  0  0  0
    1.9419    1.8755    1.4306 H   0  0  0  0  0  0  0  0  0  0  0  0
   -0.5952    1.6648    3.1253 H   0  0  0  0  0  0  0  0  0  0  0  0
    0.9232    0.8290    3.4187 H   0  0  0  0  0  0  0  0  0  0  0  0
   -0.4619    1.5643   -1.3830 N   0  0  0  0  0  0  0  0  0  0  0  0
   -0.4588    1.9187   -2.7834 C   0  0  2  0  0  0  0  0  0  0  0  0
   -1.4782    3.0313   -2.9892 C   0  0  0  0  0  0  0  0  0  0  0  0
   -2.4154    3.2331   -2.2198 O   0  0  0  0  0  0  0  0  0  0  0  0
   -0.7810    0.7176   -3.6588 C   0  0  0  0  0  0  0  0  0  0  0  0
   -1.2795    1.8139   -0.8345 H   0  0  0  0  0  0  0  0  0  0  0  0
    0.5443    2.2947   -3.0123 H   0  0  0  0  0  0  0  0  0  0  0  0
   -1.7823    0.3269   -3.4438 H   0  0  0  0  0  0  0  0  0  0  0  0
   -0.7502    0.9812   -4.7212 H   0  0  0  0  0  0  0  0  0  0  0  0
   -0.0642   -0.0928   -3.4877 H   0  0  0  0  0  0  0  0  0  0  0  0
   -1.2433    3.7450   -4.1561 N   0  0  0  0  0  0  0  0  0  0  0  0
   -2.0802    4.8431   -4.5802 C   0  0  0  0  0  0  0  0  0  0  0  0
   -0.4316    3.5209   -4.7241 H   0  0  0  0  0  0  0  0  0  0  0  0
   -2.8673    4.4673   -5.2504 H   0  0  0  0  0  0  0  0  0  0  0  0
   -2.5423    5.3132   -3.6996 H   0  0  0  0  0  0  0  0  0  0  0  0
   -1.4684    5.5856   -5.1135 H   0  0  0  0  0  0  0  0  0  0  0  0
  1  3  1  0  0  0  0
  1  7  1  0  0  0  0
  1  2  2  0  0  0  0
 33 34  1  0  0  0  0
 34 42  1  0  0  0  0
 34 35  2  0  0  0  0
  8  9  1  0  0  0  0
  9 17  1  0  0  0  0
  9 10  2  0  0  0  0
 18 19  1  0  0  0  0
 19 32  1  0  0  0  0
 19 20  2  0  0  0  0
 22 23  1  0  0  0  0
 23 24  1  0  0  0  0
 23 25  2  0  0  0  0
 33 36  1  0  0  0  0
  8 11  1  0  0  0  0
 42 43  1  0  0  0  0
 21 22  1  0  0  0  0
 18 21  1  0  0  0  0
 32 33  1  0  0  0  0
  7  8  1  0  0  0  0
 17 18  1  0  0  0  0
  3  4  1  0  0  0  0
  3  5  1  0  0  0  0
  3  6  1  0  0  0  0
 36 39  1  0  0  0  0
 36 40  1  0  0  0  0
 36 41  1  0  0  0  0
 11 14  1  0  0  0  0
 11 15  1  0  0  0  0
 11 16  1  0  0  0  0
 43 45  1  0  0  0  0
 43 46  1  0  0  0  0
 43 47  1  0  0  0  0
 22 30  1  0  0  0  0
 22 31  1  0  0  0  0
 21 28  1  0  0  0  0
 21 29  1  0  0  0  0
 33 38  1  0  0  0  0
  8 13  1  0  0  0  0
 18 27  1  0  0  0  0
 42 44  1  0  0  0  0
  7 12  1  0  0  0  0
 32 37  1  0  0  0  0
 17 26  1  0  0  0  0
M  CHG  1  24  -1
M  END
$$$$

  -OEChem-05262214473D

 47 46  0     1  0  0  0  0  0999 V2000
    0.5093   -4.7265    3.0306 C   0  0  0  0  0  0  0  0  0  0  0  0
    1.2735   -4.4402    3.9448 O   0  0  0  0  0  0  0  0  0  0  0  0
   -0.4465   -5.8608    3.1982 C   0  0  0  0  0  0  0  0  0  0  0  0
   -0.0219   -6.8213    2.8645 H   0  0  0  0  0  0  0  0  0  0  0  0
   -0.7314   -6.0185    4.2509 H   0  0  0  0  0  0  0  0  0  0  0  0
   -1.3983   -5.7596    2.6527 H   0  0  0  0  0  0  0  0  0  0  0  0
    0.4252   -4.0886    1.8040 N   0  0  0  0  0  0  0  0  0  0  0  0
    1.2532   -2.9707    1.4349 C   0  0  2  0  0  0  0  0  0  0  0  0
    0.3395   -1.8293    1.0083 C   0  0  0  0  0  0  0  0  0  0  0  0
   -0.8136   -2.0027    0.6194 O   0  0  0  0  0  0  0  0  0  0  0  0
    2.2176   -3.3411    0.3189 C   0  0  0  0  0  0  0  0  0  0  0  0
   -0.2574   -4.4279    1.1287 H   0  0  0  0  0  0  0  0  0  0  0  0
    1.8087   -2.6785    2.3327 H   0  0  0  0  0  0  0  0  0  0  0  0
    1.6793   -3.6366   -0.5890 H   0  0  0  0  0  0  0  0  0  0  0  0
    2.8662   -2.4980    0.0589 H   0  0  0  0  0  0  0  0  0  0  0  0
    2.8538   -4.1816    0.6166 H   0  0  0  0  0  0  0  0  0  0  0  0
    0.9758   -0.5952    1.0708 N   0  0  0  0  0  0  0  0  0  0  0  0
    0.3258    0.6374    0.7059 C   0  0  2  0  0  0  0  0  0  0  0  0
    0.5747    0.8643   -0.7815 C   0  0  0  0  0  0  0  0  0  0  0  0
    1.4543    0.2793   -1.4102 O   0  0  0  0  0  0  0  0  0  0  0  0
    0.8486    1.8257    1.5219 C   0  0  0  0  0  0  0  0  0  0  0  0
    0.4915    1.7497    3.0058 C   0  0  0  0  0  0  0  0  0  0  0  0
    1.0045    2.8954    3.8844 C   0  0  0  0  0  0  0  0  0  0  0  0
    1.7832    3.6967    3.2920 O   0  5  0  0  0  0  0  0  0  0  0  0
    0.5872    2.9178    5.0751 O   0  0  0  0  0  0  0  0  0  0  0  0
    1.9288   -0.5463    1.4242 H   0  0  0  0  0  0  0  0  0  0  0  0
   -0.7474    0.4853    0.8641 H   0  0  0  0  0  0  0  0  0  0  0  0
    0.4682    2.7654    1.1026 H   0  0  0  0  0  0  0  0  0  0  0  0
    1.9419    1.8755    1.4306 H   0  0  0  0  0  0  0  0  0  0  0  0
   -0.5952    1.6648    3.1253 H   0  0  0  0  0  0  0  0  0  0  0  0
    0.9232    0.8290    3.4187 H   0  0  0  0  0  0  0  0  0  0  0  0
   -0.2701    1.8302   -1.3104 N   0  0  0  0  0  0  0  0  0  0  0  0
   -0.2237    2.2380   -2.6954 C   0  0  2  0  0  0  0  0  0  0  0  0
   -0.9344    3.5798   -2.8145 C   0  0  0  0  0  0  0  0  0  0  0  0
   -1.7639    3.9744   -1.9977 O   0  0  0  0  0  0  0  0  0  0  0  0
   -0.8683    1.1993   -3.6000 C   0  0  0  0  0  0  0  0  0  0  0  0
   -0.9792    2.2513   -0.7175 H   0  0  0  0  0  0  0  0  0  0  0  0
    0.8338    2.3600   -2.9539 H   0  0  0  0  0  0  0  0  0  0  0  0
   -1.9283    1.0635   -3.3559 H   0  0  0  0  0  0  0  0  0  0  0  0
   -0.8070    1.4966   -4.6521 H   0  0  0  0  0  0  0  0  0  0  0  0
   -0.3750    0.2275   -3.4908 H   0  0  0  0  0  0  0  0  0  0  0  0
   -0.5651    4.2657   -3.9632 N   0  0  0  0  0  0  0  0  0  0  0  0
   -1.1102    5.5578   -4.3088 C   0  0  0  0  0  0  0  0  0  0  0  0
    0.1441    3.8716   -4.5742 H   0  0  0  0  0  0  0  0  0  0  0  0
   -1.9886    5.4242   -4.9574 H   0  0  0  0  0  0  0  0  0  0  0  0
   -1.4087    6.0869   -3.3918 H   0  0  0  0  0  0  0  0  0  0  0  0
   -0.3482    6.1467   -4.8404 H   0  0  0  0  0  0  0  0  0  0  0  0
  1  3  1  0  0  0  0
  1  7  1  0  0  0  0
  1  2  2  0  0  0  0
 33 34  1  0  0  0  0
 34 42  1  0  0  0  0
 34 35  2  0  0  0  0
  8  9  1  0  0  0  0
  9 17  1  0  0  0  0
  9 10  2  0  0  0  0
 18 19  1  0  0  0  0
 19 32  1  0  0  0  0
 19 20  2  0  0  0  0
 22 23  1  0  0  0  0
 23 24  1  0  0  0  0
 23 25  2  0  0  0  0
 33 36  1  0  0  0  0
  8 11  1  0  0  0  0
 42 43  1  0  0  0  0
 21 22  1  0  0  0  0
 18 21  1  0  0  0  0
 32 33  1  0  0  0  0
  7  8  1  0  0  0  0
 17 18  1  0  0  0  0
  3  4  1  0  0  0  0
  3  5  1  0  0  0  0
  3  6  1  0  0  0  0
 36 39  1  0  0  0  0
 36 40  1  0  0  0  0
 36 41  1  0  0  0  0
 11 14  1  0  0  0  0
 11 15  1  0  0  0  0
 11 16  1  0  0  0  0
 43 45  1  0  0  0  0
 43 46  1  0  0  0  0
 43 47  1  0  0  0  0
 22 30  1  0  0  0  0
 22 31  1  0  0  0  0
 21 28  1  0  0  0  0
 21 29  1  0  0  0  0
 33 38  1  0  0  0  0
  8 13  1  0  0  0  0
 18 27  1  0  0  0  0
 42 44  1  0  0  0  0
  7 12  1  0  0  0  0
 32 37  1  0  0  0  0
 17 26  1  0  0  0  0
M  CHG  1  24  -1
M  END
$$$$

  -OEChem-05262214473D

 47 46  0     1  0  0  0  0  0999 V2000
    0.5093   -4.7265    3.0306 C   0  0  0  0  0  0  0  0  0  0  0  0
    1.2735   -4.4402    3.9448 O   0  0  0  0  0  0  0  0  0  0  0  0
   -0.4465   -5.8608    3.1982 C   0  0  0  0  0  0  0  0  0  0  0  0
   -0.0219   -6.8213    2.8645 H   0  0  0  0  0  0  0  0  0  0  0  0
   -0.7314   -6.0185    4.2509 H   0  0  0  0  0  0  0  0  0  0  0  0
   -1.3983   -5.7596    2.6527 H   0  0  0  0  0  0  0  0  0  0  0  0
    0.4252   -4.0886    1.8040 N   0  0  0  0  0  0  0  0  0  0  0  0
    1.2532   -2.9707    1.4349 C   0  0  2  0  0  0  0  0  0  0  0  0
    0.3395   -1.8293    1.0083 C   0  0  0  0  0  0  0  0  0  0  0  0
   -0.8136   -2.0027    0.6194 O   0  0  0  0  0  0  0  0  0  0  0  0
    2.2176   -3.3411    0.3189 C   0  0  0  0  0  0  0  0  0  0  0  0
   -0.2574   -4.4279    1.1287 H   0  0  0  0  0  0  0  0  0  0  0  0
    1.8087   -2.6785    2.3327 H   0  0  0  0  0  0  0  0  0  0  0  0
    1.6793   -3.6366   -0.5890 H   0  0  0  0  0  0  0  0  0  0  0  0
    2.8662   -2.4980    0.0589 H   0  0  0  0  0  0  0  0  0  0  0  0
    2.8538   -4.1816    0.6166 H   0  0  0  0  0  0  0  0  0  0  0  0
    0.9758   -0.5952    1.0708 N   0  0  0  0  0  0  0  0  0  0  0  0
    0.3258    0.6374    0.7059 C   0  0  2  0  0  0  0  0  0  0  0  0
    0.2446    0.6799   -0.8164 C   0  0  0  0  0  0  0  0  0  0  0  0
    0.7129   -0.1993   -1.5369 O   0  0  0  0  0  0  0  0  0  0  0  0
    1.0806    1.8629    1.2346 C   0  0  0  0  0  0  0  0  0  0  0  0
    1.0636    1.9781    2.7583 C   0  0  0  0  0  0  0  0  0  0  0  0
    1.8207    3.1691    3.3550 C   0  0  0  0  0  0  0  0  0  0  0  0
    2.4868    3.8370    2.5125 O   0  5  0  0  0  0  0  0  0  0  0  0
    1.6843    3.3545    4.5957 O   0  0  0  0  0  0  0  0  0  0  0  0
    1.9288   -0.5463    1.4242 H   0  0  0  0  0  0  0  0  0  0  0  0
   -0.6906    0.5885    1.1115 H   0  0  0  0  0  0  0  0  0  0  0  0
    0.6653    2.7781    0.7947 H   0  0  0  0  0  0  0  0  0  0  0  0
    2.1263    1.8162    0.9021 H   0  0  0  0  0  0  0  0  0  0  0  0
    0.0288    1.9926    3.1210 H   0  0  0  0  0  0  0  0  0  0  0  0
    1.5284    1.0771    3.1784 H   0  0  0  0  0  0  0  0  0  0  0  0
   -0.3702    1.8371   -1.2739 N   0  0  0  0  0  0  0  0  0  0  0  0
   -0.5558    2.1230   -2.6777 C   0  0  2  0  0  0  0  0  0  0  0  0
   -0.8283    3.6145   -2.8217 C   0  0  0  0  0  0  0  0  0  0  0  0
   -1.2609    4.3090   -1.9044 O   0  0  0  0  0  0  0  0  0  0  0  0
   -1.6949    1.3033   -3.2635 C   0  0  0  0  0  0  0  0  0  0  0  0
   -0.7411    2.5034   -0.6031 H   0  0  0  0  0  0  0  0  0  0  0  0
    0.3859    1.8732   -3.1785 H   0  0  0  0  0  0  0  0  0  0  0  0
   -2.6467    1.5399   -2.7741 H   0  0  0  0  0  0  0  0  0  0  0  0
   -1.8157    1.5000   -4.3338 H   0  0  0  0  0  0  0  0  0  0  0  0
   -1.5112    0.2314   -3.1323 H   0  0  0  0  0  0  0  0  0  0  0  0
   -0.5725    4.0699   -4.1076 N   0  0  0  0  0  0  0  0  0  0  0  0
   -0.7660    5.4463   -4.5000 C   0  0  0  0  0  0  0  0  0  0  0  0
   -0.1978    3.4279   -4.7997 H   0  0  0  0  0  0  0  0  0  0  0  0
   -1.7779    5.5717   -4.9127 H   0  0  0  0  0  0  0  0  0  0  0  0
   -0.6447    6.0983   -3.6224 H   0  0  0  0  0  0  0  0  0  0  0  0
   -0.0224    5.7177   -5.2639 H   0  0  0  0  0  0  0  0  0  0  0  0
  1  3  1  0  0  0  0
  1  7  1  0  0  0  0
  1  2  2  0  0  0  0
 33 34  1  0  0  0  0
 34 42  1  0  0  0  0
 34 35  2  0  0  0  0
  8  9  1  0  0  0  0
  9 17  1  0  0  0  0
  9 10  2  0  0  0  0
 18 19  1  0  0  0  0
 19 32  1  0  0  0  0
 19 20  2  0  0  0  0
 22 23  1  0  0  0  0
 23 24  1  0  0  0  0
 23 25  2  0  0  0  0
 33 36  1  0  0  0  0
  8 11  1  0  0  0  0
 42 43  1  0  0  0  0
 21 22  1  0  0  0  0
 18 21  1  0  0  0  0
 32 33  1  0  0  0  0
  7  8  1  0  0  0  0
 17 18  1  0  0  0  0
  3  4  1  0  0  0  0
  3  5  1  0  0  0  0
  3  6  1  0  0  0  0
 36 39  1  0  0  0  0
 36 40  1  0  0  0  0
 36 41  1  0  0  0  0
 11 14  1  0  0  0  0
 11 15  1  0  0  0  0
 11 16  1  0  0  0  0
 43 45  1  0  0  0  0
 43 46  1  0  0  0  0
 43 47  1  0  0  0  0
 22 30  1  0  0  0  0
 22 31  1  0  0  0  0
 21 28  1  0  0  0  0
 21 29  1  0  0  0  0
 33 38  1  0  0  0  0
  8 13  1  0  0  0  0
 18 27  1  0  0  0  0
 42 44  1  0  0  0  0
  7 12  1  0  0  0  0
 32 37  1  0  0  0  0
 17 26  1  0  0  0  0
M  CHG  1  24  -1
M  END
$$$$

  -OEChem-05262214473D

 47 46  0     1  0  0  0  0  0999 V2000
    0.5093   -4.7265    3.0306 C   0  0  0  0  0  0  0  0  0  0  0  0
    1.2735   -4.4402    3.9448 O   0  0  0  0  0  0  0  0  0  0  0  0
   -0.4465   -5.8608    3.1982 C   0  0  0  0  0  0  0  0  0  0  0  0
   -0.0219   -6.8213    2.8645 H   0  0  0  0  0  0  0  0  0  0  0  0
   -0.7314   -6.0185    4.2509 H   0  0  0  0  0  0  0  0  0  0  0  0
   -1.3983   -5.7596    2.6527 H   0  0  0  0  0  0  0  0  0  0  0  0
    0.4252   -4.0886    1.8040 N   0  0  0  0  0  0  0  0  0  0  0  0
    1.2532   -2.9707    1.4349 C   0  0  2  0  0  0  0  0  0  0  0  0
    0.3395   -1.8293    1.0083 C   0  0  0  0  0  0  0  0  0  0  0  0
   -0.8136   -2.0027    0.6194 O   0  0  0  0  0  0  0  0  0  0  0  0
    2.2176   -3.3411    0.3189 C   0  0  0  0  0  0  0  0  0  0  0  0
   -0.2574   -4.4279    1.1287 H   0  0  0  0  0  0  0  0  0  0  0  0
    1.8087   -2.6785    2.3327 H   0  0  0  0  0  0  0  0  0  0  0  0
    1.6793   -3.6366   -0.5890 H   0  0  0  0  0  0  0  0  0  0  0  0
    2.8662   -2.4980    0.0589 H   0  0  0  0  0  0  0  0  0  0  0  0
    2.8538   -4.1816    0.6166 H   0  0  0  0  0  0  0  0  0  0  0  0
    0.9758   -0.5952    1.0708 N   0  0  0  0  0  0  0  0  0  0  0  0
    0.3258    0.6374    0.7059 C   0  0  2  0  0  0  0  0  0  0  0  0
    0.2446    0.6799   -0.8164 C   0  0  0  0  0  0  0  0  0  0  0  0
    0.4634   -0.2996   -1.5264 O   0  0  0  0  0  0  0  0  0  0  0  0
    1.0806    1.8629    1.2346 C   0  0  0  0  0  0  0  0  0  0  0  0
    1.0636    1.9781    2.7583 C   0  0  0  0  0  0  0  0  0  0  0  0
    1.8207    3.1691    3.3550 C   0  0  0  0  0  0  0  0  0  0  0  0
    2.4868    3.8370    2.5125 O   0  5  0  0  0  0  0  0  0  0  0  0
    1.6843    3.3545    4.5957 O   0  0  0  0  0  0  0  0  0  0  0  0
    1.9288   -0.5463    1.4242 H   0  0  0  0  0  0  0  0  0  0  0  0
   -0.6906    0.5885    1.1115 H   0  0  0  0  0  0  0  0  0  0  0  0
    0.6653    2.7781    0.7947 H   0  0  0  0  0  0  0  0  0  0  0  0
    2.1263    1.8162    0.9021 H   0  0  0  0  0  0  0  0  0  0  0  0
    0.0288    1.9926    3.1210 H   0  0  0  0  0  0  0  0  0  0  0  0
    1.5284    1.0771    3.1784 H   0  0  0  0  0  0  0  0  0  0  0  0
   -0.0545    1.9507   -1.2876 N   0  0  0  0  0  0  0  0  0  0  0  0
   -0.1726    2.2569   -2.6943 C   0  0  2  0  0  0  0  0  0  0  0  0
   -0.0519    3.7661   -2.8589 C   0  0  0  0  0  0  0  0  0  0  0  0
   -0.2821    4.5606   -1.9495 O   0  0  0  0  0  0  0  0  0  0  0  0
   -1.4900    1.7519   -3.2618 C   0  0  0  0  0  0  0  0  0  0  0  0
   -0.2347    2.6988   -0.6246 H   0  0  0  0  0  0  0  0  0  0  0  0
    0.6680    1.7658   -3.1966 H   0  0  0  0  0  0  0  0  0  0  0  0
   -2.3440    2.2327   -2.7708 H   0  0  0  0  0  0  0  0  0  0  0  0
   -1.5656    1.9594   -4.3343 H   0  0  0  0  0  0  0  0  0  0  0  0
   -1.5883    0.6707   -3.1160 H   0  0  0  0  0  0  0  0  0  0  0  0
    0.3012    4.1235   -4.1526 N   0  0  0  0  0  0  0  0  0  0  0  0
    0.4663    5.4980   -4.5642 C   0  0  0  0  0  0  0  0  0  0  0  0
    0.4911    3.3976   -4.8373 H   0  0  0  0  0  0  0  0  0  0  0  0
   -0.4826    5.8753   -4.9733 H   0  0  0  0  0  0  0  0  0  0  0  0
    0.7598    6.1076   -3.6969 H   0  0  0  0  0  0  0  0  0  0  0  0
    1.2478    5.5581   -5.3360 H   0  0  0  0  0  0  0  0  0  0  0  0
  1  3  1  0  0  0  0
  1  7  1  0  0  0  0
  1  2  2  0  0  0  0
 33 34  1  0  0  0  0
 34 42  1  0  0  0  0
 34 35  2  0  0  0  0
  8  9  1  0  0  0  0
  9 17  1  0  0  0  0
  9 10  2  0  0  0  0
 18 19  1  0  0  0  0
 19 32  1  0  0  0  0
 19 20  2  0  0  0  0
 22 23  1  0  0  0  0
 23 24  1  0  0  0  0
 23 25  2  0  0  0  0
 33 36  1  0  0  0  0
  8 11  1  0  0  0  0
 42 43  1  0  0  0  0
 21 22  1  0  0  0  0
 18 21  1  0  0  0  0
 32 33  1  0  0  0  0
  7  8  1  0  0  0  0
 17 18  1  0  0  0  0
  3  4  1  0  0  0  0
  3  5  1  0  0  0  0
  3  6  1  0  0  0  0
 36 39  1  0  0  0  0
 36 40  1  0  0  0  0
 36 41  1  0  0  0  0
 11 14  1  0  0  0  0
 11 15  1  0  0  0  0
 11 16  1  0  0  0  0
 43 45  1  0  0  0  0
 43 46  1  0  0  0  0
 43 47  1  0  0  0  0
 22 30  1  0  0  0  0
 22 31  1  0  0  0  0
 21 28  1  0  0  0  0
 21 29  1  0  0  0  0
 33 38  1  0  0  0  0
  8 13  1  0  0  0  0
 18 27  1  0  0  0  0
 42 44  1  0  0  0  0
  7 12  1  0  0  0  0
 32 37  1  0  0  0  0
 17 26  1  0  0  0  0
M  CHG  1  24  -1
M  END
$$$$

  -OEChem-05262214473D

 47 46  0     1  0  0  0  0  0999 V2000
    0.5093   -4.7265    3.0306 C   0  0  0  0  0  0  0  0  0  0  0  0
    1.2735   -4.4402    3.9448 O   0  0  0  0  0  0  0  0  0  0  0  0
   -0.4465   -5.8608    3.1982 C   0  0  0  0  0  0  0  0  0  0  0  0
   -0.0219   -6.8213    2.8645 H   0  0  0  0  0  0  0  0  0  0  0  0
   -0.7314   -6.0185    4.2509 H   0  0  0  0  0  0  0  0  0  0  0  0
   -1.3983   -5.7596    2.6527 H   0  0  0  0  0  0  0  0  0  0  0  0
    0.4252   -4.0886    1.8040 N   0  0  0  0  0  0  0  0  0  0  0  0
    1.2532   -2.9707    1.4349 C   0  0  2  0  0  0  0  0  0  0  0  0
    0.3395   -1.8293    1.0083 C   0  0  0  0  0  0  0  0  0  0  0  0
   -0.8136   -2.0027    0.6194 O   0  0  0  0  0  0  0  0  0  0  0  0
    2.2176   -3.3411    0.3189 C   0  0  0  0  0  0  0  0  0  0  0  0
   -0.2574   -4.4279    1.1287 H   0  0  0  0  0  0  0  0  0  0  0  0
    1.8087   -2.6785    2.3327 H   0  0  0  0  0  0  0  0  0  0  0  0
    1.6793   -3.6366   -0.5890 H   0  0  0  0  0  0  0  0  0  0  0  0
    2.8662   -2.4980    0.0589 H   0  0  0  0  0  0  0  0  0  0  0  0
    2.8538   -4.1816    0.6166 H   0  0  0  0  0  0  0  0  0  0  0  0
    0.9758   -0.5952    1.0708 N   0  0  0  0  0  0  0  0  0  0  0  0
    0.3258    0.6374    0.7059 C   0  0  2  0  0  0  0  0  0  0  0  0
    0.2446    0.6799   -0.8164 C   0  0  0  0  0  0  0  0  0  0  0  0
    0.1966   -0.3319   -1.5130 O   0  0  0  0  0  0  0  0  0  0  0  0
    1.0806    1.8629    1.2346 C   0  0  0  0  0  0  0  0  0  0  0  0
    1.0636    1.9781    2.7583 C   0  0  0  0  0  0  0  0  0  0  0  0
    1.8207    3.1691    3.3550 C   0  0  0  0  0  0  0  0  0  0  0  0
    2.4868    3.8370    2.5125 O   0  5  0  0  0  0  0  0  0  0  0  0
    1.6843    3.3545    4.5957 O   0  0  0  0  0  0  0  0  0  0  0  0
    1.9288   -0.5463    1.4242 H   0  0  0  0  0  0  0  0  0  0  0  0
   -0.6906    0.5885    1.1115 H   0  0  0  0  0  0  0  0  0  0  0  0
    0.6653    2.7781    0.7947 H   0  0  0  0  0  0  0  0  0  0  0  0
    2.1263    1.8162    0.9021 H   0  0  0  0  0  0  0  0  0  0  0  0
    0.0288    1.9926    3.1210 H   0  0  0  0  0  0  0  0  0  0  0  0
    1.5284    1.0771    3.1784 H   0  0  0  0  0  0  0  0  0  0  0  0
    0.2797    1.9786   -1.3046 N   0  0  0  0  0  0  0  0  0  0  0  0
    0.2320    2.2869   -2.7151 C   0  0  2  0  0  0  0  0  0  0  0  0
    0.7369    3.7115   -2.9024 C   0  0  0  0  0  0  0  0  0  0  0  0
    0.7280    4.5500   -2.0036 O   0  0  0  0  0  0  0  0  0  0  0  0
   -1.1762    2.1322   -3.2679 C   0  0  0  0  0  0  0  0  0  0  0  0
    0.3048    2.7564   -0.6518 H   0  0  0  0  0  0  0  0  0  0  0  0
    0.9126    1.5889   -3.2145 H   0  0  0  0  0  0  0  0  0  0  0  0
   -1.8725    2.8236   -2.7795 H   0  0  0  0  0  0  0  0  0  0  0  0
   -1.2053    2.3385   -4.3430 H   0  0  0  0  0  0  0  0  0  0  0  0
   -1.5491    1.1152   -3.1057 H   0  0  0  0  0  0  0  0  0  0  0  0
    1.1587    3.9488   -4.2032 N   0  0  0  0  0  0  0  0  0  0  0  0
    1.6695    5.2286   -4.6359 C   0  0  0  0  0  0  0  0  0  0  0  0
    1.1485    3.1898   -4.8781 H   0  0  0  0  0  0  0  0  0  0  0  0
    0.8466    5.8330   -5.0453 H   0  0  0  0  0  0  0  0  0  0  0  0
    2.1183    5.7528   -3.7792 H   0  0  0  0  0  0  0  0  0  0  0  0
    2.4330    5.0749   -5.4127 H   0  0  0  0  0  0  0  0  0  0  0  0
  1  3  1  0  0  0  0
  1  7  1  0  0  0  0
  1  2  2  0  0  0  0
 33 34  1  0  0  0  0
 34 42  1  0  0  0  0
 34 35  2  0  0  0  0
  8  9  1  0  0  0  0
  9 17  1  0  0  0  0
  9 10  2  0  0  0  0
 18 19  1  0  0  0  0
 19 32  1  0  0  0  0
 19 20  2  0  0  0  0
 22 23  1  0  0  0  0
 23 24  1  0  0  0  0
 23 25  2  0  0  0  0
 33 36  1  0  0  0  0
  8 11  1  0  0  0  0
 42 43  1  0  0  0  0
 21 22  1  0  0  0  0
 18 21  1  0  0  0  0
 32 33  1  0  0  0  0
  7  8  1  0  0  0  0
 17 18  1  0  0  0  0
  3  4  1  0  0  0  0
  3  5  1  0  0  0  0
  3  6  1  0  0  0  0
 36 39  1  0  0  0  0
 36 40  1  0  0  0  0
 36 41  1  0  0  0  0
 11 14  1  0  0  0  0
 11 15  1  0  0  0  0
 11 16  1  0  0  0  0
 43 45  1  0  0  0  0
 43 46  1  0  0  0  0
 43 47  1  0  0  0  0
 22 30  1  0  0  0  0
 22 31  1  0  0  0  0
 21 28  1  0  0  0  0
 21 29  1  0  0  0  0
 33 38  1  0  0  0  0
  8 13  1  0  0  0  0
 18 27  1  0  0  0  0
 42 44  1  0  0  0  0
  7 12  1  0  0  0  0
 32 37  1  0  0  0  0
 17 26  1  0  0  0  0
M  CHG  1  24  -1
M  END
$$$$

  -OEChem-05262214473D

 47 46  0     1  0  0  0  0  0999 V2000
    0.5093   -4.7265    3.0306 C   0  0  0  0  0  0  0  0  0  0  0  0
    1.2735   -4.4402    3.9448 O   0  0  0  0  0  0  0  0  0  0  0  0
   -0.4465   -5.8608    3.1982 C   0  0  0  0  0  0  0  0  0  0  0  0
   -0.0219   -6.8213    2.8645 H   0  0  0  0  0  0  0  0  0  0  0  0
   -0.7314   -6.0185    4.2509 H   0  0  0  0  0  0  0  0  0  0  0  0
   -1.3983   -5.7596    2.6527 H   0  0  0  0  0  0  0  0  0  0  0  0
    0.4252   -4.0886    1.8040 N   0  0  0  0  0  0  0  0  0  0  0  0
    1.2532   -2.9707    1.4349 C   0  0  2  0  0  0  0  0  0  0  0  0
    0.3395   -1.8293    1.0083 C   0  0  0  0  0  0  0  0  0  0  0  0
   -0.8136   -2.0027    0.6194 O   0  0  0  0  0  0  0  0  0  0  0  0
    2.2176   -3.3411    0.3189 C   0  0  0  0  0  0  0  0  0  0  0  0
   -0.2574   -4.4279    1.1287 H   0  0  0  0  0  0  0  0  0  0  0  0
    1.8087   -2.6785    2.3327 H   0  0  0  0  0  0  0  0  0  0  0  0
    1.6793   -3.6366   -0.5890 H   0  0  0  0  0  0  0  0  0  0  0  0
    2.8662   -2.4980    0.0589 H   0  0  0  0  0  0  0  0  0  0  0  0
    2.8538   -4.1816    0.6166 H   0  0  0  0  0  0  0  0  0  0  0  0
    0.9758   -0.5952    1.0708 N   0  0  0  0  0  0  0  0  0  0  0  0
    0.3258    0.6374    0.7059 C   0  0  2  0  0  0  0  0  0  0  0  0
    0.2446    0.6799   -0.8164 C   0  0  0  0  0  0  0  0  0  0  0  0
   -0.0694   -0.2939   -1.4978 O   0  0  0  0  0  0  0  0  0  0  0  0
    1.0806    1.8629    1.2346 C   0  0  0  0  0  0  0  0  0  0  0  0
    1.0636    1.9781    2.7583 C   0  0  0  0  0  0  0  0  0  0  0  0
    1.8207    3.1691    3.3550 C   0  0  0  0  0  0  0  0  0  0  0  0
    2.4868    3.8370    2.5125 O   0  5  0  0  0  0  0  0  0  0  0  0
    1.6843    3.3545    4.5957 O   0  0  0  0  0  0  0  0  0  0  0  0
    1.9288   -0.5463    1.4242 H   0  0  0  0  0  0  0  0  0  0  0  0
   -0.6906    0.5885    1.1115 H   0  0  0  0  0  0  0  0  0  0  0  0
    0.6653    2.7781    0.7947 H   0  0  0  0  0  0  0  0  0  0  0  0
    2.1263    1.8162    0.9021 H   0  0  0  0  0  0  0  0  0  0  0  0
    0.0288    1.9926    3.1210 H   0  0  0  0  0  0  0  0  0  0  0  0
    1.5284    1.0771    3.1784 H   0  0  0  0  0  0  0  0  0  0  0  0
    0.6095    1.9191   -1.3238 N   0  0  0  0  0  0  0  0  0  0  0  0
    0.6304    2.2111   -2.7384 C   0  0  2  0  0  0  0  0  0  0  0  0
    1.4845    3.4543   -2.9495 C   0  0  0  0  0  0  0  0  0  0  0  0
    1.7005    4.2781   -2.0630 O   0  0  0  0  0  0  0  0  0  0  0  0
   -0.7749    2.4185   -3.2813 C   0  0  0  0  0  0  0  0  0  0  0  0
    0.8406    2.6722   -0.6827 H   0  0  0  0  0  0  0  0  0  0  0  0
    1.1031    1.3546   -3.2312 H   0  0  0  0  0  0  0  0  0  0  0  0
   -1.2646    3.2726   -2.7993 H   0  0  0  0  0  0  0  0  0  0  0  0
   -0.7594    2.6115   -4.3591 H   0  0  0  0  0  0  0  0  0  0  0  0
   -1.3964    1.5345   -3.1021 H   0  0  0  0  0  0  0  0  0  0  0  0
    1.9415    3.5579   -4.2558 N   0  0  0  0  0  0  0  0  0  0  0  0
    2.7616    4.6566   -4.7101 C   0  0  0  0  0  0  0  0  0  0  0  0
    1.7295    2.8187   -4.9195 H   0  0  0  0  0  0  0  0  0  0  0  0
    2.1191    5.4478   -5.1238 H   0  0  0  0  0  0  0  0  0  0  0  0
    3.3382    5.0579   -3.8637 H   0  0  0  0  0  0  0  0  0  0  0  0
    3.4524    4.3008   -5.4886 H   0  0  0  0  0  0  0  0  0  0  0  0
  1  3  1  0  0  0  0
  1  7  1  0  0  0  0
  1  2  2  0  0  0  0
 33 34  1  0  0  0  0
 34 42  1  0  0  0  0
 34 35  2  0  0  0  0
  8  9  1  0  0  0  0
  9 17  1  0  0  0  0
  9 10  2  0  0  0  0
 18 19  1  0  0  0  0
 19 32  1  0  0  0  0
 19 20  2  0  0  0  0
 22 23  1  0  0  0  0
 23 24  1  0  0  0  0
 23 25  2  0  0  0  0
 33 36  1  0  0  0  0
  8 11  1  0  0  0  0
 42 43  1  0  0  0  0
 21 22  1  0  0  0  0
 18 21  1  0  0  0  0
 32 33  1  0  0  0  0
  7  8  1  0  0  0  0
 17 18  1  0  0  0  0
  3  4  1  0  0  0  0
  3  5  1  0  0  0  0
  3  6  1  0  0  0  0
 36 39  1  0  0  0  0
 36 40  1  0  0  0  0
 36 41  1  0  0  0  0
 11 14  1  0  0  0  0
 11 15  1  0  0  0  0
 11 16  1  0  0  0  0
 43 45  1  0  0  0  0
 43 46  1  0  0  0  0
 43 47  1  0  0  0  0
 22 30  1  0  0  0  0
 22 31  1  0  0  0  0
 21 28  1  0  0  0  0
 21 29  1  0  0  0  0
 33 38  1  0  0  0  0
  8 13  1  0  0  0  0
 18 27  1  0  0  0  0
 42 44  1  0  0  0  0
  7 12  1  0  0  0  0
 32 37  1  0  0  0  0
 17 26  1  0  0  0  0
M  CHG  1  24  -1
M  END
$$$$

  -OEChem-05262214473D

 47 46  0     1  0  0  0  0  0999 V2000
    0.5093   -4.7265    3.0306 C   0  0  0  0  0  0  0  0  0  0  0  0
    1.2735   -4.4402    3.9448 O   0  0  0  0  0  0  0  0  0  0  0  0
   -0.4465   -5.8608    3.1982 C   0  0  0  0  0  0  0  0  0  0  0  0
   -0.0219   -6.8213    2.8645 H   0  0  0  0  0  0  0  0  0  0  0  0
   -0.7314   -6.0185    4.2509 H   0  0  0  0  0  0  0  0  0  0  0  0
   -1.3983   -5.7596    2.6527 H   0  0  0  0  0  0  0  0  0  0  0  0
    0.4252   -4.0886    1.8040 N   0  0  0  0  0  0  0  0  0  0  0  0
    1.2532   -2.9707    1.4349 C   0  0  2  0  0  0  0  0  0  0  0  0
    0.3395   -1.8293    1.0083 C   0  0  0  0  0  0  0  0  0  0  0  0
   -0.8136   -2.0027    0.6194 O   0  0  0  0  0  0  0  0  0  0  0  0
    2.2176   -3.3411    0.3189 C   0  0  0  0  0  0  0  0  0  0  0  0
   -0.2574   -4.4279    1.1287 H   0  0  0  0  0  0  0  0  0  0  0  0
    1.8087   -2.6785    2.3327 H   0  0  0  0  0  0  0  0  0  0  0  0
    1.6793   -3.6366   -0.5890 H   0  0  0  0  0  0  0  0  0  0  0  0
    2.8662   -2.4980    0.0589 H   0  0  0  0  0  0  0  0  0  0  0  0
    2.8538   -4.1816    0.6166 H   0  0  0  0  0  0  0  0  0  0  0  0
    0.9758   -0.5952    1.0708 N   0  0  0  0  0  0  0  0  0  0  0  0
    0.3258    0.6374    0.7059 C   0  0  2  0  0  0  0  0  0  0  0  0
    0.2446    0.6799   -0.8164 C   0  0  0  0  0  0  0  0  0  0  0  0
   -0.3164   -0.1884   -1.4817 O   0  0  0  0  0  0  0  0  0  0  0  0
    1.0806    1.8629    1.2346 C   0  0  0  0  0  0  0  0  0  0  0  0
    1.0636    1.9781    2.7583 C   0  0  0  0  0  0  0  0  0  0  0  0
    1.8207    3.1691    3.3550 C   0  0  0  0  0  0  0  0  0  0  0  0
    2.4868    3.8370    2.5125 O   0  5  0  0  0  0  0  0  0  0  0  0
    1.6843    3.3545    4.5957 O   0  0  0  0  0  0  0  0  0  0  0  0
    1.9288   -0.5463    1.4242 H   0  0  0  0  0  0  0  0  0  0  0  0
   -0.6906    0.5885    1.1115 H   0  0  0  0  0  0  0  0  0  0  0  0
    0.6653    2.7781    0.7947 H   0  0  0  0  0  0  0  0  0  0  0  0
    2.1263    1.8162    0.9021 H   0  0  0  0  0  0  0  0  0  0  0  0
    0.0288    1.9926    3.1210 H   0  0  0  0  0  0  0  0  0  0  0  0
    1.5284    1.0771    3.1784 H   0  0  0  0  0  0  0  0  0  0  0  0
    0.9127    1.7761   -1.3440 N   0  0  0  0  0  0  0  0  0  0  0  0
    0.9955    2.0347   -2.7628 C   0  0  2  0  0  0  0  0  0  0  0  0
    2.1397    3.0121   -2.9967 C   0  0  0  0  0  0  0  0  0  0  0  0
    2.5692    3.7634   -2.1237 O   0  0  0  0  0  0  0  0  0  0  0  0
   -0.3134    2.5912   -3.3011 C   0  0  0  0  0  0  0  0  0  0  0  0
    1.3362    2.4521   -0.7152 H   0  0  0  0  0  0  0  0  0  0  0  0
    1.2264    1.0788   -3.2455 H   0  0  0  0  0  0  0  0  0  0  0  0
   -0.5615    3.5489   -2.8291 H   0  0  0  0  0  0  0  0  0  0  0  0
   -0.2583    2.7598   -4.3817 H   0  0  0  0  0  0  0  0  0  0  0  0
   -1.1405    1.9002   -3.1055 H   0  0  0  0  0  0  0  0  0  0  0  0
    2.5962    2.9774   -4.3069 N   0  0  0  0  0  0  0  0  0  0  0  0
    3.6681    3.8209   -4.7817 C   0  0  0  0  0  0  0  0  0  0  0  0
    2.1945    2.3096   -4.9585 H   0  0  0  0  0  0  0  0  0  0  0  0
    3.2481    4.7459   -5.2036 H   0  0  0  0  0  0  0  0  0  0  0  0
    4.3365    4.0704   -3.9444 H   0  0  0  0  0  0  0  0  0  0  0  0
    4.2366    3.2888   -5.5586 H   0  0  0  0  0  0  0  0  0  0  0  0
  1  3  1  0  0  0  0
  1  7  1  0  0  0  0
  1  2  2  0  0  0  0
 33 34  1  0  0  0  0
 34 42  1  0  0  0  0
 34 35  2  0  0  0  0
  8  9  1  0  0  0  0
  9 17  1  0  0  0  0
  9 10  2  0  0  0  0
 18 19  1  0  0  0  0
 19 32  1  0  0  0  0
 19 20  2  0  0  0  0
 22 23  1  0  0  0  0
 23 24  1  0  0  0  0
 23 25  2  0  0  0  0
 33 36  1  0  0  0  0
  8 11  1  0  0  0  0
 42 43  1  0  0  0  0
 21 22  1  0  0  0  0
 18 21  1  0  0  0  0
 32 33  1  0  0  0  0
  7  8  1  0  0  0  0
 17 18  1  0  0  0  0
  3  4  1  0  0  0  0
  3  5  1  0  0  0  0
  3  6  1  0  0  0  0
 36 39  1  0  0  0  0
 36 40  1  0  0  0  0
 36 41  1  0  0  0  0
 11 14  1  0  0  0  0
 11 15  1  0  0  0  0
 11 16  1  0  0  0  0
 43 45  1  0  0  0  0
 43 46  1  0  0  0  0
 43 47  1  0  0  0  0
 22 30  1  0  0  0  0
 22 31  1  0  0  0  0
 21 28  1  0  0  0  0
 21 29  1  0  0  0  0
 33 38  1  0  0  0  0
  8 13  1  0  0  0  0
 18 27  1  0  0  0  0
 42 44  1  0  0  0  0
  7 12  1  0  0  0  0
 32 37  1  0  0  0  0
 17 26  1  0  0  0  0
M  CHG  1  24  -1
M  END
$$$$

  -OEChem-05262214473D

 47 46  0     1  0  0  0  0  0999 V2000
    0.5093   -4.7265    3.0306 C   0  0  0  0  0  0  0  0  0  0  0  0
    1.2735   -4.4402    3.9448 O   0  0  0  0  0  0  0  0  0  0  0  0
   -0.4465   -5.8608    3.1982 C   0  0  0  0  0  0  0  0  0  0  0  0
   -0.0219   -6.8213    2.8645 H   0  0  0  0  0  0  0  0  0  0  0  0
   -0.7314   -6.0185    4.2509 H   0  0  0  0  0  0  0  0  0  0  0  0
   -1.3983   -5.7596    2.6527 H   0  0  0  0  0  0  0  0  0  0  0  0
    0.4252   -4.0886    1.8040 N   0  0  0  0  0  0  0  0  0  0  0  0
    1.2532   -2.9707    1.4349 C   0  0  2  0  0  0  0  0  0  0  0  0
    0.3395   -1.8293    1.0083 C   0  0  0  0  0  0  0  0  0  0  0  0
   -0.8136   -2.0027    0.6194 O   0  0  0  0  0  0  0  0  0  0  0  0
    2.2176   -3.3411    0.3189 C   0  0  0  0  0  0  0  0  0  0  0  0
   -0.2574   -4.4279    1.1287 H   0  0  0  0  0  0  0  0  0  0  0  0
    1.8087   -2.6785    2.3327 H   0  0  0  0  0  0  0  0  0  0  0  0
    1.6793   -3.6366   -0.5890 H   0  0  0  0  0  0  0  0  0  0  0  0
    2.8662   -2.4980    0.0589 H   0  0  0  0  0  0  0  0  0  0  0  0
    2.8538   -4.1816    0.6166 H   0  0  0  0  0  0  0  0  0  0  0  0
    0.9758   -0.5952    1.0708 N   0  0  0  0  0  0  0  0  0  0  0  0
    0.3258    0.6374    0.7059 C   0  0  2  0  0  0  0  0  0  0  0  0
    0.2446    0.6799   -0.8164 C   0  0  0  0  0  0  0  0  0  0  0  0
   -0.5276   -0.0223   -1.4658 O   0  0  0  0  0  0  0  0  0  0  0  0
    1.0806    1.8629    1.2346 C   0  0  0  0  0  0  0  0  0  0  0  0
    1.0636    1.9781    2.7583 C   0  0  0  0  0  0  0  0  0  0  0  0
    1.8207    3.1691    3.3550 C   0  0  0  0  0  0  0  0  0  0  0  0
    2.4868    3.8370    2.5125 O   0  5  0  0  0  0  0  0  0  0  0  0
    1.6843    3.3545    4.5957 O   0  0  0  0  0  0  0  0  0  0  0  0
    1.9288   -0.5463    1.4242 H   0  0  0  0  0  0  0  0  0  0  0  0
   -0.6906    0.5885    1.1115 H   0  0  0  0  0  0  0  0  0  0  0  0
    0.6653    2.7781    0.7947 H   0  0  0  0  0  0  0  0  0  0  0  0
    2.1263    1.8162    0.9021 H   0  0  0  0  0  0  0  0  0  0  0  0
    0.0288    1.9926    3.1210 H   0  0  0  0  0  0  0  0  0  0  0  0
    1.5284    1.0771    3.1784 H   0  0  0  0  0  0  0  0  0  0  0  0
    1.1684    1.5594   -1.3637 N   0  0  0  0  0  0  0  0  0  0  0  0
    1.3023    1.7696   -2.7865 C   0  0  2  0  0  0  0  0  0  0  0  0
    2.6581    2.4151   -3.0410 C   0  0  0  0  0  0  0  0  0  0  0  0
    3.2749    3.0410   -2.1815 O   0  0  0  0  0  0  0  0  0  0  0  0
    0.1768    2.6385   -3.3259 C   0  0  0  0  0  0  0  0  0  0  0  0
    1.7578    2.1110   -0.7472 H   0  0  0  0  0  0  0  0  0  0  0  0
    1.2742    0.7804   -3.2564 H   0  0  0  0  0  0  0  0  0  0  0  0
    0.1888    3.6337   -2.8667 H   0  0  0  0  0  0  0  0  0  0  0  0
    0.2638    2.7732   -4.4091 H   0  0  0  0  0  0  0  0  0  0  0  0
   -0.7989    2.1872   -3.1157 H   0  0  0  0  0  0  0  0  0  0  0  0
    3.0782    2.2468   -4.3530 N   0  0  0  0  0  0  0  0  0  0  0  0
    4.3273    2.7785   -4.8459 C   0  0  0  0  0  0  0  0  0  0  0  0
    2.5118    1.6972   -4.9925 H   0  0  0  0  0  0  0  0  0  0  0  0
    4.1567    3.7751   -5.2791 H   0  0  0  0  0  0  0  0  0  0  0  0
    5.0450    2.8575   -4.0160 H   0  0  0  0  0  0  0  0  0  0  0  0
    4.7321    2.1076   -5.6180 H   0  0  0  0  0  0  0  0  0  0  0  0
  1  3  1  0  0  0  0
  1  7  1  0  0  0  0
  1  2  2  0  0  0  0
 33 34  1  0  0  0  0
 34 42  1  0  0  0  0
 34 35  2  0  0  0  0
  8  9  1  0  0  0  0
  9 17  1  0  0  0  0
  9 10  2  0  0  0  0
 18 19  1  0  0  0  0
 19 32  1  0  0  0  0
 19 20  2  0  0  0  0
 22 23  1  0  0  0  0
 23 24  1  0  0  0  0
 23 25  2  0  0  0  0
 33 36  1  0  0  0  0
  8 11  1  0  0  0  0
 42 43  1  0  0  0  0
 21 22  1  0  0  0  0
 18 21  1  0  0  0  0
 32 33  1  0  0  0  0
  7  8  1  0  0  0  0
 17 18  1  0  0  0  0
  3  4  1  0  0  0  0
  3  5  1  0  0  0  0
  3  6  1  0  0  0  0
 36 39  1  0  0  0  0
 36 40  1  0  0  0  0
 36 41  1  0  0  0  0
 11 14  1  0  0  0  0
 11 15  1  0  0  0  0
 11 16  1  0  0  0  0
 43 45  1  0  0  0  0
 43 46  1  0  0  0  0
 43 47  1  0  0  0  0
 22 30  1  0  0  0  0
 22 31  1  0  0  0  0
 21 28  1  0  0  0  0
 21 29  1  0  0  0  0
 33 38  1  0  0  0  0
  8 13  1  0  0  0  0
 18 27  1  0  0  0  0
 42 44  1  0  0  0  0
  7 12  1  0  0  0  0
 32 37  1  0  0  0  0
 17 26  1  0  0  0  0
M  CHG  1  24  -1
M  END
$$$$

  -OEChem-05262214473D

 47 46  0     1  0  0  0  0  0999 V2000
    0.5093   -4.7265    3.0306 C   0  0  0  0  0  0  0  0  0  0  0  0
    1.2735   -4.4402    3.9448 O   0  0  0  0  0  0  0  0  0  0  0  0
   -0.4465   -5.8608    3.1982 C   0  0  0  0  0  0  0  0  0  0  0  0
   -0.0219   -6.8213    2.8645 H   0  0  0  0  0  0  0  0  0  0  0  0
   -0.7314   -6.0185    4.2509 H   0  0  0  0  0  0  0  0  0  0  0  0
   -1.3983   -5.7596    2.6527 H   0  0  0  0  0  0  0  0  0  0  0  0
    0.4252   -4.0886    1.8040 N   0  0  0  0  0  0  0  0  0  0  0  0
    1.2532   -2.9707    1.4349 C   0  0  2  0  0  0  0  0  0  0  0  0
    0.3395   -1.8293    1.0083 C   0  0  0  0  0  0  0  0  0  0  0  0
   -0.8136   -2.0027    0.6194 O   0  0  0  0  0  0  0  0  0  0  0  0
    2.2176   -3.3411    0.3189 C   0  0  0  0  0  0  0  0  0  0  0  0
   -0.2574   -4.4279    1.1287 H   0  0  0  0  0  0  0  0  0  0  0  0
    1.8087   -2.6785    2.3327 H   0  0  0  0  0  0  0  0  0  0  0  0
    1.6793   -3.6366   -0.5890 H   0  0  0  0  0  0  0  0  0  0  0  0
    2.8662   -2.4980    0.0589 H   0  0  0  0  0  0  0  0  0  0  0  0
    2.8538   -4.1816    0.6166 H   0  0  0  0  0  0  0  0  0  0  0  0
    0.9758   -0.5952    1.0708 N   0  0  0  0  0  0  0  0  0  0  0  0
    0.3258    0.6374    0.7059 C   0  0  2  0  0  0  0  0  0  0  0  0
    0.2446    0.6799   -0.8164 C   0  0  0  0  0  0  0  0  0  0  0  0
   -0.6886    0.1928   -1.4512 O   0  0  0  0  0  0  0  0  0  0  0  0
    1.0806    1.8629    1.2346 C   0  0  0  0  0  0  0  0  0  0  0  0
    1.0636    1.9781    2.7583 C   0  0  0  0  0  0  0  0  0  0  0  0
    1.8207    3.1691    3.3550 C   0  0  0  0  0  0  0  0  0  0  0  0
    2.4868    3.8370    2.5125 O   0  5  0  0  0  0  0  0  0  0  0  0
    1.6843    3.3545    4.5957 O   0  0  0  0  0  0  0  0  0  0  0  0
    1.9288   -0.5463    1.4242 H   0  0  0  0  0  0  0  0  0  0  0  0
   -0.6906    0.5885    1.1115 H   0  0  0  0  0  0  0  0  0  0  0  0
    0.6653    2.7781    0.7947 H   0  0  0  0  0  0  0  0  0  0  0  0
    2.1263    1.8162    0.9021 H   0  0  0  0  0  0  0  0  0  0  0  0
    0.0288    1.9926    3.1210 H   0  0  0  0  0  0  0  0  0  0  0  0
    1.5284    1.0771    3.1784 H   0  0  0  0  0  0  0  0  0  0  0  0
    1.3592    1.2837   -1.3815 N   0  0  0  0  0  0  0  0  0  0  0  0
    1.5301    1.4339   -2.8081 C   0  0  2  0  0  0  0  0  0  0  0  0
    3.0042    1.7038   -3.0793 C   0  0  0  0  0  0  0  0  0  0  0  0
    3.7695    2.1601   -2.2324 O   0  0  0  0  0  0  0  0  0  0  0  0
    0.6624    2.5571   -3.3541 C   0  0  0  0  0  0  0  0  0  0  0  0
    2.0767    1.6721   -0.7765 H   0  0  0  0  0  0  0  0  0  0  0  0
    1.2432    0.4796   -3.2631 H   0  0  0  0  0  0  0  0  0  0  0  0
    0.9352    3.5212   -2.9096 H   0  0  0  0  0  0  0  0  0  0  0  0
    0.7715    2.6509   -4.4396 H   0  0  0  0  0  0  0  0  0  0  0  0
   -0.3948    2.3761   -3.1320 H   0  0  0  0  0  0  0  0  0  0  0  0
    3.3548    1.4159   -4.3909 N   0  0  0  0  0  0  0  0  0  0  0  0
    4.6943    1.6004   -4.8984 C   0  0  0  0  0  0  0  0  0  0  0  0
    2.6599    1.0232   -5.0192 H   0  0  0  0  0  0  0  0  0  0  0  0
    4.7830    2.6016   -5.3453 H   0  0  0  0  0  0  0  0  0  0  0  0
    5.4155    1.5019   -4.0736 H   0  0  0  0  0  0  0  0  0  0  0  0
    4.9050    0.8379   -5.6627 H   0  0  0  0  0  0  0  0  0  0  0  0
  1  3  1  0  0  0  0
  1  7  1  0  0  0  0
  1  2  2  0  0  0  0
 33 34  1  0  0  0  0
 34 42  1  0  0  0  0
 34 35  2  0  0  0  0
  8  9  1  0  0  0  0
  9 17  1  0  0  0  0
  9 10  2  0  0  0  0
 18 19  1  0  0  0  0
 19 32  1  0  0  0  0
 19 20  2  0  0  0  0
 22 23  1  0  0  0  0
 23 24  1  0  0  0  0
 23 25  2  0  0  0  0
 33 36  1  0  0  0  0
  8 11  1  0  0  0  0
 42 43  1  0  0  0  0
 21 22  1  0  0  0  0
 18 21  1  0  0  0  0
 32 33  1  0  0  0  0
  7  8  1  0  0  0  0
 17 18  1  0  0  0  0
  3  4  1  0  0  0  0
  3  5  1  0  0  0  0
  3  6  1  0  0  0  0
 36 39  1  0  0  0  0
 36 40  1  0  0  0  0
 36 41  1  0  0  0  0
 11 14  1  0  0  0  0
 11 15  1  0  0  0  0
 11 16  1  0  0  0  0
 43 45  1  0  0  0  0
 43 46  1  0  0  0  0
 43 47  1  0  0  0  0
 22 30  1  0  0  0  0
 22 31  1  0  0  0  0
 21 28  1  0  0  0  0
 21 29  1  0  0  0  0
 33 38  1  0  0  0  0
  8 13  1  0  0  0  0
 18 27  1  0  0  0  0
 42 44  1  0  0  0  0
  7 12  1  0  0  0  0
 32 37  1  0  0  0  0
 17 26  1  0  0  0  0
M  CHG  1  24  -1
M  END
$$$$

  -OEChem-05262214473D

 47 46  0     1  0  0  0  0  0999 V2000
    0.5093   -4.7265    3.0306 C   0  0  0  0  0  0  0  0  0  0  0  0
    1.2735   -4.4402    3.9448 O   0  0  0  0  0  0  0  0  0  0  0  0
   -0.4465   -5.8608    3.1982 C   0  0  0  0  0  0  0  0  0  0  0  0
   -0.0219   -6.8213    2.8645 H   0  0  0  0  0  0  0  0  0  0  0  0
   -0.7314   -6.0185    4.2509 H   0  0  0  0  0  0  0  0  0  0  0  0
   -1.3983   -5.7596    2.6527 H   0  0  0  0  0  0  0  0  0  0  0  0
    0.4252   -4.0886    1.8040 N   0  0  0  0  0  0  0  0  0  0  0  0
    1.2532   -2.9707    1.4349 C   0  0  2  0  0  0  0  0  0  0  0  0
    0.3395   -1.8293    1.0083 C   0  0  0  0  0  0  0  0  0  0  0  0
   -0.8136   -2.0027    0.6194 O   0  0  0  0  0  0  0  0  0  0  0  0
    2.2176   -3.3411    0.3189 C   0  0  0  0  0  0  0  0  0  0  0  0
   -0.2574   -4.4279    1.1287 H   0  0  0  0  0  0  0  0  0  0  0  0
    1.8087   -2.6785    2.3327 H   0  0  0  0  0  0  0  0  0  0  0  0
    1.6793   -3.6366   -0.5890 H   0  0  0  0  0  0  0  0  0  0  0  0
    2.8662   -2.4980    0.0589 H   0  0  0  0  0  0  0  0  0  0  0  0
    2.8538   -4.1816    0.6166 H   0  0  0  0  0  0  0  0  0  0  0  0
    0.9758   -0.5952    1.0708 N   0  0  0  0  0  0  0  0  0  0  0  0
    0.3258    0.6374    0.7059 C   0  0  2  0  0  0  0  0  0  0  0  0
    0.2446    0.6799   -0.8164 C   0  0  0  0  0  0  0  0  0  0  0  0
   -0.7885    0.4424   -1.4389 O   0  0  0  0  0  0  0  0  0  0  0  0
    1.0806    1.8629    1.2346 C   0  0  0  0  0  0  0  0  0  0  0  0
    1.0636    1.9781    2.7583 C   0  0  0  0  0  0  0  0  0  0  0  0
    1.8207    3.1691    3.3550 C   0  0  0  0  0  0  0  0  0  0  0  0
    2.4868    3.8370    2.5125 O   0  5  0  0  0  0  0  0  0  0  0  0
    1.6843    3.3545    4.5957 O   0  0  0  0  0  0  0  0  0  0  0  0
    1.9288   -0.5463    1.4242 H   0  0  0  0  0  0  0  0  0  0  0  0
   -0.6906    0.5885    1.1115 H   0  0  0  0  0  0  0  0  0  0  0  0
    0.6653    2.7781    0.7947 H   0  0  0  0  0  0  0  0  0  0  0  0
    2.1263    1.8162    0.9021 H   0  0  0  0  0  0  0  0  0  0  0  0
    0.0288    1.9926    3.1210 H   0  0  0  0  0  0  0  0  0  0  0  0
    1.5284    1.0771    3.1784 H   0  0  0  0  0  0  0  0  0  0  0  0
    1.4723    0.9679   -1.3964 N   0  0  0  0  0  0  0  0  0  0  0  0
    1.6632    1.0505   -2.8259 C   0  0  2  0  0  0  0  0  0  0  0  0
    3.1545    0.9269   -3.1090 C   0  0  0  0  0  0  0  0  0  0  0  0
    4.0193    1.1807   -2.2731 O   0  0  0  0  0  0  0  0  0  0  0  0
    1.1102    2.3527   -3.3836 C   0  0  0  0  0  0  0  0  0  0  0  0
    2.2711    1.1655   -0.8010 H   0  0  0  0  0  0  0  0  0  0  0  0
    1.1355    0.1971   -3.2653 H   0  0  0  0  0  0  0  0  0  0  0  0
    1.6268    3.2192   -2.9549 H   0  0  0  0  0  0  0  0  0  0  0  0
    1.2300    2.4012   -4.4710 H   0  0  0  0  0  0  0  0  0  0  0  0
    0.0441    2.4539   -3.1532 H   0  0  0  0  0  0  0  0  0  0  0  0
    3.4070    0.5413   -4.4181 N   0  0  0  0  0  0  0  0  0  0  0  0
    4.7441    0.3669   -4.9355 C   0  0  0  0  0  0  0  0  0  0  0  0
    2.6286    0.3335   -5.0368 H   0  0  0  0  0  0  0  0  0  0  0  0
    5.0844    1.3054   -5.3975 H   0  0  0  0  0  0  0  0  0  0  0  0
    5.4228    0.0960   -4.1133 H   0  0  0  0  0  0  0  0  0  0  0  0
    4.7438   -0.4339   -5.6896 H   0  0  0  0  0  0  0  0  0  0  0  0
  1  3  1  0  0  0  0
  1  7  1  0  0  0  0
  1  2  2  0  0  0  0
 33 34  1  0  0  0  0
 34 42  1  0  0  0  0
 34 35  2  0  0  0  0
  8  9  1  0  0  0  0
  9 17  1  0  0  0  0
  9 10  2  0  0  0  0
 18 19  1  0  0  0  0
 19 32  1  0  0  0  0
 19 20  2  0  0  0  0
 22 23  1  0  0  0  0
 23 24  1  0  0  0  0
 23 25  2  0  0  0  0
 33 36  1  0  0  0  0
  8 11  1  0  0  0  0
 42 43  1  0  0  0  0
 21 22  1  0  0  0  0
 18 21  1  0  0  0  0
 32 33  1  0  0  0  0
  7  8  1  0  0  0  0
 17 18  1  0  0  0  0
  3  4  1  0  0  0  0
  3  5  1  0  0  0  0
  3  6  1  0  0  0  0
 36 39  1  0  0  0  0
 36 40  1  0  0  0  0
 36 41  1  0  0  0  0
 11 14  1  0  0  0  0
 11 15  1  0  0  0  0
 11 16  1  0  0  0  0
 43 45  1  0  0  0  0
 43 46  1  0  0  0  0
 43 47  1  0  0  0  0
 22 30  1  0  0  0  0
 22 31  1  0  0  0  0
 21 28  1  0  0  0  0
 21 29  1  0  0  0  0
 33 38  1  0  0  0  0
  8 13  1  0  0  0  0
 18 27  1  0  0  0  0
 42 44  1  0  0  0  0
  7 12  1  0  0  0  0
 32 37  1  0  0  0  0
 17 26  1  0  0  0  0
M  CHG  1  24  -1
M  END
$$$$

  -OEChem-05262214473D

 47 46  0     1  0  0  0  0  0999 V2000
    0.5093   -4.7265    3.0306 C   0  0  0  0  0  0  0  0  0  0  0  0
    1.2735   -4.4402    3.9448 O   0  0  0  0  0  0  0  0  0  0  0  0
   -0.4465   -5.8608    3.1982 C   0  0  0  0  0  0  0  0  0  0  0  0
   -0.0219   -6.8213    2.8645 H   0  0  0  0  0  0  0  0  0  0  0  0
   -0.7314   -6.0185    4.2509 H   0  0  0  0  0  0  0  0  0  0  0  0
   -1.3983   -5.7596    2.6527 H   0  0  0  0  0  0  0  0  0  0  0  0
    0.4252   -4.0886    1.8040 N   0  0  0  0  0  0  0  0  0  0  0  0
    1.2532   -2.9707    1.4349 C   0  0  2  0  0  0  0  0  0  0  0  0
    0.3395   -1.8293    1.0083 C   0  0  0  0  0  0  0  0  0  0  0  0
   -0.8136   -2.0027    0.6194 O   0  0  0  0  0  0  0  0  0  0  0  0
    2.2176   -3.3411    0.3189 C   0  0  0  0  0  0  0  0  0  0  0  0
   -0.2574   -4.4279    1.1287 H   0  0  0  0  0  0  0  0  0  0  0  0
    1.8087   -2.6785    2.3327 H   0  0  0  0  0  0  0  0  0  0  0  0
    1.6793   -3.6366   -0.5890 H   0  0  0  0  0  0  0  0  0  0  0  0
    2.8662   -2.4980    0.0589 H   0  0  0  0  0  0  0  0  0  0  0  0
    2.8538   -4.1816    0.6166 H   0  0  0  0  0  0  0  0  0  0  0  0
    0.9758   -0.5952    1.0708 N   0  0  0  0  0  0  0  0  0  0  0  0
    0.3258    0.6374    0.7059 C   0  0  2  0  0  0  0  0  0  0  0  0
    0.2446    0.6799   -0.8164 C   0  0  0  0  0  0  0  0  0  0  0  0
   -0.8203    0.7095   -1.4298 O   0  0  0  0  0  0  0  0  0  0  0  0
    1.0806    1.8629    1.2346 C   0  0  0  0  0  0  0  0  0  0  0  0
    1.0636    1.9781    2.7583 C   0  0  0  0  0  0  0  0  0  0  0  0
    1.8207    3.1691    3.3550 C   0  0  0  0  0  0  0  0  0  0  0  0
    2.4868    3.8370    2.5125 O   0  5  0  0  0  0  0  0  0  0  0  0
    1.6843    3.3545    4.5957 O   0  0  0  0  0  0  0  0  0  0  0  0
    1.9288   -0.5463    1.4242 H   0  0  0  0  0  0  0  0  0  0  0  0
   -0.6906    0.5885    1.1115 H   0  0  0  0  0  0  0  0  0  0  0  0
    0.6653    2.7781    0.7947 H   0  0  0  0  0  0  0  0  0  0  0  0
    2.1263    1.8162    0.9021 H   0  0  0  0  0  0  0  0  0  0  0  0
    0.0288    1.9926    3.1210 H   0  0  0  0  0  0  0  0  0  0  0  0
    1.5284    1.0771    3.1784 H   0  0  0  0  0  0  0  0  0  0  0  0
    1.4997    0.6335   -1.4072 N   0  0  0  0  0  0  0  0  0  0  0  0
    1.6926    0.6456   -2.8387 C   0  0  2  0  0  0  0  0  0  0  0  0
    3.0988    0.1371   -3.1281 C   0  0  0  0  0  0  0  0  0  0  0  0
    4.0073    0.1696   -2.3007 O   0  0  0  0  0  0  0  0  0  0  0  0
    1.4897    2.0392   -3.4126 C   0  0  0  0  0  0  0  0  0  0  0  0
    2.3278    0.6255   -0.8191 H   0  0  0  0  0  0  0  0  0  0  0  0
    0.9584   -0.0481   -3.2627 H   0  0  0  0  0  0  0  0  0  0  0  0
    2.2164    2.7482   -2.9995 H   0  0  0  0  0  0  0  0  0  0  0  0
    1.6082    2.0411   -4.5012 H   0  0  0  0  0  0  0  0  0  0  0  0
    0.4881    2.4153   -3.1779 H   0  0  0  0  0  0  0  0  0  0  0  0
    3.2312   -0.3173   -4.4327 N   0  0  0  0  0  0  0  0  0  0  0  0
    4.4732   -0.8379   -4.9547 C   0  0  0  0  0  0  0  0  0  0  0  0
    2.4200   -0.3248   -5.0440 H   0  0  0  0  0  0  0  0  0  0  0  0
    5.0402   -0.0252   -5.4323 H   0  0  0  0  0  0  0  0  0  0  0  0
    5.0663   -1.2644   -4.1322 H   0  0  0  0  0  0  0  0  0  0  0  0
    4.2593   -1.6210   -5.6969 H   0  0  0  0  0  0  0  0  0  0  0  0
  1  3  1  0  0  0  0
  1  7  1  0  0  0  0
  1  2  2  0  0  0  0
 33 34  1  0  0  0  0
 34 42  1  0  0  0  0
 34 35  2  0  0  0  0
  8  9  1  0  0  0  0
  9 17  1  0  0  0  0
  9 10  2  0  0  0  0
 18 19  1  0  0  0  0
 19 32  1  0  0  0  0
 19 20  2  0  0  0  0
 22 23  1  0  0  0  0
 23 24  1  0  0  0  0
 23 25  2  0  0  0  0
 33 36  1  0  0  0  0
  8 11  1  0  0  0  0
 42 43  1  0  0  0  0
 21 22  1  0  0  0  0
 18 21  1  0  0  0  0
 32 33  1  0  0  0  0
  7  8  1  0  0  0  0
 17 18  1  0  0  0  0
  3  4  1  0  0  0  0
  3  5  1  0  0  0  0
  3  6  1  0  0  0  0
 36 39  1  0  0  0  0
 36 40  1  0  0  0  0
 36 41  1  0  0  0  0
 11 14  1  0  0  0  0
 11 15  1  0  0  0  0
 11 16  1  0  0  0  0
 43 45  1  0  0  0  0
 43 46  1  0  0  0  0
 43 47  1  0  0  0  0
 22 30  1  0  0  0  0
 22 31  1  0  0  0  0
 21 28  1  0  0  0  0
 21 29  1  0  0  0  0
 33 38  1  0  0  0  0
  8 13  1  0  0  0  0
 18 27  1  0  0  0  0
 42 44  1  0  0  0  0
  7 12  1  0  0  0  0
 32 37  1  0  0  0  0
 17 26  1  0  0  0  0
M  CHG  1  24  -1
M  END
$$$$

  -OEChem-05262214473D

 47 46  0     1  0  0  0  0  0999 V2000
    0.5093   -4.7265    3.0306 C   0  0  0  0  0  0  0  0  0  0  0  0
    1.2735   -4.4402    3.9448 O   0  0  0  0  0  0  0  0  0  0  0  0
   -0.4465   -5.8608    3.1982 C   0  0  0  0  0  0  0  0  0  0  0  0
   -0.0219   -6.8213    2.8645 H   0  0  0  0  0  0  0  0  0  0  0  0
   -0.7314   -6.0185    4.2509 H   0  0  0  0  0  0  0  0  0  0  0  0
   -1.3983   -5.7596    2.6527 H   0  0  0  0  0  0  0  0  0  0  0  0
    0.4252   -4.0886    1.8040 N   0  0  0  0  0  0  0  0  0  0  0  0
    1.2532   -2.9707    1.4349 C   0  0  2  0  0  0  0  0  0  0  0  0
    0.3395   -1.8293    1.0083 C   0  0  0  0  0  0  0  0  0  0  0  0
   -0.8136   -2.0027    0.6194 O   0  0  0  0  0  0  0  0  0  0  0  0
    2.2176   -3.3411    0.3189 C   0  0  0  0  0  0  0  0  0  0  0  0
   -0.2574   -4.4279    1.1287 H   0  0  0  0  0  0  0  0  0  0  0  0
    1.8087   -2.6785    2.3327 H   0  0  0  0  0  0  0  0  0  0  0  0
    1.6793   -3.6366   -0.5890 H   0  0  0  0  0  0  0  0  0  0  0  0
    2.8662   -2.4980    0.0589 H   0  0  0  0  0  0  0  0  0  0  0  0
    2.8538   -4.1816    0.6166 H   0  0  0  0  0  0  0  0  0  0  0  0
    0.9758   -0.5952    1.0708 N   0  0  0  0  0  0  0  0  0  0  0  0
    0.3258    0.6374    0.7059 C   0  0  2  0  0  0  0  0  0  0  0  0
    0.2446    0.6799   -0.8164 C   0  0  0  0  0  0  0  0  0  0  0  0
   -0.7820    0.9758   -1.4244 O   0  0  0  0  0  0  0  0  0  0  0  0
    1.0806    1.8629    1.2346 C   0  0  0  0  0  0  0  0  0  0  0  0
    1.0636    1.9781    2.7583 C   0  0  0  0  0  0  0  0  0  0  0  0
    1.8207    3.1691    3.3550 C   0  0  0  0  0  0  0  0  0  0  0  0
    2.4868    3.8370    2.5125 O   0  5  0  0  0  0  0  0  0  0  0  0
    1.6843    3.3545    4.5957 O   0  0  0  0  0  0  0  0  0  0  0  0
    1.9288   -0.5463    1.4242 H   0  0  0  0  0  0  0  0  0  0  0  0
   -0.6906    0.5885    1.1115 H   0  0  0  0  0  0  0  0  0  0  0  0
    0.6653    2.7781    0.7947 H   0  0  0  0  0  0  0  0  0  0  0  0
    2.1263    1.8162    0.9021 H   0  0  0  0  0  0  0  0  0  0  0  0
    0.0288    1.9926    3.1210 H   0  0  0  0  0  0  0  0  0  0  0  0
    1.5284    1.0771    3.1784 H   0  0  0  0  0  0  0  0  0  0  0  0
    1.4398    0.3032   -1.4132 N   0  0  0  0  0  0  0  0  0  0  0  0
    1.6163    0.2467   -2.8458 C   0  0  2  0  0  0  0  0  0  0  0  0
    2.8408   -0.6115   -3.1352 C   0  0  0  0  0  0  0  0  0  0  0  0
    3.7342   -0.8044   -2.3133 O   0  0  0  0  0  0  0  0  0  0  0  0
    1.7751    1.6379   -3.4390 C   0  0  0  0  0  0  0  0  0  0  0  0
    2.2430    0.0890   -0.8295 H   0  0  0  0  0  0  0  0  0  0  0  0
    0.7240   -0.2391   -3.2555 H   0  0  0  0  0  0  0  0  0  0  0  0
    2.6640    2.1403   -3.0403 H   0  0  0  0  0  0  0  0  0  0  0  0
    1.8803    1.5952   -4.5281 H   0  0  0  0  0  0  0  0  0  0  0  0
    0.9068    2.2630   -3.2045 H   0  0  0  0  0  0  0  0  0  0  0  0
    2.8396   -1.1015   -4.4338 N   0  0  0  0  0  0  0  0  0  0  0  0
    3.9002   -1.9320   -4.9547 C   0  0  0  0  0  0  0  0  0  0  0  0
    2.0485   -0.9069   -5.0405 H   0  0  0  0  0  0  0  0  0  0  0  0
    4.6534   -1.2996   -5.4473 H   0  0  0  0  0  0  0  0  0  0  0  0
    4.3703   -2.4867   -4.1293 H   0  0  0  0  0  0  0  0  0  0  0  0
    3.4845   -2.6427   -5.6842 H   0  0  0  0  0  0  0  0  0  0  0  0
  1  3  1  0  0  0  0
  1  7  1  0  0  0  0
  1  2  2  0  0  0  0
 33 34  1  0  0  0  0
 34 42  1  0  0  0  0
 34 35  2  0  0  0  0
  8  9  1  0  0  0  0
  9 17  1  0  0  0  0
  9 10  2  0  0  0  0
 18 19  1  0  0  0  0
 19 32  1  0  0  0  0
 19 20  2  0  0  0  0
 22 23  1  0  0  0  0
 23 24  1  0  0  0  0
 23 25  2  0  0  0  0
 33 36  1  0  0  0  0
  8 11  1  0  0  0  0
 42 43  1  0  0  0  0
 21 22  1  0  0  0  0
 18 21  1  0  0  0  0
 32 33  1  0  0  0  0
  7  8  1  0  0  0  0
 17 18  1  0  0  0  0
  3  4  1  0  0  0  0
  3  5  1  0  0  0  0
  3  6  1  0  0  0  0
 36 39  1  0  0  0  0
 36 40  1  0  0  0  0
 36 41  1  0  0  0  0
 11 14  1  0  0  0  0
 11 15  1  0  0  0  0
 11 16  1  0  0  0  0
 43 45  1  0  0  0  0
 43 46  1  0  0  0  0
 43 47  1  0  0  0  0
 22 30  1  0  0  0  0
 22 31  1  0  0  0  0
 21 28  1  0  0  0  0
 21 29  1  0  0  0  0
 33 38  1  0  0  0  0
  8 13  1  0  0  0  0
 18 27  1  0  0  0  0
 42 44  1  0  0  0  0
  7 12  1  0  0  0  0
 32 37  1  0  0  0  0
 17 26  1  0  0  0  0
M  CHG  1  24  -1
M  END
$$$$

  -OEChem-05262214473D

 47 46  0     1  0  0  0  0  0999 V2000
    0.5093   -4.7265    3.0306 C   0  0  0  0  0  0  0  0  0  0  0  0
    1.2735   -4.4402    3.9448 O   0  0  0  0  0  0  0  0  0  0  0  0
   -0.4465   -5.8608    3.1982 C   0  0  0  0  0  0  0  0  0  0  0  0
   -0.0219   -6.8213    2.8645 H   0  0  0  0  0  0  0  0  0  0  0  0
   -0.7314   -6.0185    4.2509 H   0  0  0  0  0  0  0  0  0  0  0  0
   -1.3983   -5.7596    2.6527 H   0  0  0  0  0  0  0  0  0  0  0  0
    0.4252   -4.0886    1.8040 N   0  0  0  0  0  0  0  0  0  0  0  0
    1.2532   -2.9707    1.4349 C   0  0  2  0  0  0  0  0  0  0  0  0
    0.3395   -1.8293    1.0083 C   0  0  0  0  0  0  0  0  0  0  0  0
   -0.8136   -2.0027    0.6194 O   0  0  0  0  0  0  0  0  0  0  0  0
    2.2176   -3.3411    0.3189 C   0  0  0  0  0  0  0  0  0  0  0  0
   -0.2574   -4.4279    1.1287 H   0  0  0  0  0  0  0  0  0  0  0  0
    1.8087   -2.6785    2.3327 H   0  0  0  0  0  0  0  0  0  0  0  0
    1.6793   -3.6366   -0.5890 H   0  0  0  0  0  0  0  0  0  0  0  0
    2.8662   -2.4980    0.0589 H   0  0  0  0  0  0  0  0  0  0  0  0
    2.8538   -4.1816    0.6166 H   0  0  0  0  0  0  0  0  0  0  0  0
    0.9758   -0.5952    1.0708 N   0  0  0  0  0  0  0  0  0  0  0  0
    0.3258    0.6374    0.7059 C   0  0  2  0  0  0  0  0  0  0  0  0
    0.2446    0.6799   -0.8164 C   0  0  0  0  0  0  0  0  0  0  0  0
   -0.6762    1.2232   -1.4231 O   0  0  0  0  0  0  0  0  0  0  0  0
    1.0806    1.8629    1.2346 C   0  0  0  0  0  0  0  0  0  0  0  0
    1.0636    1.9781    2.7583 C   0  0  0  0  0  0  0  0  0  0  0  0
    1.8207    3.1691    3.3550 C   0  0  0  0  0  0  0  0  0  0  0  0
    2.4868    3.8370    2.5125 O   0  5  0  0  0  0  0  0  0  0  0  0
    1.6843    3.3545    4.5957 O   0  0  0  0  0  0  0  0  0  0  0  0
    1.9288   -0.5463    1.4242 H   0  0  0  0  0  0  0  0  0  0  0  0
   -0.6906    0.5885    1.1115 H   0  0  0  0  0  0  0  0  0  0  0  0
    0.6653    2.7781    0.7947 H   0  0  0  0  0  0  0  0  0  0  0  0
    2.1263    1.8162    0.9021 H   0  0  0  0  0  0  0  0  0  0  0  0
    0.0288    1.9926    3.1210 H   0  0  0  0  0  0  0  0  0  0  0  0
    1.5284    1.0771    3.1784 H   0  0  0  0  0  0  0  0  0  0  0  0
    1.2965   -0.0005   -1.4140 N   0  0  0  0  0  0  0  0  0  0  0  0
    1.4395   -0.1191   -2.8466 C   0  0  2  0  0  0  0  0  0  0  0  0
    2.3981   -1.2681   -3.1300 C   0  0  0  0  0  0  0  0  0  0  0  0
    3.2188   -1.6747   -2.3101 O   0  0  0  0  0  0  0  0  0  0  0  0
    1.9469    1.1762   -3.4611 C   0  0  0  0  0  0  0  0  0  0  0  0
    2.0223   -0.4074   -0.8316 H   0  0  0  0  0  0  0  0  0  0  0  0
    0.4484   -0.3630   -3.2443 H   0  0  0  0  0  0  0  0  0  0  0  0
    2.9390    1.4369   -3.0746 H   0  0  0  0  0  0  0  0  0  0  0  0
    2.0276    1.0938   -4.5500 H   0  0  0  0  0  0  0  0  0  0  0  0
    1.2717    2.0074   -3.2311 H   0  0  0  0  0  0  0  0  0  0  0  0
    2.2586   -1.7577   -4.4211 N   0  0  0  0  0  0  0  0  0  0  0  0
    3.0640   -2.8407   -4.9355 C   0  0  0  0  0  0  0  0  0  0  0  0
    1.5392   -1.3732   -5.0264 H   0  0  0  0  0  0  0  0  0  0  0  0
    3.9506   -2.4308   -5.4414 H   0  0  0  0  0  0  0  0  0  0  0  0
    3.3823   -3.4874   -4.1046 H   0  0  0  0  0  0  0  0  0  0  0  0
    2.4723   -3.4291   -5.6522 H   0  0  0  0  0  0  0  0  0  0  0  0
  1  3  1  0  0  0  0
  1  7  1  0  0  0  0
  1  2  2  0  0  0  0
 33 34  1  0  0  0  0
 34 42  1  0  0  0  0
 34 35  2  0  0  0  0
  8  9  1  0  0  0  0
  9 17  1  0  0  0  0
  9 10  2  0  0  0  0
 18 19  1  0  0  0  0
 19 32  1  0  0  0  0
 19 20  2  0  0  0  0
 22 23  1  0  0  0  0
 23 24  1  0  0  0  0
 23 25  2  0  0  0  0
 33 36  1  0  0  0  0
  8 11  1  0  0  0  0
 42 43  1  0  0  0  0
 21 22  1  0  0  0  0
 18 21  1  0  0  0  0
 32 33  1  0  0  0  0
  7  8  1  0  0  0  0
 17 18  1  0  0  0  0
  3  4  1  0  0  0  0
  3  5  1  0  0  0  0
  3  6  1  0  0  0  0
 36 39  1  0  0  0  0
 36 40  1  0  0  0  0
 36 41  1  0  0  0  0
 11 14  1  0  0  0  0
 11 15  1  0  0  0  0
 11 16  1  0  0  0  0
 43 45  1  0  0  0  0
 43 46  1  0  0  0  0
 43 47  1  0  0  0  0
 22 30  1  0  0  0  0
 22 31  1  0  0  0  0
 21 28  1  0  0  0  0
 21 29  1  0  0  0  0
 33 38  1  0  0  0  0
  8 13  1  0  0  0  0
 18 27  1  0  0  0  0
 42 44  1  0  0  0  0
  7 12  1  0  0  0  0
 32 37  1  0  0  0  0
 17 26  1  0  0  0  0
M  CHG  1  24  -1
M  END
$$$$

  -OEChem-05262214473D

 47 46  0     1  0  0  0  0  0999 V2000
    0.5093   -4.7265    3.0306 C   0  0  0  0  0  0  0  0  0  0  0  0
    1.2735   -4.4402    3.9448 O   0  0  0  0  0  0  0  0  0  0  0  0
   -0.4465   -5.8608    3.1982 C   0  0  0  0  0  0  0  0  0  0  0  0
   -0.0219   -6.8213    2.8645 H   0  0  0  0  0  0  0  0  0  0  0  0
   -0.7314   -6.0185    4.2509 H   0  0  0  0  0  0  0  0  0  0  0  0
   -1.3983   -5.7596    2.6527 H   0  0  0  0  0  0  0  0  0  0  0  0
    0.4252   -4.0886    1.8040 N   0  0  0  0  0  0  0  0  0  0  0  0
    1.2532   -2.9707    1.4349 C   0  0  2  0  0  0  0  0  0  0  0  0
    0.3395   -1.8293    1.0083 C   0  0  0  0  0  0  0  0  0  0  0  0
   -0.8136   -2.0027    0.6194 O   0  0  0  0  0  0  0  0  0  0  0  0
    2.2176   -3.3411    0.3189 C   0  0  0  0  0  0  0  0  0  0  0  0
   -0.2574   -4.4279    1.1287 H   0  0  0  0  0  0  0  0  0  0  0  0
    1.8087   -2.6785    2.3327 H   0  0  0  0  0  0  0  0  0  0  0  0
    1.6793   -3.6366   -0.5890 H   0  0  0  0  0  0  0  0  0  0  0  0
    2.8662   -2.4980    0.0589 H   0  0  0  0  0  0  0  0  0  0  0  0
    2.8538   -4.1816    0.6166 H   0  0  0  0  0  0  0  0  0  0  0  0
    0.9758   -0.5952    1.0708 N   0  0  0  0  0  0  0  0  0  0  0  0
    0.3258    0.6374    0.7059 C   0  0  2  0  0  0  0  0  0  0  0  0
    0.2446    0.6799   -0.8164 C   0  0  0  0  0  0  0  0  0  0  0  0
   -0.5100    1.4349   -1.4261 O   0  0  0  0  0  0  0  0  0  0  0  0
    1.0806    1.8629    1.2346 C   0  0  0  0  0  0  0  0  0  0  0  0
    1.0636    1.9781    2.7583 C   0  0  0  0  0  0  0  0  0  0  0  0
    1.8207    3.1691    3.3550 C   0  0  0  0  0  0  0  0  0  0  0  0
    2.4868    3.8370    2.5125 O   0  5  0  0  0  0  0  0  0  0  0  0
    1.6843    3.3545    4.5957 O   0  0  0  0  0  0  0  0  0  0  0  0
    1.9288   -0.5463    1.4242 H   0  0  0  0  0  0  0  0  0  0  0  0
   -0.6906    0.5885    1.1115 H   0  0  0  0  0  0  0  0  0  0  0  0
    0.6653    2.7781    0.7947 H   0  0  0  0  0  0  0  0  0  0  0  0
    2.1263    1.8162    0.9021 H   0  0  0  0  0  0  0  0  0  0  0  0
    0.0288    1.9926    3.1210 H   0  0  0  0  0  0  0  0  0  0  0  0
    1.5284    1.0771    3.1784 H   0  0  0  0  0  0  0  0  0  0  0  0
    1.0796   -0.2568   -1.4096 N   0  0  0  0  0  0  0  0  0  0  0  0
    1.1742   -0.4266   -2.8410 C   0  0  2  0  0  0  0  0  0  0  0  0
    1.8008   -1.7879   -3.1127 C   0  0  0  0  0  0  0  0  0  0  0  0
    2.4961   -2.3823   -2.2914 O   0  0  0  0  0  0  0  0  0  0  0  0
    1.9934    0.6855   -3.4773 C   0  0  0  0  0  0  0  0  0  0  0  0
    1.6809   -0.8300   -0.8252 H   0  0  0  0  0  0  0  0  0  0  0  0
    0.1502   -0.4112   -3.2297 H   0  0  0  0  0  0  0  0  0  0  0  0
    3.0226    0.6859   -3.1000 H   0  0  0  0  0  0  0  0  0  0  0  0
    2.0403    0.5711   -4.5653 H   0  0  0  0  0  0  0  0  0  0  0  0
    1.5579    1.6659   -3.2559 H   0  0  0  0  0  0  0  0  0  0  0  0
    1.5280   -2.2414   -4.3957 N   0  0  0  0  0  0  0  0  0  0  0  0
    2.0217   -3.5022   -4.8984 C   0  0  0  0  0  0  0  0  0  0  0  0
    0.9269   -1.6918   -5.0026 H   0  0  0  0  0  0  0  0  0  0  0  0
    2.9794   -3.3418   -5.4151 H   0  0  0  0  0  0  0  0  0  0  0  0
    2.1697   -4.1985   -4.0598 H   0  0  0  0  0  0  0  0  0  0  0  0
    1.2916   -3.9269   -5.6031 H   0  0  0  0  0  0  0  0  0  0  0  0
  1  3  1  0  0  0  0
  1  7  1  0  0  0  0
  1  2  2  0  0  0  0
 33 34  1  0  0  0  0
 34 42  1  0  0  0  0
 34 35  2  0  0  0  0
  8  9  1  0  0  0  0
  9 17  1  0  0  0  0
  9 10  2  0  0  0  0
 18 19  1  0  0  0  0
 19 32  1  0  0  0  0
 19 20  2  0  0  0  0
 22 23  1  0  0  0  0
 23 24  1  0  0  0  0
 23 25  2  0  0  0  0
 33 36  1  0  0  0  0
  8 11  1  0  0  0  0
 42 43  1  0  0  0  0
 21 22  1  0  0  0  0
 18 21  1  0  0  0  0
 32 33  1  0  0  0  0
  7  8  1  0  0  0  0
 17 18  1  0  0  0  0
  3  4  1  0  0  0  0
  3  5  1  0  0  0  0
  3  6  1  0  0  0  0
 36 39  1  0  0  0  0
 36 40  1  0  0  0  0
 36 41  1  0  0  0  0
 11 14  1  0  0  0  0
 11 15  1  0  0  0  0
 11 16  1  0  0  0  0
 43 45  1  0  0  0  0
 43 46  1  0  0  0  0
 43 47  1  0  0  0  0
 22 30  1  0  0  0  0
 22 31  1  0  0  0  0
 21 28  1  0  0  0  0
 21 29  1  0  0  0  0
 33 38  1  0  0  0  0
  8 13  1  0  0  0  0
 18 27  1  0  0  0  0
 42 44  1  0  0  0  0
  7 12  1  0  0  0  0
 32 37  1  0  0  0  0
 17 26  1  0  0  0  0
M  CHG  1  24  -1
M  END
$$$$

  -OEChem-05262214473D

 47 46  0     1  0  0  0  0  0999 V2000
    0.5093   -4.7265    3.0306 C   0  0  0  0  0  0  0  0  0  0  0  0
    1.2735   -4.4402    3.9448 O   0  0  0  0  0  0  0  0  0  0  0  0
   -0.4465   -5.8608    3.1982 C   0  0  0  0  0  0  0  0  0  0  0  0
   -0.0219   -6.8213    2.8645 H   0  0  0  0  0  0  0  0  0  0  0  0
   -0.7314   -6.0185    4.2509 H   0  0  0  0  0  0  0  0  0  0  0  0
   -1.3983   -5.7596    2.6527 H   0  0  0  0  0  0  0  0  0  0  0  0
    0.4252   -4.0886    1.8040 N   0  0  0  0  0  0  0  0  0  0  0  0
    1.2532   -2.9707    1.4349 C   0  0  2  0  0  0  0  0  0  0  0  0
    0.3395   -1.8293    1.0083 C   0  0  0  0  0  0  0  0  0  0  0  0
   -0.8136   -2.0027    0.6194 O   0  0  0  0  0  0  0  0  0  0  0  0
    2.2176   -3.3411    0.3189 C   0  0  0  0  0  0  0  0  0  0  0  0
   -0.2574   -4.4279    1.1287 H   0  0  0  0  0  0  0  0  0  0  0  0
    1.8087   -2.6785    2.3327 H   0  0  0  0  0  0  0  0  0  0  0  0
    1.6793   -3.6366   -0.5890 H   0  0  0  0  0  0  0  0  0  0  0  0
    2.8662   -2.4980    0.0589 H   0  0  0  0  0  0  0  0  0  0  0  0
    2.8538   -4.1816    0.6166 H   0  0  0  0  0  0  0  0  0  0  0  0
    0.9758   -0.5952    1.0708 N   0  0  0  0  0  0  0  0  0  0  0  0
    0.3258    0.6374    0.7059 C   0  0  2  0  0  0  0  0  0  0  0  0
    0.2446    0.6799   -0.8164 C   0  0  0  0  0  0  0  0  0  0  0  0
   -0.2949    1.5963   -1.4330 O   0  0  0  0  0  0  0  0  0  0  0  0
    1.0806    1.8629    1.2346 C   0  0  0  0  0  0  0  0  0  0  0  0
    1.0636    1.9781    2.7583 C   0  0  0  0  0  0  0  0  0  0  0  0
    1.8207    3.1691    3.3550 C   0  0  0  0  0  0  0  0  0  0  0  0
    2.4868    3.8370    2.5125 O   0  5  0  0  0  0  0  0  0  0  0  0
    1.6843    3.3545    4.5957 O   0  0  0  0  0  0  0  0  0  0  0  0
    1.9288   -0.5463    1.4242 H   0  0  0  0  0  0  0  0  0  0  0  0
   -0.6906    0.5885    1.1115 H   0  0  0  0  0  0  0  0  0  0  0  0
    0.6653    2.7781    0.7947 H   0  0  0  0  0  0  0  0  0  0  0  0
    2.1263    1.8162    0.9021 H   0  0  0  0  0  0  0  0  0  0  0  0
    0.0288    1.9926    3.1210 H   0  0  0  0  0  0  0  0  0  0  0  0
    1.5284    1.0771    3.1784 H   0  0  0  0  0  0  0  0  0  0  0  0
    0.8039   -0.4483   -1.4003 N   0  0  0  0  0  0  0  0  0  0  0  0
    0.8386   -0.6551   -2.8295 C   0  0  2  0  0  0  0  0  0  0  0  0
    1.0898   -2.1355   -3.0845 C   0  0  0  0  0  0  0  0  0  0  0  0
    1.6153   -2.8787   -2.2583 O   0  0  0  0  0  0  0  0  0  0  0  0
    1.9114    0.1993   -3.4865 C   0  0  0  0  0  0  0  0  0  0  0  0
    1.2421   -1.1498   -0.8108 H   0  0  0  0  0  0  0  0  0  0  0  0
   -0.1502   -0.3806   -3.2129 H   0  0  0  0  0  0  0  0  0  0  0  0
    2.9091   -0.0614   -3.1148 H   0  0  0  0  0  0  0  0  0  0  0  0
    1.9174    0.0628   -4.5729 H   0  0  0  0  0  0  0  0  0  0  0  0
    1.7460    1.2617   -3.2772 H   0  0  0  0  0  0  0  0  0  0  0  0
    0.6976   -2.5194   -4.3592 N   0  0  0  0  0  0  0  0  0  0  0  0
    0.8442   -3.8713   -4.8460 C   0  0  0  0  0  0  0  0  0  0  0  0
    0.2534   -1.8410   -4.9709 H   0  0  0  0  0  0  0  0  0  0  0  0
    1.8062   -3.9705   -5.3701 H   0  0  0  0  0  0  0  0  0  0  0  0
    0.8149   -4.5714   -3.9980 H   0  0  0  0  0  0  0  0  0  0  0  0
    0.0229   -4.1019   -5.5404 H   0  0  0  0  0  0  0  0  0  0  0  0
  1  3  1  0  0  0  0
  1  7  1  0  0  0  0
  1  2  2  0  0  0  0
 33 34  1  0  0  0  0
 34 42  1  0  0  0  0
 34 35  2  0  0  0  0
  8  9  1  0  0  0  0
  9 17  1  0  0  0  0
  9 10  2  0  0  0  0
 18 19  1  0  0  0  0
 19 32  1  0  0  0  0
 19 20  2  0  0  0  0
 22 23  1  0  0  0  0
 23 24  1  0  0  0  0
 23 25  2  0  0  0  0
 33 36  1  0  0  0  0
  8 11  1  0  0  0  0
 42 43  1  0  0  0  0
 21 22  1  0  0  0  0
 18 21  1  0  0  0  0
 32 33  1  0  0  0  0
  7  8  1  0  0  0  0
 17 18  1  0  0  0  0
  3  4  1  0  0  0  0
  3  5  1  0  0  0  0
  3  6  1  0  0  0  0
 36 39  1  0  0  0  0
 36 40  1  0  0  0  0
 36 41  1  0  0  0  0
 11 14  1  0  0  0  0
 11 15  1  0  0  0  0
 11 16  1  0  0  0  0
 43 45  1  0  0  0  0
 43 46  1  0  0  0  0
 43 47  1  0  0  0  0
 22 30  1  0  0  0  0
 22 31  1  0  0  0  0
 21 28  1  0  0  0  0
 21 29  1  0  0  0  0
 33 38  1  0  0  0  0
  8 13  1  0  0  0  0
 18 27  1  0  0  0  0
 42 44  1  0  0  0  0
  7 12  1  0  0  0  0
 32 37  1  0  0  0  0
 17 26  1  0  0  0  0
M  CHG  1  24  -1
M  END
$$$$

  -OEChem-05262214473D

 47 46  0     1  0  0  0  0  0999 V2000
    0.5093   -4.7265    3.0306 C   0  0  0  0  0  0  0  0  0  0  0  0
    1.2735   -4.4402    3.9448 O   0  0  0  0  0  0  0  0  0  0  0  0
   -0.4465   -5.8608    3.1982 C   0  0  0  0  0  0  0  0  0  0  0  0
   -0.0219   -6.8213    2.8645 H   0  0  0  0  0  0  0  0  0  0  0  0
   -0.7314   -6.0185    4.2509 H   0  0  0  0  0  0  0  0  0  0  0  0
   -1.3983   -5.7596    2.6527 H   0  0  0  0  0  0  0  0  0  0  0  0
    0.4252   -4.0886    1.8040 N   0  0  0  0  0  0  0  0  0  0  0  0
    1.2532   -2.9707    1.4349 C   0  0  2  0  0  0  0  0  0  0  0  0
    0.3395   -1.8293    1.0083 C   0  0  0  0  0  0  0  0  0  0  0  0
   -0.8136   -2.0027    0.6194 O   0  0  0  0  0  0  0  0  0  0  0  0
    2.2176   -3.3411    0.3189 C   0  0  0  0  0  0  0  0  0  0  0  0
   -0.2574   -4.4279    1.1287 H   0  0  0  0  0  0  0  0  0  0  0  0
    1.8087   -2.6785    2.3327 H   0  0  0  0  0  0  0  0  0  0  0  0
    1.6793   -3.6366   -0.5890 H   0  0  0  0  0  0  0  0  0  0  0  0
    2.8662   -2.4980    0.0589 H   0  0  0  0  0  0  0  0  0  0  0  0
    2.8538   -4.1816    0.6166 H   0  0  0  0  0  0  0  0  0  0  0  0
    0.9758   -0.5952    1.0708 N   0  0  0  0  0  0  0  0  0  0  0  0
    0.3258    0.6374    0.7059 C   0  0  2  0  0  0  0  0  0  0  0  0
    0.2446    0.6799   -0.8164 C   0  0  0  0  0  0  0  0  0  0  0  0
   -0.0454    1.6966   -1.4435 O   0  0  0  0  0  0  0  0  0  0  0  0
    1.0806    1.8629    1.2346 C   0  0  0  0  0  0  0  0  0  0  0  0
    1.0636    1.9781    2.7583 C   0  0  0  0  0  0  0  0  0  0  0  0
    1.8207    3.1691    3.3550 C   0  0  0  0  0  0  0  0  0  0  0  0
    2.4868    3.8370    2.5125 O   0  5  0  0  0  0  0  0  0  0  0  0
    1.6843    3.3545    4.5957 O   0  0  0  0  0  0  0  0  0  0  0  0
    1.9288   -0.5463    1.4242 H   0  0  0  0  0  0  0  0  0  0  0  0
   -0.6906    0.5885    1.1115 H   0  0  0  0  0  0  0  0  0  0  0  0
    0.6653    2.7781    0.7947 H   0  0  0  0  0  0  0  0  0  0  0  0
    2.1263    1.8162    0.9021 H   0  0  0  0  0  0  0  0  0  0  0  0
    0.0288    1.9926    3.1210 H   0  0  0  0  0  0  0  0  0  0  0  0
    1.5284    1.0771    3.1784 H   0  0  0  0  0  0  0  0  0  0  0  0
    0.4883   -0.5619   -1.3866 N   0  0  0  0  0  0  0  0  0  0  0  0
    0.4554   -0.7890   -2.8128 C   0  0  2  0  0  0  0  0  0  0  0  0
    0.3134   -2.2871   -3.0473 C   0  0  0  0  0  0  0  0  0  0  0  0
    0.6365   -3.1302   -2.2132 O   0  0  0  0  0  0  0  0  0  0  0  0
    1.7066   -0.2493   -3.4881 C   0  0  0  0  0  0  0  0  0  0  0  0
    0.7356   -1.3452   -0.7892 H   0  0  0  0  0  0  0  0  0  0  0  0
   -0.4323   -0.2732   -3.1949 H   0  0  0  0  0  0  0  0  0  0  0  0
    2.6064   -0.7541   -3.1180 H   0  0  0  0  0  0  0  0  0  0  0  0
    1.6672   -0.3966   -4.5724 H   0  0  0  0  0  0  0  0  0  0  0  0
    1.8230    0.8224   -3.2935 H   0  0  0  0  0  0  0  0  0  0  0  0
   -0.1761   -2.5730   -4.3141 N   0  0  0  0  0  0  0  0  0  0  0  0
   -0.3881   -3.9229   -4.7817 C   0  0  0  0  0  0  0  0  0  0  0  0
   -0.4355   -1.8107   -4.9333 H   0  0  0  0  0  0  0  0  0  0  0  0
    0.5109   -4.2741   -5.3096 H   0  0  0  0  0  0  0  0  0  0  0  0
   -0.5896   -4.5807   -3.9234 H   0  0  0  0  0  0  0  0  0  0  0  0
   -1.2473   -3.9424   -5.4683 H   0  0  0  0  0  0  0  0  0  0  0  0
  1  3  1  0  0  0  0
  1  7  1  0  0  0  0
  1  2  2  0  0  0  0
 33 34  1  0  0  0  0
 34 42  1  0  0  0  0
 34 35  2  0  0  0  0
  8  9  1  0  0  0  0
  9 17  1  0  0  0  0
  9 10  2  0  0  0  0
 18 19  1  0  0  0  0
 19 32  1  0  0  0  0
 19 20  2  0  0  0  0
 22 23  1  0  0  0  0
 23 24  1  0  0  0  0
 23 25  2  0  0  0  0
 33 36  1  0  0  0  0
  8 11  1  0  0  0  0
 42 43  1  0  0  0  0
 21 22  1  0  0  0  0
 18 21  1  0  0  0  0
 32 33  1  0  0  0  0
  7  8  1  0  0  0  0
 17 18  1  0  0  0  0
  3  4  1  0  0  0  0
  3  5  1  0  0  0  0
  3  6  1  0  0  0  0
 36 39  1  0  0  0  0
 36 40  1  0  0  0  0
 36 41  1  0  0  0  0
 11 14  1  0  0  0  0
 11 15  1  0  0  0  0
 11 16  1  0  0  0  0
 43 45  1  0  0  0  0
 43 46  1  0  0  0  0
 43 47  1  0  0  0  0
 22 30  1  0  0  0  0
 22 31  1  0  0  0  0
 21 28  1  0  0  0  0
 21 29  1  0  0  0  0
 33 38  1  0  0  0  0
  8 13  1  0  0  0  0
 18 27  1  0  0  0  0
 42 44  1  0  0  0  0
  7 12  1  0  0  0  0
 32 37  1  0  0  0  0
 17 26  1  0  0  0  0
M  CHG  1  24  -1
M  END
$$$$

  -OEChem-05262214473D

 47 46  0     1  0  0  0  0  0999 V2000
    0.5093   -4.7265    3.0306 C   0  0  0  0  0  0  0  0  0  0  0  0
    1.2735   -4.4402    3.9448 O   0  0  0  0  0  0  0  0  0  0  0  0
   -0.4465   -5.8608    3.1982 C   0  0  0  0  0  0  0  0  0  0  0  0
   -0.0219   -6.8213    2.8645 H   0  0  0  0  0  0  0  0  0  0  0  0
   -0.7314   -6.0185    4.2509 H   0  0  0  0  0  0  0  0  0  0  0  0
   -1.3983   -5.7596    2.6527 H   0  0  0  0  0  0  0  0  0  0  0  0
    0.4252   -4.0886    1.8040 N   0  0  0  0  0  0  0  0  0  0  0  0
    1.2532   -2.9707    1.4349 C   0  0  2  0  0  0  0  0  0  0  0  0
    0.3395   -1.8293    1.0083 C   0  0  0  0  0  0  0  0  0  0  0  0
   -0.8136   -2.0027    0.6194 O   0  0  0  0  0  0  0  0  0  0  0  0
    2.2176   -3.3411    0.3189 C   0  0  0  0  0  0  0  0  0  0  0  0
   -0.2574   -4.4279    1.1287 H   0  0  0  0  0  0  0  0  0  0  0  0
    1.8087   -2.6785    2.3327 H   0  0  0  0  0  0  0  0  0  0  0  0
    1.6793   -3.6366   -0.5890 H   0  0  0  0  0  0  0  0  0  0  0  0
    2.8662   -2.4980    0.0589 H   0  0  0  0  0  0  0  0  0  0  0  0
    2.8538   -4.1816    0.6166 H   0  0  0  0  0  0  0  0  0  0  0  0
    0.9758   -0.5952    1.0708 N   0  0  0  0  0  0  0  0  0  0  0  0
    0.3258    0.6374    0.7059 C   0  0  2  0  0  0  0  0  0  0  0  0
    0.2446    0.6799   -0.8164 C   0  0  0  0  0  0  0  0  0  0  0  0
    0.2214    1.7289   -1.4568 O   0  0  0  0  0  0  0  0  0  0  0  0
    1.0806    1.8629    1.2346 C   0  0  0  0  0  0  0  0  0  0  0  0
    1.0636    1.9781    2.7583 C   0  0  0  0  0  0  0  0  0  0  0  0
    1.8207    3.1691    3.3550 C   0  0  0  0  0  0  0  0  0  0  0  0
    2.4868    3.8370    2.5125 O   0  5  0  0  0  0  0  0  0  0  0  0
    1.6843    3.3545    4.5957 O   0  0  0  0  0  0  0  0  0  0  0  0
    1.9288   -0.5463    1.4242 H   0  0  0  0  0  0  0  0  0  0  0  0
   -0.6906    0.5885    1.1115 H   0  0  0  0  0  0  0  0  0  0  0  0
    0.6653    2.7781    0.7947 H   0  0  0  0  0  0  0  0  0  0  0  0
    2.1263    1.8162    0.9021 H   0  0  0  0  0  0  0  0  0  0  0  0
    0.0288    1.9926    3.1210 H   0  0  0  0  0  0  0  0  0  0  0  0
    1.5284    1.0771    3.1784 H   0  0  0  0  0  0  0  0  0  0  0  0
    0.1541   -0.5898   -1.3696 N   0  0  0  0  0  0  0  0  0  0  0  0
    0.0508   -0.8190   -2.7921 C   0  0  2  0  0  0  0  0  0  0  0  0
   -0.4754   -2.2324   -3.0038 C   0  0  0  0  0  0  0  0  0  0  0  0
   -0.3735   -3.1196   -2.1590 O   0  0  0  0  0  0  0  0  0  0  0  0
    1.3928   -0.6297   -3.4820 C   0  0  0  0  0  0  0  0  0  0  0  0
    0.1961   -1.4028   -0.7621 H   0  0  0  0  0  0  0  0  0  0  0  0
   -0.6770   -0.0963   -3.1769 H   0  0  0  0  0  0  0  0  0  0  0  0
    2.1350   -1.3451   -3.1094 H   0  0  0  0  0  0  0  0  0  0  0  0
    1.3070   -0.7757   -4.5638 H   0  0  0  0  0  0  0  0  0  0  0  0
    1.7839    0.3779   -3.3039 H   0  0  0  0  0  0  0  0  0  0  0  0
   -1.0336   -2.3983   -4.2636 N   0  0  0  0  0  0  0  0  0  0  0  0
   -1.5913   -3.6536   -4.7101 C   0  0  0  0  0  0  0  0  0  0  0  0
   -1.0929   -1.6029   -4.8925 H   0  0  0  0  0  0  0  0  0  0  0  0
   -0.8183   -4.2318   -5.2375 H   0  0  0  0  0  0  0  0  0  0  0  0
   -1.9481   -4.2259   -3.8411 H   0  0  0  0  0  0  0  0  0  0  0  0
   -2.4325   -3.4591   -5.3916 H   0  0  0  0  0  0  0  0  0  0  0  0
  1  3  1  0  0  0  0
  1  7  1  0  0  0  0
  1  2  2  0  0  0  0
 33 34  1  0  0  0  0
 34 42  1  0  0  0  0
 34 35  2  0  0  0  0
  8  9  1  0  0  0  0
  9 17  1  0  0  0  0
  9 10  2  0  0  0  0
 18 19  1  0  0  0  0
 19 32  1  0  0  0  0
 19 20  2  0  0  0  0
 22 23  1  0  0  0  0
 23 24  1  0  0  0  0
 23 25  2  0  0  0  0
 33 36  1  0  0  0  0
  8 11  1  0  0  0  0
 42 43  1  0  0  0  0
 21 22  1  0  0  0  0
 18 21  1  0  0  0  0
 32 33  1  0  0  0  0
  7  8  1  0  0  0  0
 17 18  1  0  0  0  0
  3  4  1  0  0  0  0
  3  5  1  0  0  0  0
  3  6  1  0  0  0  0
 36 39  1  0  0  0  0
 36 40  1  0  0  0  0
 36 41  1  0  0  0  0
 11 14  1  0  0  0  0
 11 15  1  0  0  0  0
 11 16  1  0  0  0  0
 43 45  1  0  0  0  0
 43 46  1  0  0  0  0
 43 47  1  0  0  0  0
 22 30  1  0  0  0  0
 22 31  1  0  0  0  0
 21 28  1  0  0  0  0
 21 29  1  0  0  0  0
 33 38  1  0  0  0  0
  8 13  1  0  0  0  0
 18 27  1  0  0  0  0
 42 44  1  0  0  0  0
  7 12  1  0  0  0  0
 32 37  1  0  0  0  0
 17 26  1  0  0  0  0
M  CHG  1  24  -1
M  END
$$$$

  -OEChem-05262214473D

 47 46  0     1  0  0  0  0  0999 V2000
    0.5093   -4.7265    3.0306 C   0  0  0  0  0  0  0  0  0  0  0  0
    1.2735   -4.4402    3.9448 O   0  0  0  0  0  0  0  0  0  0  0  0
   -0.4465   -5.8608    3.1982 C   0  0  0  0  0  0  0  0  0  0  0  0
   -0.0219   -6.8213    2.8645 H   0  0  0  0  0  0  0  0  0  0  0  0
   -0.7314   -6.0185    4.2509 H   0  0  0  0  0  0  0  0  0  0  0  0
   -1.3983   -5.7596    2.6527 H   0  0  0  0  0  0  0  0  0  0  0  0
    0.4252   -4.0886    1.8040 N   0  0  0  0  0  0  0  0  0  0  0  0
    1.2532   -2.9707    1.4349 C   0  0  2  0  0  0  0  0  0  0  0  0
    0.3395   -1.8293    1.0083 C   0  0  0  0  0  0  0  0  0  0  0  0
   -0.8136   -2.0027    0.6194 O   0  0  0  0  0  0  0  0  0  0  0  0
    2.2176   -3.3411    0.3189 C   0  0  0  0  0  0  0  0  0  0  0  0
   -0.2574   -4.4279    1.1287 H   0  0  0  0  0  0  0  0  0  0  0  0
    1.8087   -2.6785    2.3327 H   0  0  0  0  0  0  0  0  0  0  0  0
    1.6793   -3.6366   -0.5890 H   0  0  0  0  0  0  0  0  0  0  0  0
    2.8662   -2.4980    0.0589 H   0  0  0  0  0  0  0  0  0  0  0  0
    2.8538   -4.1816    0.6166 H   0  0  0  0  0  0  0  0  0  0  0  0
    0.9758   -0.5952    1.0708 N   0  0  0  0  0  0  0  0  0  0  0  0
    0.3258    0.6374    0.7059 C   0  0  2  0  0  0  0  0  0  0  0  0
    0.2446    0.6799   -0.8164 C   0  0  0  0  0  0  0  0  0  0  0  0
    0.4874    1.6910   -1.4721 O   0  0  0  0  0  0  0  0  0  0  0  0
    1.0806    1.8629    1.2346 C   0  0  0  0  0  0  0  0  0  0  0  0
    1.0636    1.9781    2.7583 C   0  0  0  0  0  0  0  0  0  0  0  0
    1.8207    3.1691    3.3550 C   0  0  0  0  0  0  0  0  0  0  0  0
    2.4868    3.8370    2.5125 O   0  5  0  0  0  0  0  0  0  0  0  0
    1.6843    3.3545    4.5957 O   0  0  0  0  0  0  0  0  0  0  0  0
    1.9288   -0.5463    1.4242 H   0  0  0  0  0  0  0  0  0  0  0  0
   -0.6906    0.5885    1.1115 H   0  0  0  0  0  0  0  0  0  0  0  0
    0.6653    2.7781    0.7947 H   0  0  0  0  0  0  0  0  0  0  0  0
    2.1263    1.8162    0.9021 H   0  0  0  0  0  0  0  0  0  0  0  0
    0.0288    1.9926    3.1210 H   0  0  0  0  0  0  0  0  0  0  0  0
    1.5284    1.0771    3.1784 H   0  0  0  0  0  0  0  0  0  0  0  0
   -0.1758   -0.5303   -1.3504 N   0  0  0  0  0  0  0  0  0  0  0  0
   -0.3476   -0.7432   -2.7688 C   0  0  2  0  0  0  0  0  0  0  0  0
   -1.2229   -1.9753   -2.9568 C   0  0  0  0  0  0  0  0  0  0  0  0
   -1.3460   -2.8478   -2.0996 O   0  0  0  0  0  0  0  0  0  0  0  0
    0.9915   -0.9159   -3.4686 C   0  0  0  0  0  0  0  0  0  0  0  0
   -0.3397   -1.3186   -0.7312 H   0  0  0  0  0  0  0  0  0  0  0  0
   -0.8674    0.1380   -3.1602 H   0  0  0  0  0  0  0  0  0  0  0  0
    1.5270   -1.7940   -3.0895 H   0  0  0  0  0  0  0  0  0  0  0  0
    0.8611   -1.0487   -4.5476 H   0  0  0  0  0  0  0  0  0  0  0  0
    1.6311   -0.0414   -3.3074 H   0  0  0  0  0  0  0  0  0  0  0  0
   -1.8164   -2.0074   -4.2109 N   0  0  0  0  0  0  0  0  0  0  0  0
   -2.6833   -3.0815   -4.6359 C   0  0  0  0  0  0  0  0  0  0  0  0
   -1.6739   -1.2318   -4.8512 H   0  0  0  0  0  0  0  0  0  0  0  0
   -2.0908   -3.8466   -5.1590 H   0  0  0  0  0  0  0  0  0  0  0  0
   -3.1680   -3.5310   -3.7567 H   0  0  0  0  0  0  0  0  0  0  0  0
   -3.4519   -2.6851   -5.3157 H   0  0  0  0  0  0  0  0  0  0  0  0
  1  3  1  0  0  0  0
  1  7  1  0  0  0  0
  1  2  2  0  0  0  0
 33 34  1  0  0  0  0
 34 42  1  0  0  0  0
 34 35  2  0  0  0  0
  8  9  1  0  0  0  0
  9 17  1  0  0  0  0
  9 10  2  0  0  0  0
 18 19  1  0  0  0  0
 19 32  1  0  0  0  0
 19 20  2  0  0  0  0
 22 23  1  0  0  0  0
 23 24  1  0  0  0  0
 23 25  2  0  0  0  0
 33 36  1  0  0  0  0
  8 11  1  0  0  0  0
 42 43  1  0  0  0  0
 21 22  1  0  0  0  0
 18 21  1  0  0  0  0
 32 33  1  0  0  0  0
  7  8  1  0  0  0  0
 17 18  1  0  0  0  0
  3  4  1  0  0  0  0
  3  5  1  0  0  0  0
  3  6  1  0  0  0  0
 36 39  1  0  0  0  0
 36 40  1  0  0  0  0
 36 41  1  0  0  0  0
 11 14  1  0  0  0  0
 11 15  1  0  0  0  0
 11 16  1  0  0  0  0
 43 45  1  0  0  0  0
 43 46  1  0  0  0  0
 43 47  1  0  0  0  0
 22 30  1  0  0  0  0
 22 31  1  0  0  0  0
 21 28  1  0  0  0  0
 21 29  1  0  0  0  0
 33 38  1  0  0  0  0
  8 13  1  0  0  0  0
 18 27  1  0  0  0  0
 42 44  1  0  0  0  0
  7 12  1  0  0  0  0
 32 37  1  0  0  0  0
 17 26  1  0  0  0  0
M  CHG  1  24  -1
M  END
$$$$

  -OEChem-05262214473D

 47 46  0     1  0  0  0  0  0999 V2000
    0.5093   -4.7265    3.0306 C   0  0  0  0  0  0  0  0  0  0  0  0
    1.2735   -4.4402    3.9448 O   0  0  0  0  0  0  0  0  0  0  0  0
   -0.4465   -5.8608    3.1982 C   0  0  0  0  0  0  0  0  0  0  0  0
   -0.0219   -6.8213    2.8645 H   0  0  0  0  0  0  0  0  0  0  0  0
   -0.7314   -6.0185    4.2509 H   0  0  0  0  0  0  0  0  0  0  0  0
   -1.3983   -5.7596    2.6527 H   0  0  0  0  0  0  0  0  0  0  0  0
    0.4252   -4.0886    1.8040 N   0  0  0  0  0  0  0  0  0  0  0  0
    1.2532   -2.9707    1.4349 C   0  0  2  0  0  0  0  0  0  0  0  0
    0.3395   -1.8293    1.0083 C   0  0  0  0  0  0  0  0  0  0  0  0
   -0.8136   -2.0027    0.6194 O   0  0  0  0  0  0  0  0  0  0  0  0
    2.2176   -3.3411    0.3189 C   0  0  0  0  0  0  0  0  0  0  0  0
   -0.2574   -4.4279    1.1287 H   0  0  0  0  0  0  0  0  0  0  0  0
    1.8087   -2.6785    2.3327 H   0  0  0  0  0  0  0  0  0  0  0  0
    1.6793   -3.6366   -0.5890 H   0  0  0  0  0  0  0  0  0  0  0  0
    2.8662   -2.4980    0.0589 H   0  0  0  0  0  0  0  0  0  0  0  0
    2.8538   -4.1816    0.6166 H   0  0  0  0  0  0  0  0  0  0  0  0
    0.9758   -0.5952    1.0708 N   0  0  0  0  0  0  0  0  0  0  0  0
    0.3258    0.6374    0.7059 C   0  0  2  0  0  0  0  0  0  0  0  0
    0.2446    0.6799   -0.8164 C   0  0  0  0  0  0  0  0  0  0  0  0
    0.7344    1.5854   -1.4882 O   0  0  0  0  0  0  0  0  0  0  0  0
    1.0806    1.8629    1.2346 C   0  0  0  0  0  0  0  0  0  0  0  0
    1.0636    1.9781    2.7583 C   0  0  0  0  0  0  0  0  0  0  0  0
    1.8207    3.1691    3.3550 C   0  0  0  0  0  0  0  0  0  0  0  0
    2.4868    3.8370    2.5125 O   0  5  0  0  0  0  0  0  0  0  0  0
    1.6843    3.3545    4.5957 O   0  0  0  0  0  0  0  0  0  0  0  0
    1.9288   -0.5463    1.4242 H   0  0  0  0  0  0  0  0  0  0  0  0
   -0.6906    0.5885    1.1115 H   0  0  0  0  0  0  0  0  0  0  0  0
    0.6653    2.7781    0.7947 H   0  0  0  0  0  0  0  0  0  0  0  0
    2.1263    1.8162    0.9021 H   0  0  0  0  0  0  0  0  0  0  0  0
    0.0288    1.9926    3.1210 H   0  0  0  0  0  0  0  0  0  0  0  0
    1.5284    1.0771    3.1784 H   0  0  0  0  0  0  0  0  0  0  0  0
   -0.4789   -0.3873   -1.3302 N   0  0  0  0  0  0  0  0  0  0  0  0
   -0.7127   -0.5668   -2.7444 C   0  0  2  0  0  0  0  0  0  0  0  0
   -1.8782   -1.5331   -2.9095 C   0  0  0  0  0  0  0  0  0  0  0  0
   -2.2148   -2.3331   -2.0390 O   0  0  0  0  0  0  0  0  0  0  0  0
    0.5300   -1.0886   -3.4488 C   0  0  0  0  0  0  0  0  0  0  0  0
   -0.8353   -1.0985   -0.6986 H   0  0  0  0  0  0  0  0  0  0  0  0
   -0.9908    0.4138   -3.1459 H   0  0  0  0  0  0  0  0  0  0  0  0
    0.8239   -2.0703   -3.0598 H   0  0  0  0  0  0  0  0  0  0  0  0
    0.3600   -1.1970   -4.5251 H   0  0  0  0  0  0  0  0  0  0  0  0
    1.3752   -0.4071   -3.3040 H   0  0  0  0  0  0  0  0  0  0  0  0
   -2.4711   -1.4269   -4.1598 N   0  0  0  0  0  0  0  0  0  0  0  0
   -3.5899   -2.2458   -4.5643 C   0  0  0  0  0  0  0  0  0  0  0  0
   -2.1389   -0.7227   -4.8122 H   0  0  0  0  0  0  0  0  0  0  0  0
   -3.2198   -3.1447   -5.0792 H   0  0  0  0  0  0  0  0  0  0  0  0
   -4.1663   -2.5435   -3.6759 H   0  0  0  0  0  0  0  0  0  0  0  0
   -4.2361   -1.6730   -5.2457 H   0  0  0  0  0  0  0  0  0  0  0  0
  1  3  1  0  0  0  0
  1  7  1  0  0  0  0
  1  2  2  0  0  0  0
 33 34  1  0  0  0  0
 34 42  1  0  0  0  0
 34 35  2  0  0  0  0
  8  9  1  0  0  0  0
  9 17  1  0  0  0  0
  9 10  2  0  0  0  0
 18 19  1  0  0  0  0
 19 32  1  0  0  0  0
 19 20  2  0  0  0  0
 22 23  1  0  0  0  0
 23 24  1  0  0  0  0
 23 25  2  0  0  0  0
 33 36  1  0  0  0  0
  8 11  1  0  0  0  0
 42 43  1  0  0  0  0
 21 22  1  0  0  0  0
 18 21  1  0  0  0  0
 32 33  1  0  0  0  0
  7  8  1  0  0  0  0
 17 18  1  0  0  0  0
  3  4  1  0  0  0  0
  3  5  1  0  0  0  0
  3  6  1  0  0  0  0
 36 39  1  0  0  0  0
 36 40  1  0  0  0  0
 36 41  1  0  0  0  0
 11 14  1  0  0  0  0
 11 15  1  0  0  0  0
 11 16  1  0  0  0  0
 43 45  1  0  0  0  0
 43 46  1  0  0  0  0
 43 47  1  0  0  0  0
 22 30  1  0  0  0  0
 22 31  1  0  0  0  0
 21 28  1  0  0  0  0
 21 29  1  0  0  0  0
 33 38  1  0  0  0  0
  8 13  1  0  0  0  0
 18 27  1  0  0  0  0
 42 44  1  0  0  0  0
  7 12  1  0  0  0  0
 32 37  1  0  0  0  0
 17 26  1  0  0  0  0
M  CHG  1  24  -1
M  END
$$$$

  -OEChem-05262214473D

 47 46  0     1  0  0  0  0  0999 V2000
    0.5093   -4.7265    3.0306 C   0  0  0  0  0  0  0  0  0  0  0  0
    1.2735   -4.4402    3.9448 O   0  0  0  0  0  0  0  0  0  0  0  0
   -0.4465   -5.8608    3.1982 C   0  0  0  0  0  0  0  0  0  0  0  0
   -0.0219   -6.8213    2.8645 H   0  0  0  0  0  0  0  0  0  0  0  0
   -0.7314   -6.0185    4.2509 H   0  0  0  0  0  0  0  0  0  0  0  0
   -1.3983   -5.7596    2.6527 H   0  0  0  0  0  0  0  0  0  0  0  0
    0.4252   -4.0886    1.8040 N   0  0  0  0  0  0  0  0  0  0  0  0
    1.2532   -2.9707    1.4349 C   0  0  2  0  0  0  0  0  0  0  0  0
    0.3395   -1.8293    1.0083 C   0  0  0  0  0  0  0  0  0  0  0  0
   -0.8136   -2.0027    0.6194 O   0  0  0  0  0  0  0  0  0  0  0  0
    2.2176   -3.3411    0.3189 C   0  0  0  0  0  0  0  0  0  0  0  0
   -0.2574   -4.4279    1.1287 H   0  0  0  0  0  0  0  0  0  0  0  0
    1.8087   -2.6785    2.3327 H   0  0  0  0  0  0  0  0  0  0  0  0
    1.6793   -3.6366   -0.5890 H   0  0  0  0  0  0  0  0  0  0  0  0
    2.8662   -2.4980    0.0589 H   0  0  0  0  0  0  0  0  0  0  0  0
    2.8538   -4.1816    0.6166 H   0  0  0  0  0  0  0  0  0  0  0  0
    0.9758   -0.5952    1.0708 N   0  0  0  0  0  0  0  0  0  0  0  0
    0.3258    0.6374    0.7059 C   0  0  2  0  0  0  0  0  0  0  0  0
    0.2446    0.6799   -0.8164 C   0  0  0  0  0  0  0  0  0  0  0  0
    0.9456    1.4194   -1.5041 O   0  0  0  0  0  0  0  0  0  0  0  0
    1.0806    1.8629    1.2346 C   0  0  0  0  0  0  0  0  0  0  0  0
    1.0636    1.9781    2.7583 C   0  0  0  0  0  0  0  0  0  0  0  0
    1.8207    3.1691    3.3550 C   0  0  0  0  0  0  0  0  0  0  0  0
    2.4868    3.8370    2.5125 O   0  5  0  0  0  0  0  0  0  0  0  0
    1.6843    3.3545    4.5957 O   0  0  0  0  0  0  0  0  0  0  0  0
    1.9288   -0.5463    1.4242 H   0  0  0  0  0  0  0  0  0  0  0  0
   -0.6906    0.5885    1.1115 H   0  0  0  0  0  0  0  0  0  0  0  0
    0.6653    2.7781    0.7947 H   0  0  0  0  0  0  0  0  0  0  0  0
    2.1263    1.8162    0.9021 H   0  0  0  0  0  0  0  0  0  0  0  0
    0.0288    1.9926    3.1210 H   0  0  0  0  0  0  0  0  0  0  0  0
    1.5284    1.0771    3.1784 H   0  0  0  0  0  0  0  0  0  0  0  0
   -0.7346   -0.1706   -1.3105 N   0  0  0  0  0  0  0  0  0  0  0  0
   -1.0195   -0.3017   -2.7206 C   0  0  2  0  0  0  0  0  0  0  0  0
   -2.3966   -0.9360   -2.8652 C   0  0  0  0  0  0  0  0  0  0  0  0
   -2.9205   -1.6106   -1.9812 O   0  0  0  0  0  0  0  0  0  0  0  0
    0.0398   -1.1359   -3.4240 C   0  0  0  0  0  0  0  0  0  0  0  0
   -1.2569   -0.7574   -0.6666 H   0  0  0  0  0  0  0  0  0  0  0  0
   -1.0385    0.7122   -3.1350 H   0  0  0  0  0  0  0  0  0  0  0  0
    0.0736   -2.1551   -3.0222 H   0  0  0  0  0  0  0  0  0  0  0  0
   -0.1622   -1.2104   -4.4976 H   0  0  0  0  0  0  0  0  0  0  0  0
    1.0336   -0.6941   -3.2938 H   0  0  0  0  0  0  0  0  0  0  0  0
   -2.9532   -0.6962   -4.1137 N   0  0  0  0  0  0  0  0  0  0  0  0
   -4.2491   -1.2034   -4.5001 C   0  0  0  0  0  0  0  0  0  0  0  0
   -2.4562   -0.1103   -4.7782 H   0  0  0  0  0  0  0  0  0  0  0  0
   -4.1284   -2.1739   -5.0037 H   0  0  0  0  0  0  0  0  0  0  0  0
   -4.8748   -1.3306   -3.6043 H   0  0  0  0  0  0  0  0  0  0  0  0
   -4.7315   -0.4918   -5.1863 H   0  0  0  0  0  0  0  0  0  0  0  0
  1  3  1  0  0  0  0
  1  7  1  0  0  0  0
  1  2  2  0  0  0  0
 33 34  1  0  0  0  0
 34 42  1  0  0  0  0
 34 35  2  0  0  0  0
  8  9  1  0  0  0  0
  9 17  1  0  0  0  0
  9 10  2  0  0  0  0
 18 19  1  0  0  0  0
 19 32  1  0  0  0  0
 19 20  2  0  0  0  0
 22 23  1  0  0  0  0
 23 24  1  0  0  0  0
 23 25  2  0  0  0  0
 33 36  1  0  0  0  0
  8 11  1  0  0  0  0
 42 43  1  0  0  0  0
 21 22  1  0  0  0  0
 18 21  1  0  0  0  0
 32 33  1  0  0  0  0
  7  8  1  0  0  0  0
 17 18  1  0  0  0  0
  3  4  1  0  0  0  0
  3  5  1  0  0  0  0
  3  6  1  0  0  0  0
 36 39  1  0  0  0  0
 36 40  1  0  0  0  0
 36 41  1  0  0  0  0
 11 14  1  0  0  0  0
 11 15  1  0  0  0  0
 11 16  1  0  0  0  0
 43 45  1  0  0  0  0
 43 46  1  0  0  0  0
 43 47  1  0  0  0  0
 22 30  1  0  0  0  0
 22 31  1  0  0  0  0
 21 28  1  0  0  0  0
 21 29  1  0  0  0  0
 33 38  1  0  0  0  0
  8 13  1  0  0  0  0
 18 27  1  0  0  0  0
 42 44  1  0  0  0  0
  7 12  1  0  0  0  0
 32 37  1  0  0  0  0
 17 26  1  0  0  0  0
M  CHG  1  24  -1
M  END
$$$$

  -OEChem-05262214473D

 47 46  0     1  0  0  0  0  0999 V2000
    0.5093   -4.7265    3.0306 C   0  0  0  0  0  0  0  0  0  0  0  0
    1.2735   -4.4402    3.9448 O   0  0  0  0  0  0  0  0  0  0  0  0
   -0.4465   -5.8608    3.1982 C   0  0  0  0  0  0  0  0  0  0  0  0
   -0.0219   -6.8213    2.8645 H   0  0  0  0  0  0  0  0  0  0  0  0
   -0.7314   -6.0185    4.2509 H   0  0  0  0  0  0  0  0  0  0  0  0
   -1.3983   -5.7596    2.6527 H   0  0  0  0  0  0  0  0  0  0  0  0
    0.4252   -4.0886    1.8040 N   0  0  0  0  0  0  0  0  0  0  0  0
    1.2532   -2.9707    1.4349 C   0  0  2  0  0  0  0  0  0  0  0  0
    0.3395   -1.8293    1.0083 C   0  0  0  0  0  0  0  0  0  0  0  0
   -0.8136   -2.0027    0.6194 O   0  0  0  0  0  0  0  0  0  0  0  0
    2.2176   -3.3411    0.3189 C   0  0  0  0  0  0  0  0  0  0  0  0
   -0.2574   -4.4279    1.1287 H   0  0  0  0  0  0  0  0  0  0  0  0
    1.8087   -2.6785    2.3327 H   0  0  0  0  0  0  0  0  0  0  0  0
    1.6793   -3.6366   -0.5890 H   0  0  0  0  0  0  0  0  0  0  0  0
    2.8662   -2.4980    0.0589 H   0  0  0  0  0  0  0  0  0  0  0  0
    2.8538   -4.1816    0.6166 H   0  0  0  0  0  0  0  0  0  0  0  0
    0.9758   -0.5952    1.0708 N   0  0  0  0  0  0  0  0  0  0  0  0
    0.3258    0.6374    0.7059 C   0  0  2  0  0  0  0  0  0  0  0  0
    0.2446    0.6799   -0.8164 C   0  0  0  0  0  0  0  0  0  0  0  0
    1.1066    1.2043   -1.5187 O   0  0  0  0  0  0  0  0  0  0  0  0
    1.0806    1.8629    1.2346 C   0  0  0  0  0  0  0  0  0  0  0  0
    1.0636    1.9781    2.7583 C   0  0  0  0  0  0  0  0  0  0  0  0
    1.8207    3.1691    3.3550 C   0  0  0  0  0  0  0  0  0  0  0  0
    2.4868    3.8370    2.5125 O   0  5  0  0  0  0  0  0  0  0  0  0
    1.6843    3.3545    4.5957 O   0  0  0  0  0  0  0  0  0  0  0  0
    1.9288   -0.5463    1.4242 H   0  0  0  0  0  0  0  0  0  0  0  0
   -0.6906    0.5885    1.1115 H   0  0  0  0  0  0  0  0  0  0  0  0
    0.6653    2.7781    0.7947 H   0  0  0  0  0  0  0  0  0  0  0  0
    2.1263    1.8162    0.9021 H   0  0  0  0  0  0  0  0  0  0  0  0
    0.0288    1.9926    3.1210 H   0  0  0  0  0  0  0  0  0  0  0  0
    1.5284    1.0771    3.1784 H   0  0  0  0  0  0  0  0  0  0  0  0
   -0.9255    0.1051   -1.2927 N   0  0  0  0  0  0  0  0  0  0  0  0
   -1.2473    0.0340   -2.6991 C   0  0  2  0  0  0  0  0  0  0  0  0
   -2.7427   -0.2248   -2.8269 C   0  0  0  0  0  0  0  0  0  0  0  0
   -3.4151   -0.7297   -1.9302 O   0  0  0  0  0  0  0  0  0  0  0  0
   -0.4458   -1.0545   -3.3958 C   0  0  0  0  0  0  0  0  0  0  0  0
   -1.5757   -0.3185   -0.6374 H   0  0  0  0  0  0  0  0  0  0  0  0
   -1.0075    1.0129   -3.1283 H   0  0  0  0  0  0  0  0  0  0  0  0
   -0.6727   -2.0427   -2.9793 H   0  0  0  0  0  0  0  0  0  0  0  0
   -0.6698   -1.0881   -4.4672 H   0  0  0  0  0  0  0  0  0  0  0  0
    0.6295   -0.8830   -3.2775 H   0  0  0  0  0  0  0  0  0  0  0  0
   -3.2297    0.1347   -4.0758 N   0  0  0  0  0  0  0  0  0  0  0  0
   -4.6161   -0.0253   -4.4476 C   0  0  0  0  0  0  0  0  0  0  0  0
   -2.6043    0.5637   -4.7515 H   0  0  0  0  0  0  0  0  0  0  0  0
   -4.7547   -1.0004   -4.9376 H   0  0  0  0  0  0  0  0  0  0  0  0
   -5.2453    0.0250   -3.5467 H   0  0  0  0  0  0  0  0  0  0  0  0
   -4.9045    0.7779   -5.1416 H   0  0  0  0  0  0  0  0  0  0  0  0
  1  3  1  0  0  0  0
  1  7  1  0  0  0  0
  1  2  2  0  0  0  0
 33 34  1  0  0  0  0
 34 42  1  0  0  0  0
 34 35  2  0  0  0  0
  8  9  1  0  0  0  0
  9 17  1  0  0  0  0
  9 10  2  0  0  0  0
 18 19  1  0  0  0  0
 19 32  1  0  0  0  0
 19 20  2  0  0  0  0
 22 23  1  0  0  0  0
 23 24  1  0  0  0  0
 23 25  2  0  0  0  0
 33 36  1  0  0  0  0
  8 11  1  0  0  0  0
 42 43  1  0  0  0  0
 21 22  1  0  0  0  0
 18 21  1  0  0  0  0
 32 33  1  0  0  0  0
  7  8  1  0  0  0  0
 17 18  1  0  0  0  0
  3  4  1  0  0  0  0
  3  5  1  0  0  0  0
  3  6  1  0  0  0  0
 36 39  1  0  0  0  0
 36 40  1  0  0  0  0
 36 41  1  0  0  0  0
 11 14  1  0  0  0  0
 11 15  1  0  0  0  0
 11 16  1  0  0  0  0
 43 45  1  0  0  0  0
 43 46  1  0  0  0  0
 43 47  1  0  0  0  0
 22 30  1  0  0  0  0
 22 31  1  0  0  0  0
 21 28  1  0  0  0  0
 21 29  1  0  0  0  0
 33 38  1  0  0  0  0
  8 13  1  0  0  0  0
 18 27  1  0  0  0  0
 42 44  1  0  0  0  0
  7 12  1  0  0  0  0
 32 37  1  0  0  0  0
 17 26  1  0  0  0  0
M  CHG  1  24  -1
M  END
$$$$

  -OEChem-05262214473D

 47 46  0     1  0  0  0  0  0999 V2000
    0.5093   -4.7265    3.0306 C   0  0  0  0  0  0  0  0  0  0  0  0
    1.2735   -4.4402    3.9448 O   0  0  0  0  0  0  0  0  0  0  0  0
   -0.4465   -5.8608    3.1982 C   0  0  0  0  0  0  0  0  0  0  0  0
   -0.0219   -6.8213    2.8645 H   0  0  0  0  0  0  0  0  0  0  0  0
   -0.7314   -6.0185    4.2509 H   0  0  0  0  0  0  0  0  0  0  0  0
   -1.3983   -5.7596    2.6527 H   0  0  0  0  0  0  0  0  0  0  0  0
    0.4252   -4.0886    1.8040 N   0  0  0  0  0  0  0  0  0  0  0  0
    1.2532   -2.9707    1.4349 C   0  0  2  0  0  0  0  0  0  0  0  0
    0.3395   -1.8293    1.0083 C   0  0  0  0  0  0  0  0  0  0  0  0
   -0.8136   -2.0027    0.6194 O   0  0  0  0  0  0  0  0  0  0  0  0
    2.2176   -3.3411    0.3189 C   0  0  0  0  0  0  0  0  0  0  0  0
   -0.2574   -4.4279    1.1287 H   0  0  0  0  0  0  0  0  0  0  0  0
    1.8087   -2.6785    2.3327 H   0  0  0  0  0  0  0  0  0  0  0  0
    1.6793   -3.6366   -0.5890 H   0  0  0  0  0  0  0  0  0  0  0  0
    2.8662   -2.4980    0.0589 H   0  0  0  0  0  0  0  0  0  0  0  0
    2.8538   -4.1816    0.6166 H   0  0  0  0  0  0  0  0  0  0  0  0
    0.9758   -0.5952    1.0708 N   0  0  0  0  0  0  0  0  0  0  0  0
    0.3258    0.6374    0.7059 C   0  0  2  0  0  0  0  0  0  0  0  0
    0.2446    0.6799   -0.8164 C   0  0  0  0  0  0  0  0  0  0  0  0
    1.2065    0.9547   -1.5309 O   0  0  0  0  0  0  0  0  0  0  0  0
    1.0806    1.8629    1.2346 C   0  0  0  0  0  0  0  0  0  0  0  0
    1.0636    1.9781    2.7583 C   0  0  0  0  0  0  0  0  0  0  0  0
    1.8207    3.1691    3.3550 C   0  0  0  0  0  0  0  0  0  0  0  0
    2.4868    3.8370    2.5125 O   0  5  0  0  0  0  0  0  0  0  0  0
    1.6843    3.3545    4.5957 O   0  0  0  0  0  0  0  0  0  0  0  0
    1.9288   -0.5463    1.4242 H   0  0  0  0  0  0  0  0  0  0  0  0
   -0.6906    0.5885    1.1115 H   0  0  0  0  0  0  0  0  0  0  0  0
    0.6653    2.7781    0.7947 H   0  0  0  0  0  0  0  0  0  0  0  0
    2.1263    1.8162    0.9021 H   0  0  0  0  0  0  0  0  0  0  0  0
    0.0288    1.9926    3.1210 H   0  0  0  0  0  0  0  0  0  0  0  0
    1.5284    1.0771    3.1784 H   0  0  0  0  0  0  0  0  0  0  0  0
   -1.0385    0.4209   -1.2778 N   0  0  0  0  0  0  0  0  0  0  0  0
   -1.3804    0.4174   -2.6813 C   0  0  2  0  0  0  0  0  0  0  0  0
   -2.8930    0.5522   -2.7972 C   0  0  0  0  0  0  0  0  0  0  0  0
   -3.6649    0.2497   -1.8896 O   0  0  0  0  0  0  0  0  0  0  0  0
   -0.8936   -0.8501   -3.3663 C   0  0  0  0  0  0  0  0  0  0  0  0
   -1.7702    0.1882   -0.6129 H   0  0  0  0  0  0  0  0  0  0  0  0
   -0.8998    1.2955   -3.1261 H   0  0  0  0  0  0  0  0  0  0  0  0
   -1.3643   -1.7407   -2.9340 H   0  0  0  0  0  0  0  0  0  0  0  0
   -1.1284   -0.8384   -4.4357 H   0  0  0  0  0  0  0  0  0  0  0  0
    0.1906   -0.9608   -3.2563 H   0  0  0  0  0  0  0  0  0  0  0  0
   -3.2819    1.0092   -4.0486 N   0  0  0  0  0  0  0  0  0  0  0  0
   -4.6659    1.2082   -4.4105 C   0  0  0  0  0  0  0  0  0  0  0  0
   -2.5730    1.2534   -4.7339 H   0  0  0  0  0  0  0  0  0  0  0  0
   -5.0560    0.2958   -4.8853 H   0  0  0  0  0  0  0  0  0  0  0  0
   -5.2526    1.4309   -3.5071 H   0  0  0  0  0  0  0  0  0  0  0  0
   -4.7433    2.0497   -5.1147 H   0  0  0  0  0  0  0  0  0  0  0  0
  1  3  1  0  0  0  0
  1  7  1  0  0  0  0
  1  2  2  0  0  0  0
 33 34  1  0  0  0  0
 34 42  1  0  0  0  0
 34 35  2  0  0  0  0
  8  9  1  0  0  0  0
  9 17  1  0  0  0  0
  9 10  2  0  0  0  0
 18 19  1  0  0  0  0
 19 32  1  0  0  0  0
 19 20  2  0  0  0  0
 22 23  1  0  0  0  0
 23 24  1  0  0  0  0
 23 25  2  0  0  0  0
 33 36  1  0  0  0  0
  8 11  1  0  0  0  0
 42 43  1  0  0  0  0
 21 22  1  0  0  0  0
 18 21  1  0  0  0  0
 32 33  1  0  0  0  0
  7  8  1  0  0  0  0
 17 18  1  0  0  0  0
  3  4  1  0  0  0  0
  3  5  1  0  0  0  0
  3  6  1  0  0  0  0
 36 39  1  0  0  0  0
 36 40  1  0  0  0  0
 36 41  1  0  0  0  0
 11 14  1  0  0  0  0
 11 15  1  0  0  0  0
 11 16  1  0  0  0  0
 43 45  1  0  0  0  0
 43 46  1  0  0  0  0
 43 47  1  0  0  0  0
 22 30  1  0  0  0  0
 22 31  1  0  0  0  0
 21 28  1  0  0  0  0
 21 29  1  0  0  0  0
 33 38  1  0  0  0  0
  8 13  1  0  0  0  0
 18 27  1  0  0  0  0
 42 44  1  0  0  0  0
  7 12  1  0  0  0  0
 32 37  1  0  0  0  0
 17 26  1  0  0  0  0
M  CHG  1  24  -1
M  END
$$$$

  -OEChem-05262214473D

 47 46  0     1  0  0  0  0  0999 V2000
    0.5093   -4.7265    3.0306 C   0  0  0  0  0  0  0  0  0  0  0  0
    1.2735   -4.4402    3.9448 O   0  0  0  0  0  0  0  0  0  0  0  0
   -0.4465   -5.8608    3.1982 C   0  0  0  0  0  0  0  0  0  0  0  0
   -0.0219   -6.8213    2.8645 H   0  0  0  0  0  0  0  0  0  0  0  0
   -0.7314   -6.0185    4.2509 H   0  0  0  0  0  0  0  0  0  0  0  0
   -1.3983   -5.7596    2.6527 H   0  0  0  0  0  0  0  0  0  0  0  0
    0.4252   -4.0886    1.8040 N   0  0  0  0  0  0  0  0  0  0  0  0
    1.2532   -2.9707    1.4349 C   0  0  2  0  0  0  0  0  0  0  0  0
    0.3395   -1.8293    1.0083 C   0  0  0  0  0  0  0  0  0  0  0  0
   -0.8136   -2.0027    0.6194 O   0  0  0  0  0  0  0  0  0  0  0  0
    2.2176   -3.3411    0.3189 C   0  0  0  0  0  0  0  0  0  0  0  0
   -0.2574   -4.4279    1.1287 H   0  0  0  0  0  0  0  0  0  0  0  0
    1.8087   -2.6785    2.3327 H   0  0  0  0  0  0  0  0  0  0  0  0
    1.6793   -3.6366   -0.5890 H   0  0  0  0  0  0  0  0  0  0  0  0
    2.8662   -2.4980    0.0589 H   0  0  0  0  0  0  0  0  0  0  0  0
    2.8538   -4.1816    0.6166 H   0  0  0  0  0  0  0  0  0  0  0  0
    0.9758   -0.5952    1.0708 N   0  0  0  0  0  0  0  0  0  0  0  0
    0.3258    0.6374    0.7059 C   0  0  2  0  0  0  0  0  0  0  0  0
    0.2446    0.6799   -0.8164 C   0  0  0  0  0  0  0  0  0  0  0  0
    1.2383    0.6876   -1.5401 O   0  0  0  0  0  0  0  0  0  0  0  0
    1.0806    1.8629    1.2346 C   0  0  0  0  0  0  0  0  0  0  0  0
    1.0636    1.9781    2.7583 C   0  0  0  0  0  0  0  0  0  0  0  0
    1.8207    3.1691    3.3550 C   0  0  0  0  0  0  0  0  0  0  0  0
    2.4868    3.8370    2.5125 O   0  5  0  0  0  0  0  0  0  0  0  0
    1.6843    3.3545    4.5957 O   0  0  0  0  0  0  0  0  0  0  0  0
    1.9288   -0.5463    1.4242 H   0  0  0  0  0  0  0  0  0  0  0  0
   -0.6906    0.5885    1.1115 H   0  0  0  0  0  0  0  0  0  0  0  0
    0.6653    2.7781    0.7947 H   0  0  0  0  0  0  0  0  0  0  0  0
    2.1263    1.8162    0.9021 H   0  0  0  0  0  0  0  0  0  0  0  0
    0.0288    1.9926    3.1210 H   0  0  0  0  0  0  0  0  0  0  0  0
    1.5284    1.0771    3.1784 H   0  0  0  0  0  0  0  0  0  0  0  0
   -1.0659    0.7553   -1.2670 N   0  0  0  0  0  0  0  0  0  0  0  0
   -1.4098    0.8223   -2.6685 C   0  0  2  0  0  0  0  0  0  0  0  0
   -2.8372    1.3419   -2.7781 C   0  0  0  0  0  0  0  0  0  0  0  0
   -3.6528    1.2608   -1.8620 O   0  0  0  0  0  0  0  0  0  0  0  0
   -1.2732   -0.5366   -3.3373 C   0  0  0  0  0  0  0  0  0  0  0  0
   -1.8269    0.7281   -0.5948 H   0  0  0  0  0  0  0  0  0  0  0  0
   -0.7227    1.5407   -3.1287 H   0  0  0  0  0  0  0  0  0  0  0  0
   -1.9540   -1.2697   -2.8894 H   0  0  0  0  0  0  0  0  0  0  0  0
   -1.5066   -0.4783   -4.4055 H   0  0  0  0  0  0  0  0  0  0  0  0
   -0.2534   -0.9222   -3.2316 H   0  0  0  0  0  0  0  0  0  0  0  0
   -3.1061    1.8678   -4.0340 N   0  0  0  0  0  0  0  0  0  0  0  0
   -4.3950    2.4130   -4.3913 C   0  0  0  0  0  0  0  0  0  0  0  0
   -2.3644    1.9117   -4.7266 H   0  0  0  0  0  0  0  0  0  0  0  0
   -5.0118    1.6265   -4.8505 H   0  0  0  0  0  0  0  0  0  0  0  0
   -4.8961    2.7913   -3.4881 H   0  0  0  0  0  0  0  0  0  0  0  0
   -4.2587    3.2368   -5.1074 H   0  0  0  0  0  0  0  0  0  0  0  0
  1  3  1  0  0  0  0
  1  7  1  0  0  0  0
  1  2  2  0  0  0  0
 33 34  1  0  0  0  0
 34 42  1  0  0  0  0
 34 35  2  0  0  0  0
  8  9  1  0  0  0  0
  9 17  1  0  0  0  0
  9 10  2  0  0  0  0
 18 19  1  0  0  0  0
 19 32  1  0  0  0  0
 19 20  2  0  0  0  0
 22 23  1  0  0  0  0
 23 24  1  0  0  0  0
 23 25  2  0  0  0  0
 33 36  1  0  0  0  0
  8 11  1  0  0  0  0
 42 43  1  0  0  0  0
 21 22  1  0  0  0  0
 18 21  1  0  0  0  0
 32 33  1  0  0  0  0
  7  8  1  0  0  0  0
 17 18  1  0  0  0  0
  3  4  1  0  0  0  0
  3  5  1  0  0  0  0
  3  6  1  0  0  0  0
 36 39  1  0  0  0  0
 36 40  1  0  0  0  0
 36 41  1  0  0  0  0
 11 14  1  0  0  0  0
 11 15  1  0  0  0  0
 11 16  1  0  0  0  0
 43 45  1  0  0  0  0
 43 46  1  0  0  0  0
 43 47  1  0  0  0  0
 22 30  1  0  0  0  0
 22 31  1  0  0  0  0
 21 28  1  0  0  0  0
 21 29  1  0  0  0  0
 33 38  1  0  0  0  0
  8 13  1  0  0  0  0
 18 27  1  0  0  0  0
 42 44  1  0  0  0  0
  7 12  1  0  0  0  0
 32 37  1  0  0  0  0
 17 26  1  0  0  0  0
M  CHG  1  24  -1
M  END
$$$$

  -OEChem-05262214473D

 47 46  0     1  0  0  0  0  0999 V2000
    0.5093   -4.7265    3.0306 C   0  0  0  0  0  0  0  0  0  0  0  0
    1.2735   -4.4402    3.9448 O   0  0  0  0  0  0  0  0  0  0  0  0
   -0.4465   -5.8608    3.1982 C   0  0  0  0  0  0  0  0  0  0  0  0
   -0.0219   -6.8213    2.8645 H   0  0  0  0  0  0  0  0  0  0  0  0
   -0.7314   -6.0185    4.2509 H   0  0  0  0  0  0  0  0  0  0  0  0
   -1.3983   -5.7596    2.6527 H   0  0  0  0  0  0  0  0  0  0  0  0
    0.4252   -4.0886    1.8040 N   0  0  0  0  0  0  0  0  0  0  0  0
    1.2532   -2.9707    1.4349 C   0  0  2  0  0  0  0  0  0  0  0  0
    0.3395   -1.8293    1.0083 C   0  0  0  0  0  0  0  0  0  0  0  0
   -0.8136   -2.0027    0.6194 O   0  0  0  0  0  0  0  0  0  0  0  0
    2.2176   -3.3411    0.3189 C   0  0  0  0  0  0  0  0  0  0  0  0
   -0.2574   -4.4279    1.1287 H   0  0  0  0  0  0  0  0  0  0  0  0
    1.8087   -2.6785    2.3327 H   0  0  0  0  0  0  0  0  0  0  0  0
    1.6793   -3.6366   -0.5890 H   0  0  0  0  0  0  0  0  0  0  0  0
    2.8662   -2.4980    0.0589 H   0  0  0  0  0  0  0  0  0  0  0  0
    2.8538   -4.1816    0.6166 H   0  0  0  0  0  0  0  0  0  0  0  0
    0.9758   -0.5952    1.0708 N   0  0  0  0  0  0  0  0  0  0  0  0
    0.3258    0.6374    0.7059 C   0  0  2  0  0  0  0  0  0  0  0  0
    0.2446    0.6799   -0.8164 C   0  0  0  0  0  0  0  0  0  0  0  0
    1.2000    0.4213   -1.5455 O   0  0  0  0  0  0  0  0  0  0  0  0
    1.0806    1.8629    1.2346 C   0  0  0  0  0  0  0  0  0  0  0  0
    1.0636    1.9781    2.7583 C   0  0  0  0  0  0  0  0  0  0  0  0
    1.8207    3.1691    3.3550 C   0  0  0  0  0  0  0  0  0  0  0  0
    2.4868    3.8370    2.5125 O   0  5  0  0  0  0  0  0  0  0  0  0
    1.6843    3.3545    4.5957 O   0  0  0  0  0  0  0  0  0  0  0  0
    1.9288   -0.5463    1.4242 H   0  0  0  0  0  0  0  0  0  0  0  0
   -0.6906    0.5885    1.1115 H   0  0  0  0  0  0  0  0  0  0  0  0
    0.6653    2.7781    0.7947 H   0  0  0  0  0  0  0  0  0  0  0  0
    2.1263    1.8162    0.9021 H   0  0  0  0  0  0  0  0  0  0  0  0
    0.0288    1.9926    3.1210 H   0  0  0  0  0  0  0  0  0  0  0  0
    1.5284    1.0771    3.1784 H   0  0  0  0  0  0  0  0  0  0  0  0
   -1.0060    1.0856   -1.2610 N   0  0  0  0  0  0  0  0  0  0  0  0
   -1.3335    1.2212   -2.6614 C   0  0  2  0  0  0  0  0  0  0  0  0
   -2.5792    2.0906   -2.7710 C   0  0  0  0  0  0  0  0  0  0  0  0
   -3.3798    2.2347   -1.8494 O   0  0  0  0  0  0  0  0  0  0  0  0
   -1.5585   -0.1353   -3.3109 C   0  0  0  0  0  0  0  0  0  0  0  0
   -1.7420    1.2646   -0.5843 H   0  0  0  0  0  0  0  0  0  0  0  0
   -0.4884    1.7317   -3.1359 H   0  0  0  0  0  0  0  0  0  0  0  0
   -2.4015   -0.6617   -2.8486 H   0  0  0  0  0  0  0  0  0  0  0  0
   -1.7786   -0.0324   -4.3786 H   0  0  0  0  0  0  0  0  0  0  0  0
   -0.6721   -0.7699   -3.2050 H   0  0  0  0  0  0  0  0  0  0  0  0
   -2.7145    2.6520   -4.0330 N   0  0  0  0  0  0  0  0  0  0  0  0
   -3.8219    3.5070   -4.3913 C   0  0  0  0  0  0  0  0  0  0  0  0
   -1.9929    2.4939   -4.7302 H   0  0  0  0  0  0  0  0  0  0  0  0
   -4.6251    2.9008   -4.8356 H   0  0  0  0  0  0  0  0  0  0  0  0
   -4.2001    4.0135   -3.4911 H   0  0  0  0  0  0  0  0  0  0  0  0
   -3.4840    4.2584   -5.1201 H   0  0  0  0  0  0  0  0  0  0  0  0
  1  3  1  0  0  0  0
  1  7  1  0  0  0  0
  1  2  2  0  0  0  0
 33 34  1  0  0  0  0
 34 42  1  0  0  0  0
 34 35  2  0  0  0  0
  8  9  1  0  0  0  0
  9 17  1  0  0  0  0
  9 10  2  0  0  0  0
 18 19  1  0  0  0  0
 19 32  1  0  0  0  0
 19 20  2  0  0  0  0
 22 23  1  0  0  0  0
 23 24  1  0  0  0  0
 23 25  2  0  0  0  0
 33 36  1  0  0  0  0
  8 11  1  0  0  0  0
 42 43  1  0  0  0  0
 21 22  1  0  0  0  0
 18 21  1  0  0  0  0
 32 33  1  0  0  0  0
  7  8  1  0  0  0  0
 17 18  1  0  0  0  0
  3  4  1  0  0  0  0
  3  5  1  0  0  0  0
  3  6  1  0  0  0  0
 36 39  1  0  0  0  0
 36 40  1  0  0  0  0
 36 41  1  0  0  0  0
 11 14  1  0  0  0  0
 11 15  1  0  0  0  0
 11 16  1  0  0  0  0
 43 45  1  0  0  0  0
 43 46  1  0  0  0  0
 43 47  1  0  0  0  0
 22 30  1  0  0  0  0
 22 31  1  0  0  0  0
 21 28  1  0  0  0  0
 21 29  1  0  0  0  0
 33 38  1  0  0  0  0
  8 13  1  0  0  0  0
 18 27  1  0  0  0  0
 42 44  1  0  0  0  0
  7 12  1  0  0  0  0
 32 37  1  0  0  0  0
 17 26  1  0  0  0  0
M  CHG  1  24  -1
M  END
$$$$

  -OEChem-05262214473D

 47 46  0     1  0  0  0  0  0999 V2000
    0.5093   -4.7265    3.0306 C   0  0  0  0  0  0  0  0  0  0  0  0
    1.2735   -4.4402    3.9448 O   0  0  0  0  0  0  0  0  0  0  0  0
   -0.4465   -5.8608    3.1982 C   0  0  0  0  0  0  0  0  0  0  0  0
   -0.0219   -6.8213    2.8645 H   0  0  0  0  0  0  0  0  0  0  0  0
   -0.7314   -6.0185    4.2509 H   0  0  0  0  0  0  0  0  0  0  0  0
   -1.3983   -5.7596    2.6527 H   0  0  0  0  0  0  0  0  0  0  0  0
    0.4252   -4.0886    1.8040 N   0  0  0  0  0  0  0  0  0  0  0  0
    1.2532   -2.9707    1.4349 C   0  0  2  0  0  0  0  0  0  0  0  0
    0.3395   -1.8293    1.0083 C   0  0  0  0  0  0  0  0  0  0  0  0
   -0.8136   -2.0027    0.6194 O   0  0  0  0  0  0  0  0  0  0  0  0
    2.2176   -3.3411    0.3189 C   0  0  0  0  0  0  0  0  0  0  0  0
   -0.2574   -4.4279    1.1287 H   0  0  0  0  0  0  0  0  0  0  0  0
    1.8087   -2.6785    2.3327 H   0  0  0  0  0  0  0  0  0  0  0  0
    1.6793   -3.6366   -0.5890 H   0  0  0  0  0  0  0  0  0  0  0  0
    2.8662   -2.4980    0.0589 H   0  0  0  0  0  0  0  0  0  0  0  0
    2.8538   -4.1816    0.6166 H   0  0  0  0  0  0  0  0  0  0  0  0
    0.9758   -0.5952    1.0708 N   0  0  0  0  0  0  0  0  0  0  0  0
    0.3258    0.6374    0.7059 C   0  0  2  0  0  0  0  0  0  0  0  0
    0.2446    0.6799   -0.8164 C   0  0  0  0  0  0  0  0  0  0  0  0
    1.0942    0.1739   -1.5468 O   0  0  0  0  0  0  0  0  0  0  0  0
    1.0806    1.8629    1.2346 C   0  0  0  0  0  0  0  0  0  0  0  0
    1.0636    1.9781    2.7583 C   0  0  0  0  0  0  0  0  0  0  0  0
    1.8207    3.1691    3.3550 C   0  0  0  0  0  0  0  0  0  0  0  0
    2.4868    3.8370    2.5125 O   0  5  0  0  0  0  0  0  0  0  0  0
    1.6843    3.3545    4.5957 O   0  0  0  0  0  0  0  0  0  0  0  0
    1.9288   -0.5463    1.4242 H   0  0  0  0  0  0  0  0  0  0  0  0
   -0.6906    0.5885    1.1115 H   0  0  0  0  0  0  0  0  0  0  0  0
    0.6653    2.7781    0.7947 H   0  0  0  0  0  0  0  0  0  0  0  0
    2.1263    1.8162    0.9021 H   0  0  0  0  0  0  0  0  0  0  0  0
    0.0288    1.9926    3.1210 H   0  0  0  0  0  0  0  0  0  0  0  0
    1.5284    1.0771    3.1784 H   0  0  0  0  0  0  0  0  0  0  0  0
   -0.8627    1.3893   -1.2602 N   0  0  0  0  0  0  0  0  0  0  0  0
   -1.1567    1.5870   -2.6606 C   0  0  2  0  0  0  0  0  0  0  0  0
   -2.1365    2.7472   -2.7762 C   0  0  0  0  0  0  0  0  0  0  0  0
   -2.8643    3.1051   -1.8525 O   0  0  0  0  0  0  0  0  0  0  0  0
   -1.7303    0.3264   -3.2888 C   0  0  0  0  0  0  0  0  0  0  0  0
   -1.5214    1.7610   -0.5822 H   0  0  0  0  0  0  0  0  0  0  0  0
   -0.2127    1.8555   -3.1471 H   0  0  0  0  0  0  0  0  0  0  0  0
   -2.6765    0.0417   -2.8143 H   0  0  0  0  0  0  0  0  0  0  0  0
   -1.9260    0.4690   -4.3567 H   0  0  0  0  0  0  0  0  0  0  0  0
   -1.0370   -0.5143   -3.1784 H   0  0  0  0  0  0  0  0  0  0  0  0
   -2.1335    3.3082   -4.0456 N   0  0  0  0  0  0  0  0  0  0  0  0
   -2.9857    4.4158   -4.4105 C   0  0  0  0  0  0  0  0  0  0  0  0
   -1.4836    2.9601   -4.7443 H   0  0  0  0  0  0  0  0  0  0  0  0
   -3.9223    4.0320   -4.8414 H   0  0  0  0  0  0  0  0  0  0  0  0
   -3.2122    5.0143   -3.5158 H   0  0  0  0  0  0  0  0  0  0  0  0
   -2.4718    5.0449   -5.1521 H   0  0  0  0  0  0  0  0  0  0  0  0
  1  3  1  0  0  0  0
  1  7  1  0  0  0  0
  1  2  2  0  0  0  0
 33 34  1  0  0  0  0
 34 42  1  0  0  0  0
 34 35  2  0  0  0  0
  8  9  1  0  0  0  0
  9 17  1  0  0  0  0
  9 10  2  0  0  0  0
 18 19  1  0  0  0  0
 19 32  1  0  0  0  0
 19 20  2  0  0  0  0
 22 23  1  0  0  0  0
 23 24  1  0  0  0  0
 23 25  2  0  0  0  0
 33 36  1  0  0  0  0
  8 11  1  0  0  0  0
 42 43  1  0  0  0  0
 21 22  1  0  0  0  0
 18 21  1  0  0  0  0
 32 33  1  0  0  0  0
  7  8  1  0  0  0  0
 17 18  1  0  0  0  0
  3  4  1  0  0  0  0
  3  5  1  0  0  0  0
  3  6  1  0  0  0  0
 36 39  1  0  0  0  0
 36 40  1  0  0  0  0
 36 41  1  0  0  0  0
 11 14  1  0  0  0  0
 11 15  1  0  0  0  0
 11 16  1  0  0  0  0
 43 45  1  0  0  0  0
 43 46  1  0  0  0  0
 43 47  1  0  0  0  0
 22 30  1  0  0  0  0
 22 31  1  0  0  0  0
 21 28  1  0  0  0  0
 21 29  1  0  0  0  0
 33 38  1  0  0  0  0
  8 13  1  0  0  0  0
 18 27  1  0  0  0  0
 42 44  1  0  0  0  0
  7 12  1  0  0  0  0
 32 37  1  0  0  0  0
 17 26  1  0  0  0  0
M  CHG  1  24  -1
M  END
$$$$

  -OEChem-05262214473D

 47 46  0     1  0  0  0  0  0999 V2000
    0.5093   -4.7265    3.0306 C   0  0  0  0  0  0  0  0  0  0  0  0
    1.2735   -4.4402    3.9448 O   0  0  0  0  0  0  0  0  0  0  0  0
   -0.4465   -5.8608    3.1982 C   0  0  0  0  0  0  0  0  0  0  0  0
   -0.0219   -6.8213    2.8645 H   0  0  0  0  0  0  0  0  0  0  0  0
   -0.7314   -6.0185    4.2509 H   0  0  0  0  0  0  0  0  0  0  0  0
   -1.3983   -5.7596    2.6527 H   0  0  0  0  0  0  0  0  0  0  0  0
    0.4252   -4.0886    1.8040 N   0  0  0  0  0  0  0  0  0  0  0  0
    1.2532   -2.9707    1.4349 C   0  0  2  0  0  0  0  0  0  0  0  0
    0.3395   -1.8293    1.0083 C   0  0  0  0  0  0  0  0  0  0  0  0
   -0.8136   -2.0027    0.6194 O   0  0  0  0  0  0  0  0  0  0  0  0
    2.2176   -3.3411    0.3189 C   0  0  0  0  0  0  0  0  0  0  0  0
   -0.2574   -4.4279    1.1287 H   0  0  0  0  0  0  0  0  0  0  0  0
    1.8087   -2.6785    2.3327 H   0  0  0  0  0  0  0  0  0  0  0  0
    1.6793   -3.6366   -0.5890 H   0  0  0  0  0  0  0  0  0  0  0  0
    2.8662   -2.4980    0.0589 H   0  0  0  0  0  0  0  0  0  0  0  0
    2.8538   -4.1816    0.6166 H   0  0  0  0  0  0  0  0  0  0  0  0
    0.9758   -0.5952    1.0708 N   0  0  0  0  0  0  0  0  0  0  0  0
    0.3258    0.6374    0.7059 C   0  0  2  0  0  0  0  0  0  0  0  0
    0.2446    0.6799   -0.8164 C   0  0  0  0  0  0  0  0  0  0  0  0
    0.9281   -0.0378   -1.5438 O   0  0  0  0  0  0  0  0  0  0  0  0
    1.0806    1.8629    1.2346 C   0  0  0  0  0  0  0  0  0  0  0  0
    1.0636    1.9781    2.7583 C   0  0  0  0  0  0  0  0  0  0  0  0
    1.8207    3.1691    3.3550 C   0  0  0  0  0  0  0  0  0  0  0  0
    2.4868    3.8370    2.5125 O   0  5  0  0  0  0  0  0  0  0  0  0
    1.6843    3.3545    4.5957 O   0  0  0  0  0  0  0  0  0  0  0  0
    1.9288   -0.5463    1.4242 H   0  0  0  0  0  0  0  0  0  0  0  0
   -0.6906    0.5885    1.1115 H   0  0  0  0  0  0  0  0  0  0  0  0
    0.6653    2.7781    0.7947 H   0  0  0  0  0  0  0  0  0  0  0  0
    2.1263    1.8162    0.9021 H   0  0  0  0  0  0  0  0  0  0  0  0
    0.0288    1.9926    3.1210 H   0  0  0  0  0  0  0  0  0  0  0  0
    1.5284    1.0771    3.1784 H   0  0  0  0  0  0  0  0  0  0  0  0
   -0.6458    1.6456   -1.2646 N   0  0  0  0  0  0  0  0  0  0  0  0
   -0.8914    1.8945   -2.6661 C   0  0  2  0  0  0  0  0  0  0  0  0
   -1.5393    3.2670   -2.7935 C   0  0  0  0  0  0  0  0  0  0  0  0
   -2.1416    3.8126   -1.8713 O   0  0  0  0  0  0  0  0  0  0  0  0
   -1.7768    0.8171   -3.2727 C   0  0  0  0  0  0  0  0  0  0  0  0
   -1.1800    2.1836   -0.5886 H   0  0  0  0  0  0  0  0  0  0  0  0
    0.0855    1.9038   -3.1617 H   0  0  0  0  0  0  0  0  0  0  0  0
   -2.7601    0.7926   -2.7889 H   0  0  0  0  0  0  0  0  0  0  0  0
   -1.9386    0.9917   -4.3415 H   0  0  0  0  0  0  0  0  0  0  0  0
   -1.3232   -0.1728   -3.1537 H   0  0  0  0  0  0  0  0  0  0  0  0
   -1.4030    3.7919   -4.0711 N   0  0  0  0  0  0  0  0  0  0  0  0
   -1.9434    5.0772   -4.4476 C   0  0  0  0  0  0  0  0  0  0  0  0
   -0.8713    3.2787   -4.7680 H   0  0  0  0  0  0  0  0  0  0  0  0
   -2.9511    4.9430   -4.8677 H   0  0  0  0  0  0  0  0  0  0  0  0
   -1.9995    5.7254   -3.5606 H   0  0  0  0  0  0  0  0  0  0  0  0
   -1.2911    5.5426   -5.2011 H   0  0  0  0  0  0  0  0  0  0  0  0
  1  3  1  0  0  0  0
  1  7  1  0  0  0  0
  1  2  2  0  0  0  0
 33 34  1  0  0  0  0
 34 42  1  0  0  0  0
 34 35  2  0  0  0  0
  8  9  1  0  0  0  0
  9 17  1  0  0  0  0
  9 10  2  0  0  0  0
 18 19  1  0  0  0  0
 19 32  1  0  0  0  0
 19 20  2  0  0  0  0
 22 23  1  0  0  0  0
 23 24  1  0  0  0  0
 23 25  2  0  0  0  0
 33 36  1  0  0  0  0
  8 11  1  0  0  0  0
 42 43  1  0  0  0  0
 21 22  1  0  0  0  0
 18 21  1  0  0  0  0
 32 33  1  0  0  0  0
  7  8  1  0  0  0  0
 17 18  1  0  0  0  0
  3  4  1  0  0  0  0
  3  5  1  0  0  0  0
  3  6  1  0  0  0  0
 36 39  1  0  0  0  0
 36 40  1  0  0  0  0
 36 41  1  0  0  0  0
 11 14  1  0  0  0  0
 11 15  1  0  0  0  0
 11 16  1  0  0  0  0
 43 45  1  0  0  0  0
 43 46  1  0  0  0  0
 43 47  1  0  0  0  0
 22 30  1  0  0  0  0
 22 31  1  0  0  0  0
 21 28  1  0  0  0  0
 21 29  1  0  0  0  0
 33 38  1  0  0  0  0
  8 13  1  0  0  0  0
 18 27  1  0  0  0  0
 42 44  1  0  0  0  0
  7 12  1  0  0  0  0
 32 37  1  0  0  0  0
 17 26  1  0  0  0  0
M  CHG  1  24  -1
M  END
$$$$

  -OEChem-05262214473D

 47 46  0     1  0  0  0  0  0999 V2000
    0.5093   -4.7265    3.0306 C   0  0  0  0  0  0  0  0  0  0  0  0
    1.2735   -4.4402    3.9448 O   0  0  0  0  0  0  0  0  0  0  0  0
   -0.4465   -5.8608    3.1982 C   0  0  0  0  0  0  0  0  0  0  0  0
   -0.0219   -6.8213    2.8645 H   0  0  0  0  0  0  0  0  0  0  0  0
   -0.7314   -6.0185    4.2509 H   0  0  0  0  0  0  0  0  0  0  0  0
   -1.3983   -5.7596    2.6527 H   0  0  0  0  0  0  0  0  0  0  0  0
    0.4252   -4.0886    1.8040 N   0  0  0  0  0  0  0  0  0  0  0  0
    1.2532   -2.9707    1.4349 C   0  0  2  0  0  0  0  0  0  0  0  0
    0.3395   -1.8293    1.0083 C   0  0  0  0  0  0  0  0  0  0  0  0
   -0.8136   -2.0027    0.6194 O   0  0  0  0  0  0  0  0  0  0  0  0
    2.2176   -3.3411    0.3189 C   0  0  0  0  0  0  0  0  0  0  0  0
   -0.2574   -4.4279    1.1287 H   0  0  0  0  0  0  0  0  0  0  0  0
    1.8087   -2.6785    2.3327 H   0  0  0  0  0  0  0  0  0  0  0  0
    1.6793   -3.6366   -0.5890 H   0  0  0  0  0  0  0  0  0  0  0  0
    2.8662   -2.4980    0.0589 H   0  0  0  0  0  0  0  0  0  0  0  0
    2.8538   -4.1816    0.6166 H   0  0  0  0  0  0  0  0  0  0  0  0
    0.9758   -0.5952    1.0708 N   0  0  0  0  0  0  0  0  0  0  0  0
    0.3258    0.6374    0.7059 C   0  0  2  0  0  0  0  0  0  0  0  0
   -0.0940    0.5193   -0.7555 C   0  0  0  0  0  0  0  0  0  0  0  0
    0.1531   -0.4675   -1.4457 O   0  0  0  0  0  0  0  0  0  0  0  0
    1.2435    1.8502    0.9013 C   0  0  0  0  0  0  0  0  0  0  0  0
    1.5763    2.1324    2.3658 C   0  0  0  0  0  0  0  0  0  0  0  0
    2.5098    3.3182    2.6309 C   0  0  0  0  0  0  0  0  0  0  0  0
    3.0030    3.8353    1.5873 O   0  5  0  0  0  0  0  0  0  0  0  0
    2.6664    3.6483    3.8386 O   0  0  0  0  0  0  0  0  0  0  0  0
    1.9288   -0.5463    1.4242 H   0  0  0  0  0  0  0  0  0  0  0  0
   -0.5742    0.7133    1.3257 H   0  0  0  0  0  0  0  0  0  0  0  0
    0.7883    2.7416    0.4521 H   0  0  0  0  0  0  0  0  0  0  0  0
    2.1834    1.6852    0.3578 H   0  0  0  0  0  0  0  0  0  0  0  0
    0.6522    2.2679    2.9402 H   0  0  0  0  0  0  0  0  0  0  0  0
    2.0760    1.2489    2.7833 H   0  0  0  0  0  0  0  0  0  0  0  0
   -0.7346    1.6643   -1.2084 N   0  0  0  0  0  0  0  0  0  0  0  0
   -1.2165    1.8087   -2.5625 C   0  0  2  0  0  0  0  0  0  0  0  0
   -1.4359    3.2922   -2.8279 C   0  0  0  0  0  0  0  0  0  0  0  0
   -1.6136    4.1148   -1.9319 O   0  0  0  0  0  0  0  0  0  0  0  0
   -2.4997    1.0220   -2.7800 C   0  0  0  0  0  0  0  0  0  0  0  0
   -0.9094    2.4272   -0.5610 H   0  0  0  0  0  0  0  0  0  0  0  0
   -0.4264    1.4321   -3.2212 H   0  0  0  0  0  0  0  0  0  0  0  0
   -3.3030    1.3849   -2.1285 H   0  0  0  0  0  0  0  0  0  0  0  0
   -2.8481    1.1093   -3.8144 H   0  0  0  0  0  0  0  0  0  0  0  0
   -2.3476   -0.0402   -2.5599 H   0  0  0  0  0  0  0  0  0  0  0  0
   -1.4530    3.5827   -4.1849 N   0  0  0  0  0  0  0  0  0  0  0  0
   -1.6575    4.9188   -4.6937 C   0  0  0  0  0  0  0  0  0  0  0  0
   -1.2780    2.8413   -4.8568 H   0  0  0  0  0  0  0  0  0  0  0  0
   -2.7284    5.0775   -4.8887 H   0  0  0  0  0  0  0  0  0  0  0  0
   -1.3076    5.6513   -3.9514 H   0  0  0  0  0  0  0  0  0  0  0  0
   -1.0920    5.0455   -5.6287 H   0  0  0  0  0  0  0  0  0  0  0  0
  1  3  1  0  0  0  0
  1  7  1  0  0  0  0
  1  2  2  0  0  0  0
 33 34  1  0  0  0  0
 34 42  1  0  0  0  0
 34 35  2  0  0  0  0
  8  9  1  0  0  0  0
  9 17  1  0  0  0  0
  9 10  2  0  0  0  0
 18 19  1  0  0  0  0
 19 32  1  0  0  0  0
 19 20  2  0  0  0  0
 22 23  1  0  0  0  0
 23 24  1  0  0  0  0
 23 25  2  0  0  0  0
 33 36  1  0  0  0  0
  8 11  1  0  0  0  0
 42 43  1  0  0  0  0
 21 22  1  0  0  0  0
 18 21  1  0  0  0  0
 32 33  1  0  0  0  0
  7  8  1  0  0  0  0
 17 18  1  0  0  0  0
  3  4  1  0  0  0  0
  3  5  1  0  0  0  0
  3  6  1  0  0  0  0
 36 39  1  0  0  0  0
 36 40  1  0  0  0  0
 36 41  1  0  0  0  0
 11 14  1  0  0  0  0
 11 15  1  0  0  0  0
 11 16  1  0  0  0  0
 43 45  1  0  0  0  0
 43 46  1  0  0  0  0
 43 47  1  0  0  0  0
 22 30  1  0  0  0  0
 22 31  1  0  0  0  0
 21 28  1  0  0  0  0
 21 29  1  0  0  0  0
 33 38  1  0  0  0  0
  8 13  1  0  0  0  0
 18 27  1  0  0  0  0
 42 44  1  0  0  0  0
  7 12  1  0  0  0  0
 32 37  1  0  0  0  0
 17 26  1  0  0  0  0
M  CHG  1  24  -1
M  END
$$$$

  -OEChem-05262214473D

 47 46  0     1  0  0  0  0  0999 V2000
    0.5093   -4.7265    3.0306 C   0  0  0  0  0  0  0  0  0  0  0  0
    1.2735   -4.4402    3.9448 O   0  0  0  0  0  0  0  0  0  0  0  0
   -0.4465   -5.8608    3.1982 C   0  0  0  0  0  0  0  0  0  0  0  0
   -0.0219   -6.8213    2.8645 H   0  0  0  0  0  0  0  0  0  0  0  0
   -0.7314   -6.0185    4.2509 H   0  0  0  0  0  0  0  0  0  0  0  0
   -1.3983   -5.7596    2.6527 H   0  0  0  0  0  0  0  0  0  0  0  0
    0.4252   -4.0886    1.8040 N   0  0  0  0  0  0  0  0  0  0  0  0
    1.2532   -2.9707    1.4349 C   0  0  2  0  0  0  0  0  0  0  0  0
    0.3395   -1.8293    1.0083 C   0  0  0  0  0  0  0  0  0  0  0  0
   -0.8136   -2.0027    0.6194 O   0  0  0  0  0  0  0  0  0  0  0  0
    2.2176   -3.3411    0.3189 C   0  0  0  0  0  0  0  0  0  0  0  0
   -0.2574   -4.4279    1.1287 H   0  0  0  0  0  0  0  0  0  0  0  0
    1.8087   -2.6785    2.3327 H   0  0  0  0  0  0  0  0  0  0  0  0
    1.6793   -3.6366   -0.5890 H   0  0  0  0  0  0  0  0  0  0  0  0
    2.8662   -2.4980    0.0589 H   0  0  0  0  0  0  0  0  0  0  0  0
    2.8538   -4.1816    0.6166 H   0  0  0  0  0  0  0  0  0  0  0  0
    0.9758   -0.5952    1.0708 N   0  0  0  0  0  0  0  0  0  0  0  0
    0.3258    0.6374    0.7059 C   0  0  2  0  0  0  0  0  0  0  0  0
   -0.0940    0.5193   -0.7555 C   0  0  0  0  0  0  0  0  0  0  0  0
   -0.0925   -0.5461   -1.3688 O   0  0  0  0  0  0  0  0  0  0  0  0
    1.2435    1.8502    0.9013 C   0  0  0  0  0  0  0  0  0  0  0  0
    1.5763    2.1324    2.3658 C   0  0  0  0  0  0  0  0  0  0  0  0
    2.5098    3.3182    2.6309 C   0  0  0  0  0  0  0  0  0  0  0  0
    3.0030    3.8353    1.5873 O   0  5  0  0  0  0  0  0  0  0  0  0
    2.6664    3.6483    3.8386 O   0  0  0  0  0  0  0  0  0  0  0  0
    1.9288   -0.5463    1.4242 H   0  0  0  0  0  0  0  0  0  0  0  0
   -0.5742    0.7133    1.3257 H   0  0  0  0  0  0  0  0  0  0  0  0
    0.7883    2.7416    0.4521 H   0  0  0  0  0  0  0  0  0  0  0  0
    2.1834    1.6852    0.3578 H   0  0  0  0  0  0  0  0  0  0  0  0
    0.6522    2.2679    2.9402 H   0  0  0  0  0  0  0  0  0  0  0  0
    2.0760    1.2489    2.7833 H   0  0  0  0  0  0  0  0  0  0  0  0
   -0.4246    1.7505   -1.3044 N   0  0  0  0  0  0  0  0  0  0  0  0
   -0.8405    1.9093   -2.6786 C   0  0  2  0  0  0  0  0  0  0  0  0
   -0.6810    3.3772   -3.0516 C   0  0  0  0  0  0  0  0  0  0  0  0
   -0.6584    4.2821   -2.2198 O   0  0  0  0  0  0  0  0  0  0  0  0
   -2.2765    1.4505   -2.8787 C   0  0  0  0  0  0  0  0  0  0  0  0
   -0.4113    2.5785   -0.7163 H   0  0  0  0  0  0  0  0  0  0  0  0
   -0.1616    1.3015   -3.2867 H   0  0  0  0  0  0  0  0  0  0  0  0
   -2.9714    2.0479   -2.2773 H   0  0  0  0  0  0  0  0  0  0  0  0
   -2.5808    1.5448   -3.9263 H   0  0  0  0  0  0  0  0  0  0  0  0
   -2.3959    0.4029   -2.5818 H   0  0  0  0  0  0  0  0  0  0  0  0
   -0.6103    3.5620   -4.4253 N   0  0  0  0  0  0  0  0  0  0  0  0
   -0.4704    4.8659   -5.0304 C   0  0  0  0  0  0  0  0  0  0  0  0
   -0.6179    2.7529   -5.0393 H   0  0  0  0  0  0  0  0  0  0  0  0
   -1.4659    5.2697   -5.2668 H   0  0  0  0  0  0  0  0  0  0  0  0
    0.0425    5.5418   -4.3303 H   0  0  0  0  0  0  0  0  0  0  0  0
    0.1191    4.7796   -5.9551 H   0  0  0  0  0  0  0  0  0  0  0  0
  1  3  1  0  0  0  0
  1  7  1  0  0  0  0
  1  2  2  0  0  0  0
 33 34  1  0  0  0  0
 34 42  1  0  0  0  0
 34 35  2  0  0  0  0
  8  9  1  0  0  0  0
  9 17  1  0  0  0  0
  9 10  2  0  0  0  0
 18 19  1  0  0  0  0
 19 32  1  0  0  0  0
 19 20  2  0  0  0  0
 22 23  1  0  0  0  0
 23 24  1  0  0  0  0
 23 25  2  0  0  0  0
 33 36  1  0  0  0  0
  8 11  1  0  0  0  0
 42 43  1  0  0  0  0
 21 22  1  0  0  0  0
 18 21  1  0  0  0  0
 32 33  1  0  0  0  0
  7  8  1  0  0  0  0
 17 18  1  0  0  0  0
  3  4  1  0  0  0  0
  3  5  1  0  0  0  0
  3  6  1  0  0  0  0
 36 39  1  0  0  0  0
 36 40  1  0  0  0  0
 36 41  1  0  0  0  0
 11 14  1  0  0  0  0
 11 15  1  0  0  0  0
 11 16  1  0  0  0  0
 43 45  1  0  0  0  0
 43 46  1  0  0  0  0
 43 47  1  0  0  0  0
 22 30  1  0  0  0  0
 22 31  1  0  0  0  0
 21 28  1  0  0  0  0
 21 29  1  0  0  0  0
 33 38  1  0  0  0  0
  8 13  1  0  0  0  0
 18 27  1  0  0  0  0
 42 44  1  0  0  0  0
  7 12  1  0  0  0  0
 32 37  1  0  0  0  0
 17 26  1  0  0  0  0
M  CHG  1  24  -1
M  END
$$$$

  -OEChem-05262214473D

 47 46  0     1  0  0  0  0  0999 V2000
    0.5093   -4.7265    3.0306 C   0  0  0  0  0  0  0  0  0  0  0  0
    1.2735   -4.4402    3.9448 O   0  0  0  0  0  0  0  0  0  0  0  0
   -0.4465   -5.8608    3.1982 C   0  0  0  0  0  0  0  0  0  0  0  0
   -0.0219   -6.8213    2.8645 H   0  0  0  0  0  0  0  0  0  0  0  0
   -0.7314   -6.0185    4.2509 H   0  0  0  0  0  0  0  0  0  0  0  0
   -1.3983   -5.7596    2.6527 H   0  0  0  0  0  0  0  0  0  0  0  0
    0.4252   -4.0886    1.8040 N   0  0  0  0  0  0  0  0  0  0  0  0
    1.2532   -2.9707    1.4349 C   0  0  2  0  0  0  0  0  0  0  0  0
    0.3395   -1.8293    1.0083 C   0  0  0  0  0  0  0  0  0  0  0  0
   -0.8136   -2.0027    0.6194 O   0  0  0  0  0  0  0  0  0  0  0  0
    2.2176   -3.3411    0.3189 C   0  0  0  0  0  0  0  0  0  0  0  0
   -0.2574   -4.4279    1.1287 H   0  0  0  0  0  0  0  0  0  0  0  0
    1.8087   -2.6785    2.3327 H   0  0  0  0  0  0  0  0  0  0  0  0
    1.6793   -3.6366   -0.5890 H   0  0  0  0  0  0  0  0  0  0  0  0
    2.8662   -2.4980    0.0589 H   0  0  0  0  0  0  0  0  0  0  0  0
    2.8538   -4.1816    0.6166 H   0  0  0  0  0  0  0  0  0  0  0  0
    0.9758   -0.5952    1.0708 N   0  0  0  0  0  0  0  0  0  0  0  0
    0.3258    0.6374    0.7059 C   0  0  2  0  0  0  0  0  0  0  0  0
   -0.0940    0.5193   -0.7555 C   0  0  0  0  0  0  0  0  0  0  0  0
   -0.3508   -0.5556   -1.2938 O   0  0  0  0  0  0  0  0  0  0  0  0
    1.2435    1.8502    0.9013 C   0  0  0  0  0  0  0  0  0  0  0  0
    1.5763    2.1324    2.3658 C   0  0  0  0  0  0  0  0  0  0  0  0
    2.5098    3.3182    2.6309 C   0  0  0  0  0  0  0  0  0  0  0  0
    3.0030    3.8353    1.5873 O   0  5  0  0  0  0  0  0  0  0  0  0
    2.6664    3.6483    3.8386 O   0  0  0  0  0  0  0  0  0  0  0  0
    1.9288   -0.5463    1.4242 H   0  0  0  0  0  0  0  0  0  0  0  0
   -0.5742    0.7133    1.3257 H   0  0  0  0  0  0  0  0  0  0  0  0
    0.7883    2.7416    0.4521 H   0  0  0  0  0  0  0  0  0  0  0  0
    2.1834    1.6852    0.3578 H   0  0  0  0  0  0  0  0  0  0  0  0
    0.6522    2.2679    2.9402 H   0  0  0  0  0  0  0  0  0  0  0  0
    2.0760    1.2489    2.7833 H   0  0  0  0  0  0  0  0  0  0  0  0
   -0.1019    1.7500   -1.3970 N   0  0  0  0  0  0  0  0  0  0  0  0
   -0.4500    1.9049   -2.7904 C   0  0  2  0  0  0  0  0  0  0  0  0
    0.0737    3.2562   -3.2586 C   0  0  0  0  0  0  0  0  0  0  0  0
    0.3115    4.1862   -2.4906 O   0  0  0  0  0  0  0  0  0  0  0  0
   -1.9527    1.8020   -3.0001 C   0  0  0  0  0  0  0  0  0  0  0  0
    0.1105    2.5901   -0.8671 H   0  0  0  0  0  0  0  0  0  0  0  0
    0.0631    1.1050   -3.3354 H   0  0  0  0  0  0  0  0  0  0  0  0
   -2.4837    2.5954   -2.4616 H   0  0  0  0  0  0  0  0  0  0  0  0
   -2.2124    1.8911   -4.0601 H   0  0  0  0  0  0  0  0  0  0  0  0
   -2.3322    0.8414   -2.6355 H   0  0  0  0  0  0  0  0  0  0  0  0
    0.2034    3.3159   -4.6391 N   0  0  0  0  0  0  0  0  0  0  0  0
    0.6699    4.4964   -5.3281 C   0  0  0  0  0  0  0  0  0  0  0  0
    0.0015    2.4908   -5.1961 H   0  0  0  0  0  0  0  0  0  0  0  0
   -0.1913    5.1153   -5.6205 H   0  0  0  0  0  0  0  0  0  0  0  0
    1.3270    5.0742   -4.6615 H   0  0  0  0  0  0  0  0  0  0  0  0
    1.2296    4.1990   -6.2271 H   0  0  0  0  0  0  0  0  0  0  0  0
  1  3  1  0  0  0  0
  1  7  1  0  0  0  0
  1  2  2  0  0  0  0
 33 34  1  0  0  0  0
 34 42  1  0  0  0  0
 34 35  2  0  0  0  0
  8  9  1  0  0  0  0
  9 17  1  0  0  0  0
  9 10  2  0  0  0  0
 18 19  1  0  0  0  0
 19 32  1  0  0  0  0
 19 20  2  0  0  0  0
 22 23  1  0  0  0  0
 23 24  1  0  0  0  0
 23 25  2  0  0  0  0
 33 36  1  0  0  0  0
  8 11  1  0  0  0  0
 42 43  1  0  0  0  0
 21 22  1  0  0  0  0
 18 21  1  0  0  0  0
 32 33  1  0  0  0  0
  7  8  1  0  0  0  0
 17 18  1  0  0  0  0
  3  4  1  0  0  0  0
  3  5  1  0  0  0  0
  3  6  1  0  0  0  0
 36 39  1  0  0  0  0
 36 40  1  0  0  0  0
 36 41  1  0  0  0  0
 11 14  1  0  0  0  0
 11 15  1  0  0  0  0
 11 16  1  0  0  0  0
 43 45  1  0  0  0  0
 43 46  1  0  0  0  0
 43 47  1  0  0  0  0
 22 30  1  0  0  0  0
 22 31  1  0  0  0  0
 21 28  1  0  0  0  0
 21 29  1  0  0  0  0
 33 38  1  0  0  0  0
  8 13  1  0  0  0  0
 18 27  1  0  0  0  0
 42 44  1  0  0  0  0
  7 12  1  0  0  0  0
 32 37  1  0  0  0  0
 17 26  1  0  0  0  0
M  CHG  1  24  -1
M  END
$$$$

  -OEChem-05262214473D

 47 46  0     1  0  0  0  0  0999 V2000
    0.5093   -4.7265    3.0306 C   0  0  0  0  0  0  0  0  0  0  0  0
    1.2735   -4.4402    3.9448 O   0  0  0  0  0  0  0  0  0  0  0  0
   -0.4465   -5.8608    3.1982 C   0  0  0  0  0  0  0  0  0  0  0  0
   -0.0219   -6.8213    2.8645 H   0  0  0  0  0  0  0  0  0  0  0  0
   -0.7314   -6.0185    4.2509 H   0  0  0  0  0  0  0  0  0  0  0  0
   -1.3983   -5.7596    2.6527 H   0  0  0  0  0  0  0  0  0  0  0  0
    0.4252   -4.0886    1.8040 N   0  0  0  0  0  0  0  0  0  0  0  0
    1.2532   -2.9707    1.4349 C   0  0  2  0  0  0  0  0  0  0  0  0
    0.3395   -1.8293    1.0083 C   0  0  0  0  0  0  0  0  0  0  0  0
   -0.8136   -2.0027    0.6194 O   0  0  0  0  0  0  0  0  0  0  0  0
    2.2176   -3.3411    0.3189 C   0  0  0  0  0  0  0  0  0  0  0  0
   -0.2574   -4.4279    1.1287 H   0  0  0  0  0  0  0  0  0  0  0  0
    1.8087   -2.6785    2.3327 H   0  0  0  0  0  0  0  0  0  0  0  0
    1.6793   -3.6366   -0.5890 H   0  0  0  0  0  0  0  0  0  0  0  0
    2.8662   -2.4980    0.0589 H   0  0  0  0  0  0  0  0  0  0  0  0
    2.8538   -4.1816    0.6166 H   0  0  0  0  0  0  0  0  0  0  0  0
    0.9758   -0.5952    1.0708 N   0  0  0  0  0  0  0  0  0  0  0  0
    0.3258    0.6374    0.7059 C   0  0  2  0  0  0  0  0  0  0  0  0
   -0.0940    0.5193   -0.7555 C   0  0  0  0  0  0  0  0  0  0  0  0
   -0.6041   -0.4954   -1.2259 O   0  0  0  0  0  0  0  0  0  0  0  0
    1.2435    1.8502    0.9013 C   0  0  0  0  0  0  0  0  0  0  0  0
    1.5763    2.1324    2.3658 C   0  0  0  0  0  0  0  0  0  0  0  0
    2.5098    3.3182    2.6309 C   0  0  0  0  0  0  0  0  0  0  0  0
    3.0030    3.8353    1.5873 O   0  5  0  0  0  0  0  0  0  0  0  0
    2.6664    3.6483    3.8386 O   0  0  0  0  0  0  0  0  0  0  0  0
    1.9288   -0.5463    1.4242 H   0  0  0  0  0  0  0  0  0  0  0  0
   -0.5742    0.7133    1.3257 H   0  0  0  0  0  0  0  0  0  0  0  0
    0.7883    2.7416    0.4521 H   0  0  0  0  0  0  0  0  0  0  0  0
    2.1834    1.6852    0.3578 H   0  0  0  0  0  0  0  0  0  0  0  0
    0.6522    2.2679    2.9402 H   0  0  0  0  0  0  0  0  0  0  0  0
    2.0760    1.2489    2.7833 H   0  0  0  0  0  0  0  0  0  0  0  0
    0.2116    1.6630   -1.4800 N   0  0  0  0  0  0  0  0  0  0  0  0
   -0.0716    1.7959   -2.8903 C   0  0  2  0  0  0  0  0  0  0  0  0
    0.7769    2.9374   -3.4348 C   0  0  0  0  0  0  0  0  0  0  0  0
    1.2300    3.8337   -2.7260 O   0  0  0  0  0  0  0  0  0  0  0  0
   -1.5503    2.0527   -3.1359 C   0  0  0  0  0  0  0  0  0  0  0  0
    0.6204    2.4612   -1.0031 H   0  0  0  0  0  0  0  0  0  0  0  0
    0.2323    0.8560   -3.3639 H   0  0  0  0  0  0  0  0  0  0  0  0
   -1.8732    2.9902   -2.6688 H   0  0  0  0  0  0  0  0  0  0  0  0
   -1.7680    2.1247   -4.2067 H   0  0  0  0  0  0  0  0  0  0  0  0
   -2.1608    1.2453   -2.7174 H   0  0  0  0  0  0  0  0  0  0  0  0
    0.9325    2.8612   -4.8118 N   0  0  0  0  0  0  0  0  0  0  0  0
    1.6856    3.8355   -5.5664 C   0  0  0  0  0  0  0  0  0  0  0  0
    0.5380    2.0728   -5.3164 H   0  0  0  0  0  0  0  0  0  0  0  0
    1.0088    4.6248   -5.9255 H   0  0  0  0  0  0  0  0  0  0  0  0
    2.4584    4.2804   -4.9223 H   0  0  0  0  0  0  0  0  0  0  0  0
    2.1636    3.3435   -6.4263 H   0  0  0  0  0  0  0  0  0  0  0  0
  1  3  1  0  0  0  0
  1  7  1  0  0  0  0
  1  2  2  0  0  0  0
 33 34  1  0  0  0  0
 34 42  1  0  0  0  0
 34 35  2  0  0  0  0
  8  9  1  0  0  0  0
  9 17  1  0  0  0  0
  9 10  2  0  0  0  0
 18 19  1  0  0  0  0
 19 32  1  0  0  0  0
 19 20  2  0  0  0  0
 22 23  1  0  0  0  0
 23 24  1  0  0  0  0
 23 25  2  0  0  0  0
 33 36  1  0  0  0  0
  8 11  1  0  0  0  0
 42 43  1  0  0  0  0
 21 22  1  0  0  0  0
 18 21  1  0  0  0  0
 32 33  1  0  0  0  0
  7  8  1  0  0  0  0
 17 18  1  0  0  0  0
  3  4  1  0  0  0  0
  3  5  1  0  0  0  0
  3  6  1  0  0  0  0
 36 39  1  0  0  0  0
 36 40  1  0  0  0  0
 36 41  1  0  0  0  0
 11 14  1  0  0  0  0
 11 15  1  0  0  0  0
 11 16  1  0  0  0  0
 43 45  1  0  0  0  0
 43 46  1  0  0  0  0
 43 47  1  0  0  0  0
 22 30  1  0  0  0  0
 22 31  1  0  0  0  0
 21 28  1  0  0  0  0
 21 29  1  0  0  0  0
 33 38  1  0  0  0  0
  8 13  1  0  0  0  0
 18 27  1  0  0  0  0
 42 44  1  0  0  0  0
  7 12  1  0  0  0  0
 32 37  1  0  0  0  0
 17 26  1  0  0  0  0
M  CHG  1  24  -1
M  END
$$$$

  -OEChem-05262214473D

 47 46  0     1  0  0  0  0  0999 V2000
    0.5093   -4.7265    3.0306 C   0  0  0  0  0  0  0  0  0  0  0  0
    1.2735   -4.4402    3.9448 O   0  0  0  0  0  0  0  0  0  0  0  0
   -0.4465   -5.8608    3.1982 C   0  0  0  0  0  0  0  0  0  0  0  0
   -0.0219   -6.8213    2.8645 H   0  0  0  0  0  0  0  0  0  0  0  0
   -0.7314   -6.0185    4.2509 H   0  0  0  0  0  0  0  0  0  0  0  0
   -1.3983   -5.7596    2.6527 H   0  0  0  0  0  0  0  0  0  0  0  0
    0.4252   -4.0886    1.8040 N   0  0  0  0  0  0  0  0  0  0  0  0
    1.2532   -2.9707    1.4349 C   0  0  2  0  0  0  0  0  0  0  0  0
    0.3395   -1.8293    1.0083 C   0  0  0  0  0  0  0  0  0  0  0  0
   -0.8136   -2.0027    0.6194 O   0  0  0  0  0  0  0  0  0  0  0  0
    2.2176   -3.3411    0.3189 C   0  0  0  0  0  0  0  0  0  0  0  0
   -0.2574   -4.4279    1.1287 H   0  0  0  0  0  0  0  0  0  0  0  0
    1.8087   -2.6785    2.3327 H   0  0  0  0  0  0  0  0  0  0  0  0
    1.6793   -3.6366   -0.5890 H   0  0  0  0  0  0  0  0  0  0  0  0
    2.8662   -2.4980    0.0589 H   0  0  0  0  0  0  0  0  0  0  0  0
    2.8538   -4.1816    0.6166 H   0  0  0  0  0  0  0  0  0  0  0  0
    0.9758   -0.5952    1.0708 N   0  0  0  0  0  0  0  0  0  0  0  0
    0.3258    0.6374    0.7059 C   0  0  2  0  0  0  0  0  0  0  0  0
   -0.0940    0.5193   -0.7555 C   0  0  0  0  0  0  0  0  0  0  0  0
   -0.8353   -0.3696   -1.1697 O   0  0  0  0  0  0  0  0  0  0  0  0
    1.2435    1.8502    0.9013 C   0  0  0  0  0  0  0  0  0  0  0  0
    1.5763    2.1324    2.3658 C   0  0  0  0  0  0  0  0  0  0  0  0
    2.5098    3.3182    2.6309 C   0  0  0  0  0  0  0  0  0  0  0  0
    3.0030    3.8353    1.5873 O   0  5  0  0  0  0  0  0  0  0  0  0
    2.6664    3.6483    3.8386 O   0  0  0  0  0  0  0  0  0  0  0  0
    1.9288   -0.5463    1.4242 H   0  0  0  0  0  0  0  0  0  0  0  0
   -0.5742    0.7133    1.3257 H   0  0  0  0  0  0  0  0  0  0  0  0
    0.7883    2.7416    0.4521 H   0  0  0  0  0  0  0  0  0  0  0  0
    2.1834    1.6852    0.3578 H   0  0  0  0  0  0  0  0  0  0  0  0
    0.6522    2.2679    2.9402 H   0  0  0  0  0  0  0  0  0  0  0  0
    2.0760    1.2489    2.7833 H   0  0  0  0  0  0  0  0  0  0  0  0
    0.4945    1.4952   -1.5477 N   0  0  0  0  0  0  0  0  0  0  0  0
    0.2688    1.5897   -2.9714 C   0  0  2  0  0  0  0  0  0  0  0  0
    1.3806    2.4425   -3.5682 C   0  0  0  0  0  0  0  0  0  0  0  0
    2.0345    3.2487   -2.9098 O   0  0  0  0  0  0  0  0  0  0  0  0
   -1.0967    2.1852   -3.2769 C   0  0  0  0  0  0  0  0  0  0  0  0
    1.0837    2.2005   -1.1151 H   0  0  0  0  0  0  0  0  0  0  0  0
    0.3347    0.5715   -3.3703 H   0  0  0  0  0  0  0  0  0  0  0  0
   -1.1814    3.2054   -2.8849 H   0  0  0  0  0  0  0  0  0  0  0  0
   -1.2778    2.2297   -4.3559 H   0  0  0  0  0  0  0  0  0  0  0  0
   -1.8935    1.5871   -2.8218 H   0  0  0  0  0  0  0  0  0  0  0  0
    1.5275    2.2288   -4.9316 N   0  0  0  0  0  0  0  0  0  0  0  0
    2.5076    2.9283   -5.7292 C   0  0  0  0  0  0  0  0  0  0  0  0
    0.9549    1.5275   -5.3921 H   0  0  0  0  0  0  0  0  0  0  0  0
    2.0524    3.8317   -6.1612 H   0  0  0  0  0  0  0  0  0  0  0  0
    3.3596    3.2145   -5.0951 H   0  0  0  0  0  0  0  0  0  0  0  0
    2.8577    2.2712   -6.5390 H   0  0  0  0  0  0  0  0  0  0  0  0
  1  3  1  0  0  0  0
  1  7  1  0  0  0  0
  1  2  2  0  0  0  0
 33 34  1  0  0  0  0
 34 42  1  0  0  0  0
 34 35  2  0  0  0  0
  8  9  1  0  0  0  0
  9 17  1  0  0  0  0
  9 10  2  0  0  0  0
 18 19  1  0  0  0  0
 19 32  1  0  0  0  0
 19 20  2  0  0  0  0
 22 23  1  0  0  0  0
 23 24  1  0  0  0  0
 23 25  2  0  0  0  0
 33 36  1  0  0  0  0
  8 11  1  0  0  0  0
 42 43  1  0  0  0  0
 21 22  1  0  0  0  0
 18 21  1  0  0  0  0
 32 33  1  0  0  0  0
  7  8  1  0  0  0  0
 17 18  1  0  0  0  0
  3  4  1  0  0  0  0
  3  5  1  0  0  0  0
  3  6  1  0  0  0  0
 36 39  1  0  0  0  0
 36 40  1  0  0  0  0
 36 41  1  0  0  0  0
 11 14  1  0  0  0  0
 11 15  1  0  0  0  0
 11 16  1  0  0  0  0
 43 45  1  0  0  0  0
 43 46  1  0  0  0  0
 43 47  1  0  0  0  0
 22 30  1  0  0  0  0
 22 31  1  0  0  0  0
 21 28  1  0  0  0  0
 21 29  1  0  0  0  0
 33 38  1  0  0  0  0
  8 13  1  0  0  0  0
 18 27  1  0  0  0  0
 42 44  1  0  0  0  0
  7 12  1  0  0  0  0
 32 37  1  0  0  0  0
 17 26  1  0  0  0  0
M  CHG  1  24  -1
M  END
$$$$

  -OEChem-05262214473D

 47 46  0     1  0  0  0  0  0999 V2000
    0.5093   -4.7265    3.0306 C   0  0  0  0  0  0  0  0  0  0  0  0
    1.2735   -4.4402    3.9448 O   0  0  0  0  0  0  0  0  0  0  0  0
   -0.4465   -5.8608    3.1982 C   0  0  0  0  0  0  0  0  0  0  0  0
   -0.0219   -6.8213    2.8645 H   0  0  0  0  0  0  0  0  0  0  0  0
   -0.7314   -6.0185    4.2509 H   0  0  0  0  0  0  0  0  0  0  0  0
   -1.3983   -5.7596    2.6527 H   0  0  0  0  0  0  0  0  0  0  0  0
    0.4252   -4.0886    1.8040 N   0  0  0  0  0  0  0  0  0  0  0  0
    1.2532   -2.9707    1.4349 C   0  0  2  0  0  0  0  0  0  0  0  0
    0.3395   -1.8293    1.0083 C   0  0  0  0  0  0  0  0  0  0  0  0
   -0.8136   -2.0027    0.6194 O   0  0  0  0  0  0  0  0  0  0  0  0
    2.2176   -3.3411    0.3189 C   0  0  0  0  0  0  0  0  0  0  0  0
   -0.2574   -4.4279    1.1287 H   0  0  0  0  0  0  0  0  0  0  0  0
    1.8087   -2.6785    2.3327 H   0  0  0  0  0  0  0  0  0  0  0  0
    1.6793   -3.6366   -0.5890 H   0  0  0  0  0  0  0  0  0  0  0  0
    2.8662   -2.4980    0.0589 H   0  0  0  0  0  0  0  0  0  0  0  0
    2.8538   -4.1816    0.6166 H   0  0  0  0  0  0  0  0  0  0  0  0
    0.9758   -0.5952    1.0708 N   0  0  0  0  0  0  0  0  0  0  0  0
    0.3258    0.6374    0.7059 C   0  0  2  0  0  0  0  0  0  0  0  0
   -0.0940    0.5193   -0.7555 C   0  0  0  0  0  0  0  0  0  0  0  0
   -1.0285   -0.1868   -1.1290 O   0  0  0  0  0  0  0  0  0  0  0  0
    1.2435    1.8502    0.9013 C   0  0  0  0  0  0  0  0  0  0  0  0
    1.5763    2.1324    2.3658 C   0  0  0  0  0  0  0  0  0  0  0  0
    2.5098    3.3182    2.6309 C   0  0  0  0  0  0  0  0  0  0  0  0
    3.0030    3.8353    1.5873 O   0  5  0  0  0  0  0  0  0  0  0  0
    2.6664    3.6483    3.8386 O   0  0  0  0  0  0  0  0  0  0  0  0
    1.9288   -0.5463    1.4242 H   0  0  0  0  0  0  0  0  0  0  0  0
   -0.5742    0.7133    1.3257 H   0  0  0  0  0  0  0  0  0  0  0  0
    0.7883    2.7416    0.4521 H   0  0  0  0  0  0  0  0  0  0  0  0
    2.1834    1.6852    0.3578 H   0  0  0  0  0  0  0  0  0  0  0  0
    0.6522    2.2679    2.9402 H   0  0  0  0  0  0  0  0  0  0  0  0
    2.0760    1.2489    2.7833 H   0  0  0  0  0  0  0  0  0  0  0  0
    0.7274    1.2582   -1.5955 N   0  0  0  0  0  0  0  0  0  0  0  0
    0.5481    1.3002   -3.0283 C   0  0  2  0  0  0  0  0  0  0  0  0
    1.8436    1.8052   -3.6497 C   0  0  0  0  0  0  0  0  0  0  0  0
    2.6702    2.4710   -3.0296 O   0  0  0  0  0  0  0  0  0  0  0  0
   -0.6229    2.1908   -3.4135 C   0  0  0  0  0  0  0  0  0  0  0  0
    1.4687    1.8258   -1.1955 H   0  0  0  0  0  0  0  0  0  0  0  0
    0.3630    0.2709   -3.3541 H   0  0  0  0  0  0  0  0  0  0  0  0
   -0.4555    3.2262   -3.0951 H   0  0  0  0  0  0  0  0  0  0  0  0
   -0.7752    2.1989   -4.4978 H   0  0  0  0  0  0  0  0  0  0  0  0
   -1.5484    1.8435   -2.9416 H   0  0  0  0  0  0  0  0  0  0  0  0
    1.9478    1.4618   -4.9904 N   0  0  0  0  0  0  0  0  0  0  0  0
    3.0798    1.8364   -5.8054 C   0  0  0  0  0  0  0  0  0  0  0  0
    1.2239    0.8919   -5.4180 H   0  0  0  0  0  0  0  0  0  0  0  0
    2.8685    2.7900   -6.3114 H   0  0  0  0  0  0  0  0  0  0  0  0
    3.9692    1.9491   -5.1679 H   0  0  0  0  0  0  0  0  0  0  0  0
    3.2644    1.0553   -6.5576 H   0  0  0  0  0  0  0  0  0  0  0  0
  1  3  1  0  0  0  0
  1  7  1  0  0  0  0
  1  2  2  0  0  0  0
 33 34  1  0  0  0  0
 34 42  1  0  0  0  0
 34 35  2  0  0  0  0
  8  9  1  0  0  0  0
  9 17  1  0  0  0  0
  9 10  2  0  0  0  0
 18 19  1  0  0  0  0
 19 32  1  0  0  0  0
 19 20  2  0  0  0  0
 22 23  1  0  0  0  0
 23 24  1  0  0  0  0
 23 25  2  0  0  0  0
 33 36  1  0  0  0  0
  8 11  1  0  0  0  0
 42 43  1  0  0  0  0
 21 22  1  0  0  0  0
 18 21  1  0  0  0  0
 32 33  1  0  0  0  0
  7  8  1  0  0  0  0
 17 18  1  0  0  0  0
  3  4  1  0  0  0  0
  3  5  1  0  0  0  0
  3  6  1  0  0  0  0
 36 39  1  0  0  0  0
 36 40  1  0  0  0  0
 36 41  1  0  0  0  0
 11 14  1  0  0  0  0
 11 15  1  0  0  0  0
 11 16  1  0  0  0  0
 43 45  1  0  0  0  0
 43 46  1  0  0  0  0
 43 47  1  0  0  0  0
 22 30  1  0  0  0  0
 22 31  1  0  0  0  0
 21 28  1  0  0  0  0
 21 29  1  0  0  0  0
 33 38  1  0  0  0  0
  8 13  1  0  0  0  0
 18 27  1  0  0  0  0
 42 44  1  0  0  0  0
  7 12  1  0  0  0  0
 32 37  1  0  0  0  0
 17 26  1  0  0  0  0
M  CHG  1  24  -1
M  END
$$$$

  -OEChem-05262214473D

 47 46  0     1  0  0  0  0  0999 V2000
    0.5093   -4.7265    3.0306 C   0  0  0  0  0  0  0  0  0  0  0  0
    1.2735   -4.4402    3.9448 O   0  0  0  0  0  0  0  0  0  0  0  0
   -0.4465   -5.8608    3.1982 C   0  0  0  0  0  0  0  0  0  0  0  0
   -0.0219   -6.8213    2.8645 H   0  0  0  0  0  0  0  0  0  0  0  0
   -0.7314   -6.0185    4.2509 H   0  0  0  0  0  0  0  0  0  0  0  0
   -1.3983   -5.7596    2.6527 H   0  0  0  0  0  0  0  0  0  0  0  0
    0.4252   -4.0886    1.8040 N   0  0  0  0  0  0  0  0  0  0  0  0
    1.2532   -2.9707    1.4349 C   0  0  2  0  0  0  0  0  0  0  0  0
    0.3395   -1.8293    1.0083 C   0  0  0  0  0  0  0  0  0  0  0  0
   -0.8136   -2.0027    0.6194 O   0  0  0  0  0  0  0  0  0  0  0  0
    2.2176   -3.3411    0.3189 C   0  0  0  0  0  0  0  0  0  0  0  0
   -0.2574   -4.4279    1.1287 H   0  0  0  0  0  0  0  0  0  0  0  0
    1.8087   -2.6785    2.3327 H   0  0  0  0  0  0  0  0  0  0  0  0
    1.6793   -3.6366   -0.5890 H   0  0  0  0  0  0  0  0  0  0  0  0
    2.8662   -2.4980    0.0589 H   0  0  0  0  0  0  0  0  0  0  0  0
    2.8538   -4.1816    0.6166 H   0  0  0  0  0  0  0  0  0  0  0  0
    0.9758   -0.5952    1.0708 N   0  0  0  0  0  0  0  0  0  0  0  0
    0.3258    0.6374    0.7059 C   0  0  2  0  0  0  0  0  0  0  0  0
   -0.0940    0.5193   -0.7555 C   0  0  0  0  0  0  0  0  0  0  0  0
   -1.1705    0.0407   -1.1065 O   0  0  0  0  0  0  0  0  0  0  0  0
    1.2435    1.8502    0.9013 C   0  0  0  0  0  0  0  0  0  0  0  0
    1.5763    2.1324    2.3658 C   0  0  0  0  0  0  0  0  0  0  0  0
    2.5098    3.3182    2.6309 C   0  0  0  0  0  0  0  0  0  0  0  0
    3.0030    3.8353    1.5873 O   0  5  0  0  0  0  0  0  0  0  0  0
    2.6664    3.6483    3.8386 O   0  0  0  0  0  0  0  0  0  0  0  0
    1.9288   -0.5463    1.4242 H   0  0  0  0  0  0  0  0  0  0  0  0
   -0.5742    0.7133    1.3257 H   0  0  0  0  0  0  0  0  0  0  0  0
    0.7883    2.7416    0.4521 H   0  0  0  0  0  0  0  0  0  0  0  0
    2.1834    1.6852    0.3578 H   0  0  0  0  0  0  0  0  0  0  0  0
    0.6522    2.2679    2.9402 H   0  0  0  0  0  0  0  0  0  0  0  0
    2.0760    1.2489    2.7833 H   0  0  0  0  0  0  0  0  0  0  0  0
    0.8947    0.9681   -1.6201 N   0  0  0  0  0  0  0  0  0  0  0  0
    0.7473    0.9473   -3.0569 C   0  0  2  0  0  0  0  0  0  0  0  0
    2.1344    1.0691   -3.6738 C   0  0  0  0  0  0  0  0  0  0  0  0
    3.0937    1.5536   -3.0771 O   0  0  0  0  0  0  0  0  0  0  0  0
   -0.1611    2.0689   -3.5363 C   0  0  0  0  0  0  0  0  0  0  0  0
    1.7493    1.3627   -1.2386 H   0  0  0  0  0  0  0  0  0  0  0  0
    0.3156   -0.0254   -3.3166 H   0  0  0  0  0  0  0  0  0  0  0  0
    0.2550    3.0513   -3.2851 H   0  0  0  0  0  0  0  0  0  0  0  0
   -0.2946    2.0345   -4.6225 H   0  0  0  0  0  0  0  0  0  0  0  0
   -1.1490    1.9970   -3.0687 H   0  0  0  0  0  0  0  0  0  0  0  0
    2.1648    0.6126   -4.9841 N   0  0  0  0  0  0  0  0  0  0  0  0
    3.3633    0.6345   -5.7897 C   0  0  0  0  0  0  0  0  0  0  0  0
    1.3266    0.2095   -5.3924 H   0  0  0  0  0  0  0  0  0  0  0  0
    3.4014    1.5707   -6.3660 H   0  0  0  0  0  0  0  0  0  0  0  0
    4.2456    0.5704   -5.1359 H   0  0  0  0  0  0  0  0  0  0  0  0
    3.3561   -0.2213   -6.4808 H   0  0  0  0  0  0  0  0  0  0  0  0
  1  3  1  0  0  0  0
  1  7  1  0  0  0  0
  1  2  2  0  0  0  0
 33 34  1  0  0  0  0
 34 42  1  0  0  0  0
 34 35  2  0  0  0  0
  8  9  1  0  0  0  0
  9 17  1  0  0  0  0
  9 10  2  0  0  0  0
 18 19  1  0  0  0  0
 19 32  1  0  0  0  0
 19 20  2  0  0  0  0
 22 23  1  0  0  0  0
 23 24  1  0  0  0  0
 23 25  2  0  0  0  0
 33 36  1  0  0  0  0
  8 11  1  0  0  0  0
 42 43  1  0  0  0  0
 21 22  1  0  0  0  0
 18 21  1  0  0  0  0
 32 33  1  0  0  0  0
  7  8  1  0  0  0  0
 17 18  1  0  0  0  0
  3  4  1  0  0  0  0
  3  5  1  0  0  0  0
  3  6  1  0  0  0  0
 36 39  1  0  0  0  0
 36 40  1  0  0  0  0
 36 41  1  0  0  0  0
 11 14  1  0  0  0  0
 11 15  1  0  0  0  0
 11 16  1  0  0  0  0
 43 45  1  0  0  0  0
 43 46  1  0  0  0  0
 43 47  1  0  0  0  0
 22 30  1  0  0  0  0
 22 31  1  0  0  0  0
 21 28  1  0  0  0  0
 21 29  1  0  0  0  0
 33 38  1  0  0  0  0
  8 13  1  0  0  0  0
 18 27  1  0  0  0  0
 42 44  1  0  0  0  0
  7 12  1  0  0  0  0
 32 37  1  0  0  0  0
 17 26  1  0  0  0  0
M  CHG  1  24  -1
M  END
$$$$

  -OEChem-05262214473D

 47 46  0     1  0  0  0  0  0999 V2000
    0.5093   -4.7265    3.0306 C   0  0  0  0  0  0  0  0  0  0  0  0
    1.2735   -4.4402    3.9448 O   0  0  0  0  0  0  0  0  0  0  0  0
   -0.4465   -5.8608    3.1982 C   0  0  0  0  0  0  0  0  0  0  0  0
   -0.0219   -6.8213    2.8645 H   0  0  0  0  0  0  0  0  0  0  0  0
   -0.7314   -6.0185    4.2509 H   0  0  0  0  0  0  0  0  0  0  0  0
   -1.3983   -5.7596    2.6527 H   0  0  0  0  0  0  0  0  0  0  0  0
    0.4252   -4.0886    1.8040 N   0  0  0  0  0  0  0  0  0  0  0  0
    1.2532   -2.9707    1.4349 C   0  0  2  0  0  0  0  0  0  0  0  0
    0.3395   -1.8293    1.0083 C   0  0  0  0  0  0  0  0  0  0  0  0
   -0.8136   -2.0027    0.6194 O   0  0  0  0  0  0  0  0  0  0  0  0
    2.2176   -3.3411    0.3189 C   0  0  0  0  0  0  0  0  0  0  0  0
   -0.2574   -4.4279    1.1287 H   0  0  0  0  0  0  0  0  0  0  0  0
    1.8087   -2.6785    2.3327 H   0  0  0  0  0  0  0  0  0  0  0  0
    1.6793   -3.6366   -0.5890 H   0  0  0  0  0  0  0  0  0  0  0  0
    2.8662   -2.4980    0.0589 H   0  0  0  0  0  0  0  0  0  0  0  0
    2.8538   -4.1816    0.6166 H   0  0  0  0  0  0  0  0  0  0  0  0
    0.9758   -0.5952    1.0708 N   0  0  0  0  0  0  0  0  0  0  0  0
    0.3258    0.6374    0.7059 C   0  0  2  0  0  0  0  0  0  0  0  0
   -0.0940    0.5193   -0.7555 C   0  0  0  0  0  0  0  0  0  0  0  0
   -1.2518    0.2972   -1.1039 O   0  0  0  0  0  0  0  0  0  0  0  0
    1.2435    1.8502    0.9013 C   0  0  0  0  0  0  0  0  0  0  0  0
    1.5763    2.1324    2.3658 C   0  0  0  0  0  0  0  0  0  0  0  0
    2.5098    3.3182    2.6309 C   0  0  0  0  0  0  0  0  0  0  0  0
    3.0030    3.8353    1.5873 O   0  5  0  0  0  0  0  0  0  0  0  0
    2.6664    3.6483    3.8386 O   0  0  0  0  0  0  0  0  0  0  0  0
    1.9288   -0.5463    1.4242 H   0  0  0  0  0  0  0  0  0  0  0  0
   -0.5742    0.7133    1.3257 H   0  0  0  0  0  0  0  0  0  0  0  0
    0.7883    2.7416    0.4521 H   0  0  0  0  0  0  0  0  0  0  0  0
    2.1834    1.6852    0.3578 H   0  0  0  0  0  0  0  0  0  0  0  0
    0.6522    2.2679    2.9402 H   0  0  0  0  0  0  0  0  0  0  0  0
    2.0760    1.2489    2.7833 H   0  0  0  0  0  0  0  0  0  0  0  0
    0.9847    0.6446   -1.6198 N   0  0  0  0  0  0  0  0  0  0  0  0
    0.8527    0.5550   -3.0555 C   0  0  2  0  0  0  0  0  0  0  0  0
    2.2332    0.2841   -3.6388 C   0  0  0  0  0  0  0  0  0  0  0  0
    3.2762    0.5590   -3.0492 O   0  0  0  0  0  0  0  0  0  0  0  0
    0.2572    1.8279   -3.6369 C   0  0  0  0  0  0  0  0  0  0  0  0
    1.9064    0.8426   -1.2417 H   0  0  0  0  0  0  0  0  0  0  0  0
    0.1955   -0.2972   -3.2601 H   0  0  0  0  0  0  0  0  0  0  0  0
    0.9018    2.6927   -3.4419 H   0  0  0  0  0  0  0  0  0  0  0  0
    0.1313    1.7475   -4.7217 H   0  0  0  0  0  0  0  0  0  0  0  0
   -0.7227    2.0372   -3.1945 H   0  0  0  0  0  0  0  0  0  0  0  0
    2.1636   -0.2611   -4.9132 N   0  0  0  0  0  0  0  0  0  0  0  0
    3.3387   -0.5957   -5.6833 C   0  0  0  0  0  0  0  0  0  0  0  0
    1.2560   -0.4734   -5.3169 H   0  0  0  0  0  0  0  0  0  0  0  0
    3.6148    0.2568   -6.3212 H   0  0  0  0  0  0  0  0  0  0  0  0
    4.1701   -0.8276   -5.0013 H   0  0  0  0  0  0  0  0  0  0  0  0
    3.1265   -1.4717   -6.3138 H   0  0  0  0  0  0  0  0  0  0  0  0
  1  3  1  0  0  0  0
  1  7  1  0  0  0  0
  1  2  2  0  0  0  0
 33 34  1  0  0  0  0
 34 42  1  0  0  0  0
 34 35  2  0  0  0  0
  8  9  1  0  0  0  0
  9 17  1  0  0  0  0
  9 10  2  0  0  0  0
 18 19  1  0  0  0  0
 19 32  1  0  0  0  0
 19 20  2  0  0  0  0
 22 23  1  0  0  0  0
 23 24  1  0  0  0  0
 23 25  2  0  0  0  0
 33 36  1  0  0  0  0
  8 11  1  0  0  0  0
 42 43  1  0  0  0  0
 21 22  1  0  0  0  0
 18 21  1  0  0  0  0
 32 33  1  0  0  0  0
  7  8  1  0  0  0  0
 17 18  1  0  0  0  0
  3  4  1  0  0  0  0
  3  5  1  0  0  0  0
  3  6  1  0  0  0  0
 36 39  1  0  0  0  0
 36 40  1  0  0  0  0
 36 41  1  0  0  0  0
 11 14  1  0  0  0  0
 11 15  1  0  0  0  0
 11 16  1  0  0  0  0
 43 45  1  0  0  0  0
 43 46  1  0  0  0  0
 43 47  1  0  0  0  0
 22 30  1  0  0  0  0
 22 31  1  0  0  0  0
 21 28  1  0  0  0  0
 21 29  1  0  0  0  0
 33 38  1  0  0  0  0
  8 13  1  0  0  0  0
 18 27  1  0  0  0  0
 42 44  1  0  0  0  0
  7 12  1  0  0  0  0
 32 37  1  0  0  0  0
 17 26  1  0  0  0  0
M  CHG  1  24  -1
M  END
$$$$

  -OEChem-05262214473D

 47 46  0     1  0  0  0  0  0999 V2000
    0.5093   -4.7265    3.0306 C   0  0  0  0  0  0  0  0  0  0  0  0
    1.2735   -4.4402    3.9448 O   0  0  0  0  0  0  0  0  0  0  0  0
   -0.4465   -5.8608    3.1982 C   0  0  0  0  0  0  0  0  0  0  0  0
   -0.0219   -6.8213    2.8645 H   0  0  0  0  0  0  0  0  0  0  0  0
   -0.7314   -6.0185    4.2509 H   0  0  0  0  0  0  0  0  0  0  0  0
   -1.3983   -5.7596    2.6527 H   0  0  0  0  0  0  0  0  0  0  0  0
    0.4252   -4.0886    1.8040 N   0  0  0  0  0  0  0  0  0  0  0  0
    1.2532   -2.9707    1.4349 C   0  0  2  0  0  0  0  0  0  0  0  0
    0.3395   -1.8293    1.0083 C   0  0  0  0  0  0  0  0  0  0  0  0
   -0.8136   -2.0027    0.6194 O   0  0  0  0  0  0  0  0  0  0  0  0
    2.2176   -3.3411    0.3189 C   0  0  0  0  0  0  0  0  0  0  0  0
   -0.2574   -4.4279    1.1287 H   0  0  0  0  0  0  0  0  0  0  0  0
    1.8087   -2.6785    2.3327 H   0  0  0  0  0  0  0  0  0  0  0  0
    1.6793   -3.6366   -0.5890 H   0  0  0  0  0  0  0  0  0  0  0  0
    2.8662   -2.4980    0.0589 H   0  0  0  0  0  0  0  0  0  0  0  0
    2.8538   -4.1816    0.6166 H   0  0  0  0  0  0  0  0  0  0  0  0
    0.9758   -0.5952    1.0708 N   0  0  0  0  0  0  0  0  0  0  0  0
    0.3258    0.6374    0.7059 C   0  0  2  0  0  0  0  0  0  0  0  0
   -0.0940    0.5193   -0.7555 C   0  0  0  0  0  0  0  0  0  0  0  0
   -1.2667    0.5653   -1.1213 O   0  0  0  0  0  0  0  0  0  0  0  0
    1.2435    1.8502    0.9013 C   0  0  0  0  0  0  0  0  0  0  0  0
    1.5763    2.1324    2.3658 C   0  0  0  0  0  0  0  0  0  0  0  0
    2.5098    3.3182    2.6309 C   0  0  0  0  0  0  0  0  0  0  0  0
    3.0030    3.8353    1.5873 O   0  5  0  0  0  0  0  0  0  0  0  0
    2.6664    3.6483    3.8386 O   0  0  0  0  0  0  0  0  0  0  0  0
    1.9288   -0.5463    1.4242 H   0  0  0  0  0  0  0  0  0  0  0  0
   -0.5742    0.7133    1.3257 H   0  0  0  0  0  0  0  0  0  0  0  0
    0.7883    2.7416    0.4521 H   0  0  0  0  0  0  0  0  0  0  0  0
    2.1834    1.6852    0.3578 H   0  0  0  0  0  0  0  0  0  0  0  0
    0.6522    2.2679    2.9402 H   0  0  0  0  0  0  0  0  0  0  0  0
    2.0760    1.2489    2.7833 H   0  0  0  0  0  0  0  0  0  0  0  0
    0.9915    0.3099   -1.5947 N   0  0  0  0  0  0  0  0  0  0  0  0
    0.8572    0.1501   -3.0241 C   0  0  2  0  0  0  0  0  0  0  0  0
    2.1333   -0.4961   -3.5470 C   0  0  0  0  0  0  0  0  0  0  0  0
    3.2053   -0.4450   -2.9477 O   0  0  0  0  0  0  0  0  0  0  0  0
    0.6035    1.4841   -3.7086 C   0  0  0  0  0  0  0  0  0  0  0  0
    1.9292    0.3011   -1.2045 H   0  0  0  0  0  0  0  0  0  0  0  0
    0.0109   -0.5259   -3.1886 H   0  0  0  0  0  0  0  0  0  0  0  0
    1.4407    2.1747   -3.5548 H   0  0  0  0  0  0  0  0  0  0  0  0
    0.4735    1.3576   -4.7885 H   0  0  0  0  0  0  0  0  0  0  0  0
   -0.2984    1.9613   -3.3102 H   0  0  0  0  0  0  0  0  0  0  0  0
    1.9443   -1.0996   -4.7824 N   0  0  0  0  0  0  0  0  0  0  0  0
    3.0077   -1.7703   -5.4933 C   0  0  0  0  0  0  0  0  0  0  0  0
    1.0170   -1.1101   -5.1968 H   0  0  0  0  0  0  0  0  0  0  0  0
    3.4942   -1.0620   -6.1800 H   0  0  0  0  0  0  0  0  0  0  0  0
    3.7477   -2.1497   -4.7732 H   0  0  0  0  0  0  0  0  0  0  0  0
    2.5912   -2.6107   -6.0681 H   0  0  0  0  0  0  0  0  0  0  0  0
  1  3  1  0  0  0  0
  1  7  1  0  0  0  0
  1  2  2  0  0  0  0
 33 34  1  0  0  0  0
 34 42  1  0  0  0  0
 34 35  2  0  0  0  0
  8  9  1  0  0  0  0
  9 17  1  0  0  0  0
  9 10  2  0  0  0  0
 18 19  1  0  0  0  0
 19 32  1  0  0  0  0
 19 20  2  0  0  0  0
 22 23  1  0  0  0  0
 23 24  1  0  0  0  0
 23 25  2  0  0  0  0
 33 36  1  0  0  0  0
  8 11  1  0  0  0  0
 42 43  1  0  0  0  0
 21 22  1  0  0  0  0
 18 21  1  0  0  0  0
 32 33  1  0  0  0  0
  7  8  1  0  0  0  0
 17 18  1  0  0  0  0
  3  4  1  0  0  0  0
  3  5  1  0  0  0  0
  3  6  1  0  0  0  0
 36 39  1  0  0  0  0
 36 40  1  0  0  0  0
 36 41  1  0  0  0  0
 11 14  1  0  0  0  0
 11 15  1  0  0  0  0
 11 16  1  0  0  0  0
 43 45  1  0  0  0  0
 43 46  1  0  0  0  0
 43 47  1  0  0  0  0
 22 30  1  0  0  0  0
 22 31  1  0  0  0  0
 21 28  1  0  0  0  0
 21 29  1  0  0  0  0
 33 38  1  0  0  0  0
  8 13  1  0  0  0  0
 18 27  1  0  0  0  0
 42 44  1  0  0  0  0
  7 12  1  0  0  0  0
 32 37  1  0  0  0  0
 17 26  1  0  0  0  0
M  CHG  1  24  -1
M  END
$$$$

  -OEChem-05262214473D

 47 46  0     1  0  0  0  0  0999 V2000
    0.5093   -4.7265    3.0306 C   0  0  0  0  0  0  0  0  0  0  0  0
    1.2735   -4.4402    3.9448 O   0  0  0  0  0  0  0  0  0  0  0  0
   -0.4465   -5.8608    3.1982 C   0  0  0  0  0  0  0  0  0  0  0  0
   -0.0219   -6.8213    2.8645 H   0  0  0  0  0  0  0  0  0  0  0  0
   -0.7314   -6.0185    4.2509 H   0  0  0  0  0  0  0  0  0  0  0  0
   -1.3983   -5.7596    2.6527 H   0  0  0  0  0  0  0  0  0  0  0  0
    0.4252   -4.0886    1.8040 N   0  0  0  0  0  0  0  0  0  0  0  0
    1.2532   -2.9707    1.4349 C   0  0  2  0  0  0  0  0  0  0  0  0
    0.3395   -1.8293    1.0083 C   0  0  0  0  0  0  0  0  0  0  0  0
   -0.8136   -2.0027    0.6194 O   0  0  0  0  0  0  0  0  0  0  0  0
    2.2176   -3.3411    0.3189 C   0  0  0  0  0  0  0  0  0  0  0  0
   -0.2574   -4.4279    1.1287 H   0  0  0  0  0  0  0  0  0  0  0  0
    1.8087   -2.6785    2.3327 H   0  0  0  0  0  0  0  0  0  0  0  0
    1.6793   -3.6366   -0.5890 H   0  0  0  0  0  0  0  0  0  0  0  0
    2.8662   -2.4980    0.0589 H   0  0  0  0  0  0  0  0  0  0  0  0
    2.8538   -4.1816    0.6166 H   0  0  0  0  0  0  0  0  0  0  0  0
    0.9758   -0.5952    1.0708 N   0  0  0  0  0  0  0  0  0  0  0  0
    0.3258    0.6374    0.7059 C   0  0  2  0  0  0  0  0  0  0  0  0
   -0.0940    0.5193   -0.7555 C   0  0  0  0  0  0  0  0  0  0  0  0
   -1.2143    0.8268   -1.1575 O   0  0  0  0  0  0  0  0  0  0  0  0
    1.2435    1.8502    0.9013 C   0  0  0  0  0  0  0  0  0  0  0  0
    1.5763    2.1324    2.3658 C   0  0  0  0  0  0  0  0  0  0  0  0
    2.5098    3.3182    2.6309 C   0  0  0  0  0  0  0  0  0  0  0  0
    3.0030    3.8353    1.5873 O   0  5  0  0  0  0  0  0  0  0  0  0
    2.6664    3.6483    3.8386 O   0  0  0  0  0  0  0  0  0  0  0  0
    1.9288   -0.5463    1.4242 H   0  0  0  0  0  0  0  0  0  0  0  0
   -0.5742    0.7133    1.3257 H   0  0  0  0  0  0  0  0  0  0  0  0
    0.7883    2.7416    0.4521 H   0  0  0  0  0  0  0  0  0  0  0  0
    2.1834    1.6852    0.3578 H   0  0  0  0  0  0  0  0  0  0  0  0
    0.6522    2.2679    2.9402 H   0  0  0  0  0  0  0  0  0  0  0  0
    2.0760    1.2489    2.7833 H   0  0  0  0  0  0  0  0  0  0  0  0
    0.9145   -0.0134   -1.5465 N   0  0  0  0  0  0  0  0  0  0  0  0
    0.7604   -0.2400   -2.9648 C   0  0  2  0  0  0  0  0  0  0  0  0
    1.8414   -1.2184   -3.4048 C   0  0  0  0  0  0  0  0  0  0  0  0
    2.8858   -1.3899   -2.7796 O   0  0  0  0  0  0  0  0  0  0  0  0
    0.8541    1.0611   -3.7464 C   0  0  0  0  0  0  0  0  0  0  0  0
    1.8162   -0.2249   -1.1296 H   0  0  0  0  0  0  0  0  0  0  0  0
   -0.2254   -0.6959   -3.1070 H   0  0  0  0  0  0  0  0  0  0  0  0
    1.8351    1.5326   -3.6162 H   0  0  0  0  0  0  0  0  0  0  0  0
    0.7087    0.8914   -4.8184 H   0  0  0  0  0  0  0  0  0  0  0  0
    0.0950    1.7746   -3.4081 H   0  0  0  0  0  0  0  0  0  0  0  0
    1.5220   -1.8459   -4.6008 N   0  0  0  0  0  0  0  0  0  0  0  0
    2.3929   -2.8093   -5.2327 C   0  0  0  0  0  0  0  0  0  0  0  0
    0.6258   -1.6572   -5.0403 H   0  0  0  0  0  0  0  0  0  0  0  0
    3.0478   -2.2959   -5.9521 H   0  0  0  0  0  0  0  0  0  0  0  0
    3.0072   -3.3056   -4.4671 H   0  0  0  0  0  0  0  0  0  0  0  0
    1.7868   -3.5606   -5.7603 H   0  0  0  0  0  0  0  0  0  0  0  0
  1  3  1  0  0  0  0
  1  7  1  0  0  0  0
  1  2  2  0  0  0  0
 33 34  1  0  0  0  0
 34 42  1  0  0  0  0
 34 35  2  0  0  0  0
  8  9  1  0  0  0  0
  9 17  1  0  0  0  0
  9 10  2  0  0  0  0
 18 19  1  0  0  0  0
 19 32  1  0  0  0  0
 19 20  2  0  0  0  0
 22 23  1  0  0  0  0
 23 24  1  0  0  0  0
 23 25  2  0  0  0  0
 33 36  1  0  0  0  0
  8 11  1  0  0  0  0
 42 43  1  0  0  0  0
 21 22  1  0  0  0  0
 18 21  1  0  0  0  0
 32 33  1  0  0  0  0
  7  8  1  0  0  0  0
 17 18  1  0  0  0  0
  3  4  1  0  0  0  0
  3  5  1  0  0  0  0
  3  6  1  0  0  0  0
 36 39  1  0  0  0  0
 36 40  1  0  0  0  0
 36 41  1  0  0  0  0
 11 14  1  0  0  0  0
 11 15  1  0  0  0  0
 11 16  1  0  0  0  0
 43 45  1  0  0  0  0
 43 46  1  0  0  0  0
 43 47  1  0  0  0  0
 22 30  1  0  0  0  0
 22 31  1  0  0  0  0
 21 28  1  0  0  0  0
 21 29  1  0  0  0  0
 33 38  1  0  0  0  0
  8 13  1  0  0  0  0
 18 27  1  0  0  0  0
 42 44  1  0  0  0  0
  7 12  1  0  0  0  0
 32 37  1  0  0  0  0
 17 26  1  0  0  0  0
M  CHG  1  24  -1
M  END
$$$$

  -OEChem-05262214473D

 47 46  0     1  0  0  0  0  0999 V2000
    0.5093   -4.7265    3.0306 C   0  0  0  0  0  0  0  0  0  0  0  0
    1.2735   -4.4402    3.9448 O   0  0  0  0  0  0  0  0  0  0  0  0
   -0.4465   -5.8608    3.1982 C   0  0  0  0  0  0  0  0  0  0  0  0
   -0.0219   -6.8213    2.8645 H   0  0  0  0  0  0  0  0  0  0  0  0
   -0.7314   -6.0185    4.2509 H   0  0  0  0  0  0  0  0  0  0  0  0
   -1.3983   -5.7596    2.6527 H   0  0  0  0  0  0  0  0  0  0  0  0
    0.4252   -4.0886    1.8040 N   0  0  0  0  0  0  0  0  0  0  0  0
    1.2532   -2.9707    1.4349 C   0  0  2  0  0  0  0  0  0  0  0  0
    0.3395   -1.8293    1.0083 C   0  0  0  0  0  0  0  0  0  0  0  0
   -0.8136   -2.0027    0.6194 O   0  0  0  0  0  0  0  0  0  0  0  0
    2.2176   -3.3411    0.3189 C   0  0  0  0  0  0  0  0  0  0  0  0
   -0.2574   -4.4279    1.1287 H   0  0  0  0  0  0  0  0  0  0  0  0
    1.8087   -2.6785    2.3327 H   0  0  0  0  0  0  0  0  0  0  0  0
    1.6793   -3.6366   -0.5890 H   0  0  0  0  0  0  0  0  0  0  0  0
    2.8662   -2.4980    0.0589 H   0  0  0  0  0  0  0  0  0  0  0  0
    2.8538   -4.1816    0.6166 H   0  0  0  0  0  0  0  0  0  0  0  0
    0.9758   -0.5952    1.0708 N   0  0  0  0  0  0  0  0  0  0  0  0
    0.3258    0.6374    0.7059 C   0  0  2  0  0  0  0  0  0  0  0  0
   -0.0940    0.5193   -0.7555 C   0  0  0  0  0  0  0  0  0  0  0  0
   -1.0981    1.0638   -1.2100 O   0  0  0  0  0  0  0  0  0  0  0  0
    1.2435    1.8502    0.9013 C   0  0  0  0  0  0  0  0  0  0  0  0
    1.5763    2.1324    2.3658 C   0  0  0  0  0  0  0  0  0  0  0  0
    2.5098    3.3182    2.6309 C   0  0  0  0  0  0  0  0  0  0  0  0
    3.0030    3.8353    1.5873 O   0  5  0  0  0  0  0  0  0  0  0  0
    2.6664    3.6483    3.8386 O   0  0  0  0  0  0  0  0  0  0  0  0
    1.9288   -0.5463    1.4242 H   0  0  0  0  0  0  0  0  0  0  0  0
   -0.5742    0.7133    1.3257 H   0  0  0  0  0  0  0  0  0  0  0  0
    0.7883    2.7416    0.4521 H   0  0  0  0  0  0  0  0  0  0  0  0
    2.1834    1.6852    0.3578 H   0  0  0  0  0  0  0  0  0  0  0  0
    0.6522    2.2679    2.9402 H   0  0  0  0  0  0  0  0  0  0  0  0
    2.0760    1.2489    2.7833 H   0  0  0  0  0  0  0  0  0  0  0  0
    0.7589   -0.3030   -1.4784 N   0  0  0  0  0  0  0  0  0  0  0  0
    0.5691   -0.5885   -2.8817 C   0  0  2  0  0  0  0  0  0  0  0  0
    1.3775   -1.8336   -3.2219 C   0  0  0  0  0  0  0  0  0  0  0  0
    2.3394   -2.2114   -2.5563 O   0  0  0  0  0  0  0  0  0  0  0  0
    0.9921    0.5877   -3.7478 C   0  0  0  0  0  0  0  0  0  0  0  0
    1.5750   -0.6997   -1.0220 H   0  0  0  0  0  0  0  0  0  0  0  0
   -0.4976   -0.7957   -3.0208 H   0  0  0  0  0  0  0  0  0  0  0  0
    2.0580    0.8102   -3.6219 H   0  0  0  0  0  0  0  0  0  0  0  0
    0.8209    0.3806   -4.8093 H   0  0  0  0  0  0  0  0  0  0  0  0
    0.4306    1.4897   -3.4815 H   0  0  0  0  0  0  0  0  0  0  0  0
    0.9252   -2.4490   -4.3807 N   0  0  0  0  0  0  0  0  0  0  0  0
    1.5361   -3.6418   -4.9194 C   0  0  0  0  0  0  0  0  0  0  0  0
    0.1091   -2.0776   -4.8579 H   0  0  0  0  0  0  0  0  0  0  0  0
    2.3061   -3.3608   -5.6530 H   0  0  0  0  0  0  0  0  0  0  0  0
    1.9991   -4.2167   -4.1039 H   0  0  0  0  0  0  0  0  0  0  0  0
    0.7681   -4.2567   -5.4114 H   0  0  0  0  0  0  0  0  0  0  0  0
  1  3  1  0  0  0  0
  1  7  1  0  0  0  0
  1  2  2  0  0  0  0
 33 34  1  0  0  0  0
 34 42  1  0  0  0  0
 34 35  2  0  0  0  0
  8  9  1  0  0  0  0
  9 17  1  0  0  0  0
  9 10  2  0  0  0  0
 18 19  1  0  0  0  0
 19 32  1  0  0  0  0
 19 20  2  0  0  0  0
 22 23  1  0  0  0  0
 23 24  1  0  0  0  0
 23 25  2  0  0  0  0
 33 36  1  0  0  0  0
  8 11  1  0  0  0  0
 42 43  1  0  0  0  0
 21 22  1  0  0  0  0
 18 21  1  0  0  0  0
 32 33  1  0  0  0  0
  7  8  1  0  0  0  0
 17 18  1  0  0  0  0
  3  4  1  0  0  0  0
  3  5  1  0  0  0  0
  3  6  1  0  0  0  0
 36 39  1  0  0  0  0
 36 40  1  0  0  0  0
 36 41  1  0  0  0  0
 11 14  1  0  0  0  0
 11 15  1  0  0  0  0
 11 16  1  0  0  0  0
 43 45  1  0  0  0  0
 43 46  1  0  0  0  0
 43 47  1  0  0  0  0
 22 30  1  0  0  0  0
 22 31  1  0  0  0  0
 21 28  1  0  0  0  0
 21 29  1  0  0  0  0
 33 38  1  0  0  0  0
  8 13  1  0  0  0  0
 18 27  1  0  0  0  0
 42 44  1  0  0  0  0
  7 12  1  0  0  0  0
 32 37  1  0  0  0  0
 17 26  1  0  0  0  0
M  CHG  1  24  -1
M  END
$$$$

  -OEChem-05262214473D

 47 46  0     1  0  0  0  0  0999 V2000
    0.5093   -4.7265    3.0306 C   0  0  0  0  0  0  0  0  0  0  0  0
    1.2735   -4.4402    3.9448 O   0  0  0  0  0  0  0  0  0  0  0  0
   -0.4465   -5.8608    3.1982 C   0  0  0  0  0  0  0  0  0  0  0  0
   -0.0219   -6.8213    2.8645 H   0  0  0  0  0  0  0  0  0  0  0  0
   -0.7314   -6.0185    4.2509 H   0  0  0  0  0  0  0  0  0  0  0  0
   -1.3983   -5.7596    2.6527 H   0  0  0  0  0  0  0  0  0  0  0  0
    0.4252   -4.0886    1.8040 N   0  0  0  0  0  0  0  0  0  0  0  0
    1.2532   -2.9707    1.4349 C   0  0  2  0  0  0  0  0  0  0  0  0
    0.3395   -1.8293    1.0083 C   0  0  0  0  0  0  0  0  0  0  0  0
   -0.8136   -2.0027    0.6194 O   0  0  0  0  0  0  0  0  0  0  0  0
    2.2176   -3.3411    0.3189 C   0  0  0  0  0  0  0  0  0  0  0  0
   -0.2574   -4.4279    1.1287 H   0  0  0  0  0  0  0  0  0  0  0  0
    1.8087   -2.6785    2.3327 H   0  0  0  0  0  0  0  0  0  0  0  0
    1.6793   -3.6366   -0.5890 H   0  0  0  0  0  0  0  0  0  0  0  0
    2.8662   -2.4980    0.0589 H   0  0  0  0  0  0  0  0  0  0  0  0
    2.8538   -4.1816    0.6166 H   0  0  0  0  0  0  0  0  0  0  0  0
    0.9758   -0.5952    1.0708 N   0  0  0  0  0  0  0  0  0  0  0  0
    0.3258    0.6374    0.7059 C   0  0  2  0  0  0  0  0  0  0  0  0
   -0.0940    0.5193   -0.7555 C   0  0  0  0  0  0  0  0  0  0  0  0
   -0.9260    1.2601   -1.2753 O   0  0  0  0  0  0  0  0  0  0  0  0
    1.2435    1.8502    0.9013 C   0  0  0  0  0  0  0  0  0  0  0  0
    1.5763    2.1324    2.3658 C   0  0  0  0  0  0  0  0  0  0  0  0
    2.5098    3.3182    2.6309 C   0  0  0  0  0  0  0  0  0  0  0  0
    3.0030    3.8353    1.5873 O   0  5  0  0  0  0  0  0  0  0  0  0
    2.6664    3.6483    3.8386 O   0  0  0  0  0  0  0  0  0  0  0  0
    1.9288   -0.5463    1.4242 H   0  0  0  0  0  0  0  0  0  0  0  0
   -0.5742    0.7133    1.3257 H   0  0  0  0  0  0  0  0  0  0  0  0
    0.7883    2.7416    0.4521 H   0  0  0  0  0  0  0  0  0  0  0  0
    2.1834    1.6852    0.3578 H   0  0  0  0  0  0  0  0  0  0  0  0
    0.6522    2.2679    2.9402 H   0  0  0  0  0  0  0  0  0  0  0  0
    2.0760    1.2489    2.7833 H   0  0  0  0  0  0  0  0  0  0  0  0
    0.5355   -0.5394   -1.3951 N   0  0  0  0  0  0  0  0  0  0  0  0
    0.2961   -0.8718   -2.7804 C   0  0  2  0  0  0  0  0  0  0  0  0
    0.7732   -2.2997   -3.0106 C   0  0  0  0  0  0  0  0  0  0  0  0
    1.6034   -2.8535   -2.2930 O   0  0  0  0  0  0  0  0  0  0  0  0
    1.0080    0.0961   -3.7127 C   0  0  0  0  0  0  0  0  0  0  0  0
    1.2222   -1.0908   -0.8890 H   0  0  0  0  0  0  0  0  0  0  0  0
   -0.7869   -0.8185   -2.9358 H   0  0  0  0  0  0  0  0  0  0  0  0
    2.0943    0.0567   -3.5714 H   0  0  0  0  0  0  0  0  0  0  0  0
    0.8024   -0.1400   -4.7620 H   0  0  0  0  0  0  0  0  0  0  0  0
    0.6856    1.1260   -3.5253 H   0  0  0  0  0  0  0  0  0  0  0  0
    0.1949   -2.8679   -4.1371 N   0  0  0  0  0  0  0  0  0  0  0  0
    0.4957   -4.2111   -4.5746 C   0  0  0  0  0  0  0  0  0  0  0  0
   -0.4979   -2.3425   -4.6621 H   0  0  0  0  0  0  0  0  0  0  0  0
    1.3195   -4.1841   -5.3031 H   0  0  0  0  0  0  0  0  0  0  0  0
    0.7922   -4.8209   -3.7084 H   0  0  0  0  0  0  0  0  0  0  0  0
   -0.3956   -4.6515   -5.0453 H   0  0  0  0  0  0  0  0  0  0  0  0
  1  3  1  0  0  0  0
  1  7  1  0  0  0  0
  1  2  2  0  0  0  0
 33 34  1  0  0  0  0
 34 42  1  0  0  0  0
 34 35  2  0  0  0  0
  8  9  1  0  0  0  0
  9 17  1  0  0  0  0
  9 10  2  0  0  0  0
 18 19  1  0  0  0  0
 19 32  1  0  0  0  0
 19 20  2  0  0  0  0
 22 23  1  0  0  0  0
 23 24  1  0  0  0  0
 23 25  2  0  0  0  0
 33 36  1  0  0  0  0
  8 11  1  0  0  0  0
 42 43  1  0  0  0  0
 21 22  1  0  0  0  0
 18 21  1  0  0  0  0
 32 33  1  0  0  0  0
  7  8  1  0  0  0  0
 17 18  1  0  0  0  0
  3  4  1  0  0  0  0
  3  5  1  0  0  0  0
  3  6  1  0  0  0  0
 36 39  1  0  0  0  0
 36 40  1  0  0  0  0
 36 41  1  0  0  0  0
 11 14  1  0  0  0  0
 11 15  1  0  0  0  0
 11 16  1  0  0  0  0
 43 45  1  0  0  0  0
 43 46  1  0  0  0  0
 43 47  1  0  0  0  0
 22 30  1  0  0  0  0
 22 31  1  0  0  0  0
 21 28  1  0  0  0  0
 21 29  1  0  0  0  0
 33 38  1  0  0  0  0
  8 13  1  0  0  0  0
 18 27  1  0  0  0  0
 42 44  1  0  0  0  0
  7 12  1  0  0  0  0
 32 37  1  0  0  0  0
 17 26  1  0  0  0  0
M  CHG  1  24  -1
M  END
$$$$

  -OEChem-05262214473D

 47 46  0     1  0  0  0  0  0999 V2000
    0.5093   -4.7265    3.0306 C   0  0  0  0  0  0  0  0  0  0  0  0
    1.2735   -4.4402    3.9448 O   0  0  0  0  0  0  0  0  0  0  0  0
   -0.4465   -5.8608    3.1982 C   0  0  0  0  0  0  0  0  0  0  0  0
   -0.0219   -6.8213    2.8645 H   0  0  0  0  0  0  0  0  0  0  0  0
   -0.7314   -6.0185    4.2509 H   0  0  0  0  0  0  0  0  0  0  0  0
   -1.3983   -5.7596    2.6527 H   0  0  0  0  0  0  0  0  0  0  0  0
    0.4252   -4.0886    1.8040 N   0  0  0  0  0  0  0  0  0  0  0  0
    1.2532   -2.9707    1.4349 C   0  0  2  0  0  0  0  0  0  0  0  0
    0.3395   -1.8293    1.0083 C   0  0  0  0  0  0  0  0  0  0  0  0
   -0.8136   -2.0027    0.6194 O   0  0  0  0  0  0  0  0  0  0  0  0
    2.2176   -3.3411    0.3189 C   0  0  0  0  0  0  0  0  0  0  0  0
   -0.2574   -4.4279    1.1287 H   0  0  0  0  0  0  0  0  0  0  0  0
    1.8087   -2.6785    2.3327 H   0  0  0  0  0  0  0  0  0  0  0  0
    1.6793   -3.6366   -0.5890 H   0  0  0  0  0  0  0  0  0  0  0  0
    2.8662   -2.4980    0.0589 H   0  0  0  0  0  0  0  0  0  0  0  0
    2.8538   -4.1816    0.6166 H   0  0  0  0  0  0  0  0  0  0  0  0
    0.9758   -0.5952    1.0708 N   0  0  0  0  0  0  0  0  0  0  0  0
    0.3258    0.6374    0.7059 C   0  0  2  0  0  0  0  0  0  0  0  0
   -0.0940    0.5193   -0.7555 C   0  0  0  0  0  0  0  0  0  0  0  0
   -0.7098    1.4024   -1.3489 O   0  0  0  0  0  0  0  0  0  0  0  0
    1.2435    1.8502    0.9013 C   0  0  0  0  0  0  0  0  0  0  0  0
    1.5763    2.1324    2.3658 C   0  0  0  0  0  0  0  0  0  0  0  0
    2.5098    3.3182    2.6309 C   0  0  0  0  0  0  0  0  0  0  0  0
    3.0030    3.8353    1.5873 O   0  5  0  0  0  0  0  0  0  0  0  0
    2.6664    3.6483    3.8386 O   0  0  0  0  0  0  0  0  0  0  0  0
    1.9288   -0.5463    1.4242 H   0  0  0  0  0  0  0  0  0  0  0  0
   -0.5742    0.7133    1.3257 H   0  0  0  0  0  0  0  0  0  0  0  0
    0.7883    2.7416    0.4521 H   0  0  0  0  0  0  0  0  0  0  0  0
    2.1834    1.6852    0.3578 H   0  0  0  0  0  0  0  0  0  0  0  0
    0.6522    2.2679    2.9402 H   0  0  0  0  0  0  0  0  0  0  0  0
    2.0760    1.2489    2.7833 H   0  0  0  0  0  0  0  0  0  0  0  0
    0.2594   -0.7064   -1.3023 N   0  0  0  0  0  0  0  0  0  0  0  0
   -0.0398   -1.0706   -2.6678 C   0  0  2  0  0  0  0  0  0  0  0  0
    0.0696   -2.5850   -2.7855 C   0  0  0  0  0  0  0  0  0  0  0  0
    0.7280   -3.2725   -2.0077 O   0  0  0  0  0  0  0  0  0  0  0  0
    0.9007   -0.3802   -3.6434 C   0  0  0  0  0  0  0  0  0  0  0  0
    0.7817   -1.3716   -0.7398 H   0  0  0  0  0  0  0  0  0  0  0  0
   -1.0738   -0.7626   -2.8580 H   0  0  0  0  0  0  0  0  0  0  0  0
    1.9414   -0.6764   -3.4683 H   0  0  0  0  0  0  0  0  0  0  0  0
    0.6544   -0.6349   -4.6795 H   0  0  0  0  0  0  0  0  0  0  0  0
    0.8425    0.7083   -3.5367 H   0  0  0  0  0  0  0  0  0  0  0  0
   -0.6194   -3.0741   -3.8865 N   0  0  0  0  0  0  0  0  0  0  0  0
   -0.6573   -4.4784   -4.2218 C   0  0  0  0  0  0  0  0  0  0  0  0
   -1.1539   -2.4338   -4.4663 H   0  0  0  0  0  0  0  0  0  0  0  0
    0.1553   -4.7098   -4.9262 H   0  0  0  0  0  0  0  0  0  0  0  0
   -0.5314   -5.0770   -3.3076 H   0  0  0  0  0  0  0  0  0  0  0  0
   -1.6249   -4.7183   -4.6868 H   0  0  0  0  0  0  0  0  0  0  0  0
  1  3  1  0  0  0  0
  1  7  1  0  0  0  0
  1  2  2  0  0  0  0
 33 34  1  0  0  0  0
 34 42  1  0  0  0  0
 34 35  2  0  0  0  0
  8  9  1  0  0  0  0
  9 17  1  0  0  0  0
  9 10  2  0  0  0  0
 18 19  1  0  0  0  0
 19 32  1  0  0  0  0
 19 20  2  0  0  0  0
 22 23  1  0  0  0  0
 23 24  1  0  0  0  0
 23 25  2  0  0  0  0
 33 36  1  0  0  0  0
  8 11  1  0  0  0  0
 42 43  1  0  0  0  0
 21 22  1  0  0  0  0
 18 21  1  0  0  0  0
 32 33  1  0  0  0  0
  7  8  1  0  0  0  0
 17 18  1  0  0  0  0
  3  4  1  0  0  0  0
  3  5  1  0  0  0  0
  3  6  1  0  0  0  0
 36 39  1  0  0  0  0
 36 40  1  0  0  0  0
 36 41  1  0  0  0  0
 11 14  1  0  0  0  0
 11 15  1  0  0  0  0
 11 16  1  0  0  0  0
 43 45  1  0  0  0  0
 43 46  1  0  0  0  0
 43 47  1  0  0  0  0
 22 30  1  0  0  0  0
 22 31  1  0  0  0  0
 21 28  1  0  0  0  0
 21 29  1  0  0  0  0
 33 38  1  0  0  0  0
  8 13  1  0  0  0  0
 18 27  1  0  0  0  0
 42 44  1  0  0  0  0
  7 12  1  0  0  0  0
 32 37  1  0  0  0  0
 17 26  1  0  0  0  0
M  CHG  1  24  -1
M  END
$$$$

  -OEChem-05262214473D

 47 46  0     1  0  0  0  0  0999 V2000
    0.5093   -4.7265    3.0306 C   0  0  0  0  0  0  0  0  0  0  0  0
    1.2735   -4.4402    3.9448 O   0  0  0  0  0  0  0  0  0  0  0  0
   -0.4465   -5.8608    3.1982 C   0  0  0  0  0  0  0  0  0  0  0  0
   -0.0219   -6.8213    2.8645 H   0  0  0  0  0  0  0  0  0  0  0  0
   -0.7314   -6.0185    4.2509 H   0  0  0  0  0  0  0  0  0  0  0  0
   -1.3983   -5.7596    2.6527 H   0  0  0  0  0  0  0  0  0  0  0  0
    0.4252   -4.0886    1.8040 N   0  0  0  0  0  0  0  0  0  0  0  0
    1.2532   -2.9707    1.4349 C   0  0  2  0  0  0  0  0  0  0  0  0
    0.3395   -1.8293    1.0083 C   0  0  0  0  0  0  0  0  0  0  0  0
   -0.8136   -2.0027    0.6194 O   0  0  0  0  0  0  0  0  0  0  0  0
    2.2176   -3.3411    0.3189 C   0  0  0  0  0  0  0  0  0  0  0  0
   -0.2574   -4.4279    1.1287 H   0  0  0  0  0  0  0  0  0  0  0  0
    1.8087   -2.6785    2.3327 H   0  0  0  0  0  0  0  0  0  0  0  0
    1.6793   -3.6366   -0.5890 H   0  0  0  0  0  0  0  0  0  0  0  0
    2.8662   -2.4980    0.0589 H   0  0  0  0  0  0  0  0  0  0  0  0
    2.8538   -4.1816    0.6166 H   0  0  0  0  0  0  0  0  0  0  0  0
    0.9758   -0.5952    1.0708 N   0  0  0  0  0  0  0  0  0  0  0  0
    0.3258    0.6374    0.7059 C   0  0  2  0  0  0  0  0  0  0  0  0
   -0.0940    0.5193   -0.7555 C   0  0  0  0  0  0  0  0  0  0  0  0
   -0.4642    1.4810   -1.4258 O   0  0  0  0  0  0  0  0  0  0  0  0
    1.2435    1.8502    0.9013 C   0  0  0  0  0  0  0  0  0  0  0  0
    1.5763    2.1324    2.3658 C   0  0  0  0  0  0  0  0  0  0  0  0
    2.5098    3.3182    2.6309 C   0  0  0  0  0  0  0  0  0  0  0  0
    3.0030    3.8353    1.5873 O   0  5  0  0  0  0  0  0  0  0  0  0
    2.6664    3.6483    3.8386 O   0  0  0  0  0  0  0  0  0  0  0  0
    1.9288   -0.5463    1.4242 H   0  0  0  0  0  0  0  0  0  0  0  0
   -0.5742    0.7133    1.3257 H   0  0  0  0  0  0  0  0  0  0  0  0
    0.7883    2.7416    0.4521 H   0  0  0  0  0  0  0  0  0  0  0  0
    2.1834    1.6852    0.3578 H   0  0  0  0  0  0  0  0  0  0  0  0
    0.6522    2.2679    2.9402 H   0  0  0  0  0  0  0  0  0  0  0  0
    2.0760    1.2489    2.7833 H   0  0  0  0  0  0  0  0  0  0  0  0
   -0.0506   -0.7927   -1.2063 N   0  0  0  0  0  0  0  0  0  0  0  0
   -0.4158   -1.1712   -2.5517 C   0  0  2  0  0  0  0  0  0  0  0  0
   -0.6853   -2.6701   -2.5618 C   0  0  0  0  0  0  0  0  0  0  0  0
   -0.2272   -3.4397   -1.7198 O   0  0  0  0  0  0  0  0  0  0  0  0
    0.6775   -0.8088   -3.5446 C   0  0  0  0  0  0  0  0  0  0  0  0
    0.2837   -1.5229   -0.5845 H   0  0  0  0  0  0  0  0  0  0  0  0
   -1.3385   -0.6320   -2.7925 H   0  0  0  0  0  0  0  0  0  0  0  0
    1.6098   -1.3394   -3.3195 H   0  0  0  0  0  0  0  0  0  0  0  0
    0.3871   -1.0703   -4.5675 H   0  0  0  0  0  0  0  0  0  0  0  0
    0.8908    0.2652   -3.5147 H   0  0  0  0  0  0  0  0  0  0  0  0
   -1.4621   -3.0534   -3.6462 N   0  0  0  0  0  0  0  0  0  0  0  0
   -1.8444   -4.4255   -3.8851 C   0  0  0  0  0  0  0  0  0  0  0  0
   -1.8140   -2.3454   -4.2839 H   0  0  0  0  0  0  0  0  0  0  0  0
   -1.1072   -4.9020   -4.5481 H   0  0  0  0  0  0  0  0  0  0  0  0
   -1.8815   -4.9676   -2.9286 H   0  0  0  0  0  0  0  0  0  0  0  0
   -2.8360   -4.4523   -4.3604 H   0  0  0  0  0  0  0  0  0  0  0  0
  1  3  1  0  0  0  0
  1  7  1  0  0  0  0
  1  2  2  0  0  0  0
 33 34  1  0  0  0  0
 34 42  1  0  0  0  0
 34 35  2  0  0  0  0
  8  9  1  0  0  0  0
  9 17  1  0  0  0  0
  9 10  2  0  0  0  0
 18 19  1  0  0  0  0
 19 32  1  0  0  0  0
 19 20  2  0  0  0  0
 22 23  1  0  0  0  0
 23 24  1  0  0  0  0
 23 25  2  0  0  0  0
 33 36  1  0  0  0  0
  8 11  1  0  0  0  0
 42 43  1  0  0  0  0
 21 22  1  0  0  0  0
 18 21  1  0  0  0  0
 32 33  1  0  0  0  0
  7  8  1  0  0  0  0
 17 18  1  0  0  0  0
  3  4  1  0  0  0  0
  3  5  1  0  0  0  0
  3  6  1  0  0  0  0
 36 39  1  0  0  0  0
 36 40  1  0  0  0  0
 36 41  1  0  0  0  0
 11 14  1  0  0  0  0
 11 15  1  0  0  0  0
 11 16  1  0  0  0  0
 43 45  1  0  0  0  0
 43 46  1  0  0  0  0
 43 47  1  0  0  0  0
 22 30  1  0  0  0  0
 22 31  1  0  0  0  0
 21 28  1  0  0  0  0
 21 29  1  0  0  0  0
 33 38  1  0  0  0  0
  8 13  1  0  0  0  0
 18 27  1  0  0  0  0
 42 44  1  0  0  0  0
  7 12  1  0  0  0  0
 32 37  1  0  0  0  0
 17 26  1  0  0  0  0
M  CHG  1  24  -1
M  END
$$$$

  -OEChem-05262214473D

 47 46  0     1  0  0  0  0  0999 V2000
    0.5093   -4.7265    3.0306 C   0  0  0  0  0  0  0  0  0  0  0  0
    1.2735   -4.4402    3.9448 O   0  0  0  0  0  0  0  0  0  0  0  0
   -0.4465   -5.8608    3.1982 C   0  0  0  0  0  0  0  0  0  0  0  0
   -0.0219   -6.8213    2.8645 H   0  0  0  0  0  0  0  0  0  0  0  0
   -0.7314   -6.0185    4.2509 H   0  0  0  0  0  0  0  0  0  0  0  0
   -1.3983   -5.7596    2.6527 H   0  0  0  0  0  0  0  0  0  0  0  0
    0.4252   -4.0886    1.8040 N   0  0  0  0  0  0  0  0  0  0  0  0
    1.2532   -2.9707    1.4349 C   0  0  2  0  0  0  0  0  0  0  0  0
    0.3395   -1.8293    1.0083 C   0  0  0  0  0  0  0  0  0  0  0  0
   -0.8136   -2.0027    0.6194 O   0  0  0  0  0  0  0  0  0  0  0  0
    2.2176   -3.3411    0.3189 C   0  0  0  0  0  0  0  0  0  0  0  0
   -0.2574   -4.4279    1.1287 H   0  0  0  0  0  0  0  0  0  0  0  0
    1.8087   -2.6785    2.3327 H   0  0  0  0  0  0  0  0  0  0  0  0
    1.6793   -3.6366   -0.5890 H   0  0  0  0  0  0  0  0  0  0  0  0
    2.8662   -2.4980    0.0589 H   0  0  0  0  0  0  0  0  0  0  0  0
    2.8538   -4.1816    0.6166 H   0  0  0  0  0  0  0  0  0  0  0  0
    0.9758   -0.5952    1.0708 N   0  0  0  0  0  0  0  0  0  0  0  0
    0.3258    0.6374    0.7059 C   0  0  2  0  0  0  0  0  0  0  0  0
   -0.0940    0.5193   -0.7555 C   0  0  0  0  0  0  0  0  0  0  0  0
   -0.2059    1.4905   -1.5007 O   0  0  0  0  0  0  0  0  0  0  0  0
    1.2435    1.8502    0.9013 C   0  0  0  0  0  0  0  0  0  0  0  0
    1.5763    2.1324    2.3658 C   0  0  0  0  0  0  0  0  0  0  0  0
    2.5098    3.3182    2.6309 C   0  0  0  0  0  0  0  0  0  0  0  0
    3.0030    3.8353    1.5873 O   0  5  0  0  0  0  0  0  0  0  0  0
    2.6664    3.6483    3.8386 O   0  0  0  0  0  0  0  0  0  0  0  0
    1.9288   -0.5463    1.4242 H   0  0  0  0  0  0  0  0  0  0  0  0
   -0.5742    0.7133    1.3257 H   0  0  0  0  0  0  0  0  0  0  0  0
    0.7883    2.7416    0.4521 H   0  0  0  0  0  0  0  0  0  0  0  0
    2.1834    1.6852    0.3578 H   0  0  0  0  0  0  0  0  0  0  0  0
    0.6522    2.2679    2.9402 H   0  0  0  0  0  0  0  0  0  0  0  0
    2.0760    1.2489    2.7833 H   0  0  0  0  0  0  0  0  0  0  0  0
   -0.3733   -0.7922   -1.1137 N   0  0  0  0  0  0  0  0  0  0  0  0
   -0.8064   -1.1668   -2.4399 C   0  0  2  0  0  0  0  0  0  0  0  0
   -1.4401   -2.5491   -2.3548 C   0  0  0  0  0  0  0  0  0  0  0  0
   -1.1971   -3.3438   -1.4490 O   0  0  0  0  0  0  0  0  0  0  0  0
    0.3537   -1.1603   -3.4232 C   0  0  0  0  0  0  0  0  0  0  0  0
   -0.2381   -1.5346   -0.4337 H   0  0  0  0  0  0  0  0  0  0  0  0
   -1.5632   -0.4355   -2.7438 H   0  0  0  0  0  0  0  0  0  0  0  0
    1.1222   -1.8869   -3.1352 H   0  0  0  0  0  0  0  0  0  0  0  0
    0.0187   -1.4167   -4.4337 H   0  0  0  0  0  0  0  0  0  0  0  0
    0.8271   -0.1733   -3.4610 H   0  0  0  0  0  0  0  0  0  0  0  0
   -2.2757   -2.8073   -3.4323 N   0  0  0  0  0  0  0  0  0  0  0  0
   -2.9847   -4.0561   -3.5874 C   0  0  0  0  0  0  0  0  0  0  0  0
   -2.4335   -2.0833   -4.1271 H   0  0  0  0  0  0  0  0  0  0  0  0
   -2.3819   -4.7476   -4.1944 H   0  0  0  0  0  0  0  0  0  0  0  0
   -3.1660   -4.5000   -2.5975 H   0  0  0  0  0  0  0  0  0  0  0  0
   -3.9465   -3.8717   -4.0884 H   0  0  0  0  0  0  0  0  0  0  0  0
  1  3  1  0  0  0  0
  1  7  1  0  0  0  0
  1  2  2  0  0  0  0
 33 34  1  0  0  0  0
 34 42  1  0  0  0  0
 34 35  2  0  0  0  0
  8  9  1  0  0  0  0
  9 17  1  0  0  0  0
  9 10  2  0  0  0  0
 18 19  1  0  0  0  0
 19 32  1  0  0  0  0
 19 20  2  0  0  0  0
 22 23  1  0  0  0  0
 23 24  1  0  0  0  0
 23 25  2  0  0  0  0
 33 36  1  0  0  0  0
  8 11  1  0  0  0  0
 42 43  1  0  0  0  0
 21 22  1  0  0  0  0
 18 21  1  0  0  0  0
 32 33  1  0  0  0  0
  7  8  1  0  0  0  0
 17 18  1  0  0  0  0
  3  4  1  0  0  0  0
  3  5  1  0  0  0  0
  3  6  1  0  0  0  0
 36 39  1  0  0  0  0
 36 40  1  0  0  0  0
 36 41  1  0  0  0  0
 11 14  1  0  0  0  0
 11 15  1  0  0  0  0
 11 16  1  0  0  0  0
 43 45  1  0  0  0  0
 43 46  1  0  0  0  0
 43 47  1  0  0  0  0
 22 30  1  0  0  0  0
 22 31  1  0  0  0  0
 21 28  1  0  0  0  0
 21 29  1  0  0  0  0
 33 38  1  0  0  0  0
  8 13  1  0  0  0  0
 18 27  1  0  0  0  0
 42 44  1  0  0  0  0
  7 12  1  0  0  0  0
 32 37  1  0  0  0  0
 17 26  1  0  0  0  0
M  CHG  1  24  -1
M  END
$$$$

  -OEChem-05262214473D

 47 46  0     1  0  0  0  0  0999 V2000
    0.5093   -4.7265    3.0306 C   0  0  0  0  0  0  0  0  0  0  0  0
    1.2735   -4.4402    3.9448 O   0  0  0  0  0  0  0  0  0  0  0  0
   -0.4465   -5.8608    3.1982 C   0  0  0  0  0  0  0  0  0  0  0  0
   -0.0219   -6.8213    2.8645 H   0  0  0  0  0  0  0  0  0  0  0  0
   -0.7314   -6.0185    4.2509 H   0  0  0  0  0  0  0  0  0  0  0  0
   -1.3983   -5.7596    2.6527 H   0  0  0  0  0  0  0  0  0  0  0  0
    0.4252   -4.0886    1.8040 N   0  0  0  0  0  0  0  0  0  0  0  0
    1.2532   -2.9707    1.4349 C   0  0  2  0  0  0  0  0  0  0  0  0
    0.3395   -1.8293    1.0083 C   0  0  0  0  0  0  0  0  0  0  0  0
   -0.8136   -2.0027    0.6194 O   0  0  0  0  0  0  0  0  0  0  0  0
    2.2176   -3.3411    0.3189 C   0  0  0  0  0  0  0  0  0  0  0  0
   -0.2574   -4.4279    1.1287 H   0  0  0  0  0  0  0  0  0  0  0  0
    1.8087   -2.6785    2.3327 H   0  0  0  0  0  0  0  0  0  0  0  0
    1.6793   -3.6366   -0.5890 H   0  0  0  0  0  0  0  0  0  0  0  0
    2.8662   -2.4980    0.0589 H   0  0  0  0  0  0  0  0  0  0  0  0
    2.8538   -4.1816    0.6166 H   0  0  0  0  0  0  0  0  0  0  0  0
    0.9758   -0.5952    1.0708 N   0  0  0  0  0  0  0  0  0  0  0  0
    0.3258    0.6374    0.7059 C   0  0  2  0  0  0  0  0  0  0  0  0
   -0.0940    0.5193   -0.7555 C   0  0  0  0  0  0  0  0  0  0  0  0
    0.0474    1.4303   -1.5686 O   0  0  0  0  0  0  0  0  0  0  0  0
    1.2435    1.8502    0.9013 C   0  0  0  0  0  0  0  0  0  0  0  0
    1.5763    2.1324    2.3658 C   0  0  0  0  0  0  0  0  0  0  0  0
    2.5098    3.3182    2.6309 C   0  0  0  0  0  0  0  0  0  0  0  0
    3.0030    3.8353    1.5873 O   0  5  0  0  0  0  0  0  0  0  0  0
    2.6664    3.6483    3.8386 O   0  0  0  0  0  0  0  0  0  0  0  0
    1.9288   -0.5463    1.4242 H   0  0  0  0  0  0  0  0  0  0  0  0
   -0.5742    0.7133    1.3257 H   0  0  0  0  0  0  0  0  0  0  0  0
    0.7883    2.7416    0.4521 H   0  0  0  0  0  0  0  0  0  0  0  0
    2.1834    1.6852    0.3578 H   0  0  0  0  0  0  0  0  0  0  0  0
    0.6522    2.2679    2.9402 H   0  0  0  0  0  0  0  0  0  0  0  0
    2.0760    1.2489    2.7833 H   0  0  0  0  0  0  0  0  0  0  0  0
   -0.6868   -0.7052   -1.0307 N   0  0  0  0  0  0  0  0  0  0  0  0
   -1.1847   -1.0578   -2.3400 C   0  0  2  0  0  0  0  0  0  0  0  0
   -2.1432   -2.2303   -2.1786 C   0  0  0  0  0  0  0  0  0  0  0  0
   -2.1156   -2.9913   -1.2136 O   0  0  0  0  0  0  0  0  0  0  0  0
   -0.0487   -1.4109   -3.2874 C   0  0  0  0  0  0  0  0  0  0  0  0
   -0.7480   -1.4056   -0.2977 H   0  0  0  0  0  0  0  0  0  0  0  0
   -1.7325   -0.1865   -2.7153 H   0  0  0  0  0  0  0  0  0  0  0  0
    0.5117   -2.2817   -2.9279 H   0  0  0  0  0  0  0  0  0  0  0  0
   -0.4257   -1.6503   -4.2872 H   0  0  0  0  0  0  0  0  0  0  0  0
    0.6557   -0.5771   -3.3791 H   0  0  0  0  0  0  0  0  0  0  0  0
   -3.0049   -2.3526   -3.2596 N   0  0  0  0  0  0  0  0  0  0  0  0
   -4.0004   -3.3952   -3.3491 C   0  0  0  0  0  0  0  0  0  0  0  0
   -2.9699   -1.6654   -4.0068 H   0  0  0  0  0  0  0  0  0  0  0  0
   -3.5819   -4.2571   -3.8894 H   0  0  0  0  0  0  0  0  0  0  0  0
   -4.2974   -3.7062   -2.3366 H   0  0  0  0  0  0  0  0  0  0  0  0
   -4.8806   -3.0162   -3.8892 H   0  0  0  0  0  0  0  0  0  0  0  0
  1  3  1  0  0  0  0
  1  7  1  0  0  0  0
  1  2  2  0  0  0  0
 33 34  1  0  0  0  0
 34 42  1  0  0  0  0
 34 35  2  0  0  0  0
  8  9  1  0  0  0  0
  9 17  1  0  0  0  0
  9 10  2  0  0  0  0
 18 19  1  0  0  0  0
 19 32  1  0  0  0  0
 19 20  2  0  0  0  0
 22 23  1  0  0  0  0
 23 24  1  0  0  0  0
 23 25  2  0  0  0  0
 33 36  1  0  0  0  0
  8 11  1  0  0  0  0
 42 43  1  0  0  0  0
 21 22  1  0  0  0  0
 18 21  1  0  0  0  0
 32 33  1  0  0  0  0
  7  8  1  0  0  0  0
 17 18  1  0  0  0  0
  3  4  1  0  0  0  0
  3  5  1  0  0  0  0
  3  6  1  0  0  0  0
 36 39  1  0  0  0  0
 36 40  1  0  0  0  0
 36 41  1  0  0  0  0
 11 14  1  0  0  0  0
 11 15  1  0  0  0  0
 11 16  1  0  0  0  0
 43 45  1  0  0  0  0
 43 46  1  0  0  0  0
 43 47  1  0  0  0  0
 22 30  1  0  0  0  0
 22 31  1  0  0  0  0
 21 28  1  0  0  0  0
 21 29  1  0  0  0  0
 33 38  1  0  0  0  0
  8 13  1  0  0  0  0
 18 27  1  0  0  0  0
 42 44  1  0  0  0  0
  7 12  1  0  0  0  0
 32 37  1  0  0  0  0
 17 26  1  0  0  0  0
M  CHG  1  24  -1
M  END
$$$$

  -OEChem-05262214473D

 47 46  0     1  0  0  0  0  0999 V2000
    0.5093   -4.7265    3.0306 C   0  0  0  0  0  0  0  0  0  0  0  0
    1.2735   -4.4402    3.9448 O   0  0  0  0  0  0  0  0  0  0  0  0
   -0.4465   -5.8608    3.1982 C   0  0  0  0  0  0  0  0  0  0  0  0
   -0.0219   -6.8213    2.8645 H   0  0  0  0  0  0  0  0  0  0  0  0
   -0.7314   -6.0185    4.2509 H   0  0  0  0  0  0  0  0  0  0  0  0
   -1.3983   -5.7596    2.6527 H   0  0  0  0  0  0  0  0  0  0  0  0
    0.4252   -4.0886    1.8040 N   0  0  0  0  0  0  0  0  0  0  0  0
    1.2532   -2.9707    1.4349 C   0  0  2  0  0  0  0  0  0  0  0  0
    0.3395   -1.8293    1.0083 C   0  0  0  0  0  0  0  0  0  0  0  0
   -0.8136   -2.0027    0.6194 O   0  0  0  0  0  0  0  0  0  0  0  0
    2.2176   -3.3411    0.3189 C   0  0  0  0  0  0  0  0  0  0  0  0
   -0.2574   -4.4279    1.1287 H   0  0  0  0  0  0  0  0  0  0  0  0
    1.8087   -2.6785    2.3327 H   0  0  0  0  0  0  0  0  0  0  0  0
    1.6793   -3.6366   -0.5890 H   0  0  0  0  0  0  0  0  0  0  0  0
    2.8662   -2.4980    0.0589 H   0  0  0  0  0  0  0  0  0  0  0  0
    2.8538   -4.1816    0.6166 H   0  0  0  0  0  0  0  0  0  0  0  0
    0.9758   -0.5952    1.0708 N   0  0  0  0  0  0  0  0  0  0  0  0
    0.3258    0.6374    0.7059 C   0  0  2  0  0  0  0  0  0  0  0  0
   -0.0940    0.5193   -0.7555 C   0  0  0  0  0  0  0  0  0  0  0  0
    0.2786    1.3045   -1.6249 O   0  0  0  0  0  0  0  0  0  0  0  0
    1.2435    1.8502    0.9013 C   0  0  0  0  0  0  0  0  0  0  0  0
    1.5763    2.1324    2.3658 C   0  0  0  0  0  0  0  0  0  0  0  0
    2.5098    3.3182    2.6309 C   0  0  0  0  0  0  0  0  0  0  0  0
    3.0030    3.8353    1.5873 O   0  5  0  0  0  0  0  0  0  0  0  0
    2.6664    3.6483    3.8386 O   0  0  0  0  0  0  0  0  0  0  0  0
    1.9288   -0.5463    1.4242 H   0  0  0  0  0  0  0  0  0  0  0  0
   -0.5742    0.7133    1.3257 H   0  0  0  0  0  0  0  0  0  0  0  0
    0.7883    2.7416    0.4521 H   0  0  0  0  0  0  0  0  0  0  0  0
    2.1834    1.6852    0.3578 H   0  0  0  0  0  0  0  0  0  0  0  0
    0.6522    2.2679    2.9402 H   0  0  0  0  0  0  0  0  0  0  0  0
    2.0760    1.2489    2.7833 H   0  0  0  0  0  0  0  0  0  0  0  0
   -0.9696   -0.5374   -0.9630 N   0  0  0  0  0  0  0  0  0  0  0  0
   -1.5251   -0.8516   -2.2589 C   0  0  2  0  0  0  0  0  0  0  0  0
   -2.7469   -1.7354   -2.0452 C   0  0  0  0  0  0  0  0  0  0  0  0
   -2.9201   -2.4063   -1.0298 O   0  0  0  0  0  0  0  0  0  0  0  0
   -0.5023   -1.5435   -3.1464 C   0  0  0  0  0  0  0  0  0  0  0  0
   -1.2113   -1.1449   -0.1857 H   0  0  0  0  0  0  0  0  0  0  0  0
   -1.8348    0.0980   -2.7089 H   0  0  0  0  0  0  0  0  0  0  0  0
   -0.1801   -2.4968   -2.7118 H   0  0  0  0  0  0  0  0  0  0  0  0
   -0.9159   -1.7553   -4.1379 H   0  0  0  0  0  0  0  0  0  0  0  0
    0.3883   -0.9189   -3.2747 H   0  0  0  0  0  0  0  0  0  0  0  0
   -3.5999   -1.7202   -3.1398 N   0  0  0  0  0  0  0  0  0  0  0  0
   -4.8224   -2.4879   -3.1863 C   0  0  0  0  0  0  0  0  0  0  0  0
   -3.3868   -1.1200   -3.9311 H   0  0  0  0  0  0  0  0  0  0  0  0
   -4.6255   -3.4640   -3.6537 H   0  0  0  0  0  0  0  0  0  0  0  0
   -5.1986   -2.6403   -2.1639 H   0  0  0  0  0  0  0  0  0  0  0  0
   -5.5746   -1.9439   -3.7765 H   0  0  0  0  0  0  0  0  0  0  0  0
  1  3  1  0  0  0  0
  1  7  1  0  0  0  0
  1  2  2  0  0  0  0
 33 34  1  0  0  0  0
 34 42  1  0  0  0  0
 34 35  2  0  0  0  0
  8  9  1  0  0  0  0
  9 17  1  0  0  0  0
  9 10  2  0  0  0  0
 18 19  1  0  0  0  0
 19 32  1  0  0  0  0
 19 20  2  0  0  0  0
 22 23  1  0  0  0  0
 23 24  1  0  0  0  0
 23 25  2  0  0  0  0
 33 36  1  0  0  0  0
  8 11  1  0  0  0  0
 42 43  1  0  0  0  0
 21 22  1  0  0  0  0
 18 21  1  0  0  0  0
 32 33  1  0  0  0  0
  7  8  1  0  0  0  0
 17 18  1  0  0  0  0
  3  4  1  0  0  0  0
  3  5  1  0  0  0  0
  3  6  1  0  0  0  0
 36 39  1  0  0  0  0
 36 40  1  0  0  0  0
 36 41  1  0  0  0  0
 11 14  1  0  0  0  0
 11 15  1  0  0  0  0
 11 16  1  0  0  0  0
 43 45  1  0  0  0  0
 43 46  1  0  0  0  0
 43 47  1  0  0  0  0
 22 30  1  0  0  0  0
 22 31  1  0  0  0  0
 21 28  1  0  0  0  0
 21 29  1  0  0  0  0
 33 38  1  0  0  0  0
  8 13  1  0  0  0  0
 18 27  1  0  0  0  0
 42 44  1  0  0  0  0
  7 12  1  0  0  0  0
 32 37  1  0  0  0  0
 17 26  1  0  0  0  0
M  CHG  1  24  -1
M  END
$$$$

  -OEChem-05262214473D

 47 46  0     1  0  0  0  0  0999 V2000
    0.5093   -4.7265    3.0306 C   0  0  0  0  0  0  0  0  0  0  0  0
    1.2735   -4.4402    3.9448 O   0  0  0  0  0  0  0  0  0  0  0  0
   -0.4465   -5.8608    3.1982 C   0  0  0  0  0  0  0  0  0  0  0  0
   -0.0219   -6.8213    2.8645 H   0  0  0  0  0  0  0  0  0  0  0  0
   -0.7314   -6.0185    4.2509 H   0  0  0  0  0  0  0  0  0  0  0  0
   -1.3983   -5.7596    2.6527 H   0  0  0  0  0  0  0  0  0  0  0  0
    0.4252   -4.0886    1.8040 N   0  0  0  0  0  0  0  0  0  0  0  0
    1.2532   -2.9707    1.4349 C   0  0  2  0  0  0  0  0  0  0  0  0
    0.3395   -1.8293    1.0083 C   0  0  0  0  0  0  0  0  0  0  0  0
   -0.8136   -2.0027    0.6194 O   0  0  0  0  0  0  0  0  0  0  0  0
    2.2176   -3.3411    0.3189 C   0  0  0  0  0  0  0  0  0  0  0  0
   -0.2574   -4.4279    1.1287 H   0  0  0  0  0  0  0  0  0  0  0  0
    1.8087   -2.6785    2.3327 H   0  0  0  0  0  0  0  0  0  0  0  0
    1.6793   -3.6366   -0.5890 H   0  0  0  0  0  0  0  0  0  0  0  0
    2.8662   -2.4980    0.0589 H   0  0  0  0  0  0  0  0  0  0  0  0
    2.8538   -4.1816    0.6166 H   0  0  0  0  0  0  0  0  0  0  0  0
    0.9758   -0.5952    1.0708 N   0  0  0  0  0  0  0  0  0  0  0  0
    0.3258    0.6374    0.7059 C   0  0  2  0  0  0  0  0  0  0  0  0
   -0.0940    0.5193   -0.7555 C   0  0  0  0  0  0  0  0  0  0  0  0
    0.4718    1.1217   -1.6656 O   0  0  0  0  0  0  0  0  0  0  0  0
    1.2435    1.8502    0.9013 C   0  0  0  0  0  0  0  0  0  0  0  0
    1.5763    2.1324    2.3658 C   0  0  0  0  0  0  0  0  0  0  0  0
    2.5098    3.3182    2.6309 C   0  0  0  0  0  0  0  0  0  0  0  0
    3.0030    3.8353    1.5873 O   0  5  0  0  0  0  0  0  0  0  0  0
    2.6664    3.6483    3.8386 O   0  0  0  0  0  0  0  0  0  0  0  0
    1.9288   -0.5463    1.4242 H   0  0  0  0  0  0  0  0  0  0  0  0
   -0.5742    0.7133    1.3257 H   0  0  0  0  0  0  0  0  0  0  0  0
    0.7883    2.7416    0.4521 H   0  0  0  0  0  0  0  0  0  0  0  0
    2.1834    1.6852    0.3578 H   0  0  0  0  0  0  0  0  0  0  0  0
    0.6522    2.2679    2.9402 H   0  0  0  0  0  0  0  0  0  0  0  0
    2.0760    1.2489    2.7833 H   0  0  0  0  0  0  0  0  0  0  0  0
   -1.2026   -0.3004   -0.9152 N   0  0  0  0  0  0  0  0  0  0  0  0
   -1.8044   -0.5621   -2.2021 C   0  0  2  0  0  0  0  0  0  0  0  0
   -3.2099   -1.0981   -1.9637 C   0  0  0  0  0  0  0  0  0  0  0  0
   -3.5558   -1.6286   -0.9101 O   0  0  0  0  0  0  0  0  0  0  0  0
   -0.9761   -1.5491   -3.0099 C   0  0  0  0  0  0  0  0  0  0  0  0
   -1.5963   -0.7702   -0.1053 H   0  0  0  0  0  0  0  0  0  0  0  0
   -1.8632    0.3987   -2.7250 H   0  0  0  0  0  0  0  0  0  0  0  0
   -0.9060   -2.5177   -2.5016 H   0  0  0  0  0  0  0  0  0  0  0  0
   -1.4185   -1.7245   -3.9961 H   0  0  0  0  0  0  0  0  0  0  0  0
    0.0432   -1.1753   -3.1549 H   0  0  0  0  0  0  0  0  0  0  0  0
   -4.0202   -0.9533   -3.0811 N   0  0  0  0  0  0  0  0  0  0  0  0
   -5.3947   -1.3961   -3.1101 C   0  0  0  0  0  0  0  0  0  0  0  0
   -3.6558   -0.4845   -3.9052 H   0  0  0  0  0  0  0  0  0  0  0  0
   -5.4416   -2.4223   -3.5034 H   0  0  0  0  0  0  0  0  0  0  0  0
   -5.8082   -1.3748   -2.0910 H   0  0  0  0  0  0  0  0  0  0  0  0
   -5.9813   -0.7281   -3.7579 H   0  0  0  0  0  0  0  0  0  0  0  0
  1  3  1  0  0  0  0
  1  7  1  0  0  0  0
  1  2  2  0  0  0  0
 33 34  1  0  0  0  0
 34 42  1  0  0  0  0
 34 35  2  0  0  0  0
  8  9  1  0  0  0  0
  9 17  1  0  0  0  0
  9 10  2  0  0  0  0
 18 19  1  0  0  0  0
 19 32  1  0  0  0  0
 19 20  2  0  0  0  0
 22 23  1  0  0  0  0
 23 24  1  0  0  0  0
 23 25  2  0  0  0  0
 33 36  1  0  0  0  0
  8 11  1  0  0  0  0
 42 43  1  0  0  0  0
 21 22  1  0  0  0  0
 18 21  1  0  0  0  0
 32 33  1  0  0  0  0
  7  8  1  0  0  0  0
 17 18  1  0  0  0  0
  3  4  1  0  0  0  0
  3  5  1  0  0  0  0
  3  6  1  0  0  0  0
 36 39  1  0  0  0  0
 36 40  1  0  0  0  0
 36 41  1  0  0  0  0
 11 14  1  0  0  0  0
 11 15  1  0  0  0  0
 11 16  1  0  0  0  0
 43 45  1  0  0  0  0
 43 46  1  0  0  0  0
 43 47  1  0  0  0  0
 22 30  1  0  0  0  0
 22 31  1  0  0  0  0
 21 28  1  0  0  0  0
 21 29  1  0  0  0  0
 33 38  1  0  0  0  0
  8 13  1  0  0  0  0
 18 27  1  0  0  0  0
 42 44  1  0  0  0  0
  7 12  1  0  0  0  0
 32 37  1  0  0  0  0
 17 26  1  0  0  0  0
M  CHG  1  24  -1
M  END
$$$$

  -OEChem-05262214473D

 47 46  0     1  0  0  0  0  0999 V2000
    0.5093   -4.7265    3.0306 C   0  0  0  0  0  0  0  0  0  0  0  0
    1.2735   -4.4402    3.9448 O   0  0  0  0  0  0  0  0  0  0  0  0
   -0.4465   -5.8608    3.1982 C   0  0  0  0  0  0  0  0  0  0  0  0
   -0.0219   -6.8213    2.8645 H   0  0  0  0  0  0  0  0  0  0  0  0
   -0.7314   -6.0185    4.2509 H   0  0  0  0  0  0  0  0  0  0  0  0
   -1.3983   -5.7596    2.6527 H   0  0  0  0  0  0  0  0  0  0  0  0
    0.4252   -4.0886    1.8040 N   0  0  0  0  0  0  0  0  0  0  0  0
    1.2532   -2.9707    1.4349 C   0  0  2  0  0  0  0  0  0  0  0  0
    0.3395   -1.8293    1.0083 C   0  0  0  0  0  0  0  0  0  0  0  0
   -0.8136   -2.0027    0.6194 O   0  0  0  0  0  0  0  0  0  0  0  0
    2.2176   -3.3411    0.3189 C   0  0  0  0  0  0  0  0  0  0  0  0
   -0.2574   -4.4279    1.1287 H   0  0  0  0  0  0  0  0  0  0  0  0
    1.8087   -2.6785    2.3327 H   0  0  0  0  0  0  0  0  0  0  0  0
    1.6793   -3.6366   -0.5890 H   0  0  0  0  0  0  0  0  0  0  0  0
    2.8662   -2.4980    0.0589 H   0  0  0  0  0  0  0  0  0  0  0  0
    2.8538   -4.1816    0.6166 H   0  0  0  0  0  0  0  0  0  0  0  0
    0.9758   -0.5952    1.0708 N   0  0  0  0  0  0  0  0  0  0  0  0
    0.3258    0.6374    0.7059 C   0  0  2  0  0  0  0  0  0  0  0  0
   -0.0940    0.5193   -0.7555 C   0  0  0  0  0  0  0  0  0  0  0  0
    0.6139    0.8942   -1.6880 O   0  0  0  0  0  0  0  0  0  0  0  0
    1.2435    1.8502    0.9013 C   0  0  0  0  0  0  0  0  0  0  0  0
    1.5763    2.1324    2.3658 C   0  0  0  0  0  0  0  0  0  0  0  0
    2.5098    3.3182    2.6309 C   0  0  0  0  0  0  0  0  0  0  0  0
    3.0030    3.8353    1.5873 O   0  5  0  0  0  0  0  0  0  0  0  0
    2.6664    3.6483    3.8386 O   0  0  0  0  0  0  0  0  0  0  0  0
    1.9288   -0.5463    1.4242 H   0  0  0  0  0  0  0  0  0  0  0  0
   -0.5742    0.7133    1.3257 H   0  0  0  0  0  0  0  0  0  0  0  0
    0.7883    2.7416    0.4521 H   0  0  0  0  0  0  0  0  0  0  0  0
    2.1834    1.6852    0.3578 H   0  0  0  0  0  0  0  0  0  0  0  0
    0.6522    2.2679    2.9402 H   0  0  0  0  0  0  0  0  0  0  0  0
    2.0760    1.2489    2.7833 H   0  0  0  0  0  0  0  0  0  0  0  0
   -1.3698   -0.0103   -0.8906 N   0  0  0  0  0  0  0  0  0  0  0  0
   -2.0036   -0.2092   -2.1734 C   0  0  2  0  0  0  0  0  0  0  0  0
   -3.5008   -0.3619   -1.9396 C   0  0  0  0  0  0  0  0  0  0  0  0
   -3.9793   -0.7112   -0.8625 O   0  0  0  0  0  0  0  0  0  0  0  0
   -1.4379   -1.4272   -2.8871 C   0  0  0  0  0  0  0  0  0  0  0  0
   -1.8770   -0.3071   -0.0622 H   0  0  0  0  0  0  0  0  0  0  0  0
   -1.8157    0.6950   -2.7626 H   0  0  0  0  0  0  0  0  0  0  0  0
   -1.6166   -2.3428   -2.3117 H   0  0  0  0  0  0  0  0  0  0  0  0
   -1.8991   -1.5600   -3.8713 H   0  0  0  0  0  0  0  0  0  0  0  0
   -0.3561   -1.3289   -3.0278 H   0  0  0  0  0  0  0  0  0  0  0  0
   -4.2372   -0.1040   -3.0874 N   0  0  0  0  0  0  0  0  0  0  0  0
   -5.6781   -0.1941   -3.1258 C   0  0  0  0  0  0  0  0  0  0  0  0
   -3.7585    0.1980   -3.9308 H   0  0  0  0  0  0  0  0  0  0  0  0
   -5.9745   -1.2029   -3.4489 H   0  0  0  0  0  0  0  0  0  0  0  0
   -6.0846    0.0038   -2.1230 H   0  0  0  0  0  0  0  0  0  0  0  0
   -6.0730    0.5486   -3.8347 H   0  0  0  0  0  0  0  0  0  0  0  0
  1  3  1  0  0  0  0
  1  7  1  0  0  0  0
  1  2  2  0  0  0  0
 33 34  1  0  0  0  0
 34 42  1  0  0  0  0
 34 35  2  0  0  0  0
  8  9  1  0  0  0  0
  9 17  1  0  0  0  0
  9 10  2  0  0  0  0
 18 19  1  0  0  0  0
 19 32  1  0  0  0  0
 19 20  2  0  0  0  0
 22 23  1  0  0  0  0
 23 24  1  0  0  0  0
 23 25  2  0  0  0  0
 33 36  1  0  0  0  0
  8 11  1  0  0  0  0
 42 43  1  0  0  0  0
 21 22  1  0  0  0  0
 18 21  1  0  0  0  0
 32 33  1  0  0  0  0
  7  8  1  0  0  0  0
 17 18  1  0  0  0  0
  3  4  1  0  0  0  0
  3  5  1  0  0  0  0
  3  6  1  0  0  0  0
 36 39  1  0  0  0  0
 36 40  1  0  0  0  0
 36 41  1  0  0  0  0
 11 14  1  0  0  0  0
 11 15  1  0  0  0  0
 11 16  1  0  0  0  0
 43 45  1  0  0  0  0
 43 46  1  0  0  0  0
 43 47  1  0  0  0  0
 22 30  1  0  0  0  0
 22 31  1  0  0  0  0
 21 28  1  0  0  0  0
 21 29  1  0  0  0  0
 33 38  1  0  0  0  0
  8 13  1  0  0  0  0
 18 27  1  0  0  0  0
 42 44  1  0  0  0  0
  7 12  1  0  0  0  0
 32 37  1  0  0  0  0
 17 26  1  0  0  0  0
M  CHG  1  24  -1
M  END
$$$$

  -OEChem-05262214473D

 47 46  0     1  0  0  0  0  0999 V2000
    0.5093   -4.7265    3.0306 C   0  0  0  0  0  0  0  0  0  0  0  0
    1.2735   -4.4402    3.9448 O   0  0  0  0  0  0  0  0  0  0  0  0
   -0.4465   -5.8608    3.1982 C   0  0  0  0  0  0  0  0  0  0  0  0
   -0.0219   -6.8213    2.8645 H   0  0  0  0  0  0  0  0  0  0  0  0
   -0.7314   -6.0185    4.2509 H   0  0  0  0  0  0  0  0  0  0  0  0
   -1.3983   -5.7596    2.6527 H   0  0  0  0  0  0  0  0  0  0  0  0
    0.4252   -4.0886    1.8040 N   0  0  0  0  0  0  0  0  0  0  0  0
    1.2532   -2.9707    1.4349 C   0  0  2  0  0  0  0  0  0  0  0  0
    0.3395   -1.8293    1.0083 C   0  0  0  0  0  0  0  0  0  0  0  0
   -0.8136   -2.0027    0.6194 O   0  0  0  0  0  0  0  0  0  0  0  0
    2.2176   -3.3411    0.3189 C   0  0  0  0  0  0  0  0  0  0  0  0
   -0.2574   -4.4279    1.1287 H   0  0  0  0  0  0  0  0  0  0  0  0
    1.8087   -2.6785    2.3327 H   0  0  0  0  0  0  0  0  0  0  0  0
    1.6793   -3.6366   -0.5890 H   0  0  0  0  0  0  0  0  0  0  0  0
    2.8662   -2.4980    0.0589 H   0  0  0  0  0  0  0  0  0  0  0  0
    2.8538   -4.1816    0.6166 H   0  0  0  0  0  0  0  0  0  0  0  0
    0.9758   -0.5952    1.0708 N   0  0  0  0  0  0  0  0  0  0  0  0
    0.3258    0.6374    0.7059 C   0  0  2  0  0  0  0  0  0  0  0  0
   -0.0940    0.5193   -0.7555 C   0  0  0  0  0  0  0  0  0  0  0  0
    0.6951    0.6377   -1.6906 O   0  0  0  0  0  0  0  0  0  0  0  0
    1.2435    1.8502    0.9013 C   0  0  0  0  0  0  0  0  0  0  0  0
    1.5763    2.1324    2.3658 C   0  0  0  0  0  0  0  0  0  0  0  0
    2.5098    3.3182    2.6309 C   0  0  0  0  0  0  0  0  0  0  0  0
    3.0030    3.8353    1.5873 O   0  5  0  0  0  0  0  0  0  0  0  0
    2.6664    3.6483    3.8386 O   0  0  0  0  0  0  0  0  0  0  0  0
    1.9288   -0.5463    1.4242 H   0  0  0  0  0  0  0  0  0  0  0  0
   -0.5742    0.7133    1.3257 H   0  0  0  0  0  0  0  0  0  0  0  0
    0.7883    2.7416    0.4521 H   0  0  0  0  0  0  0  0  0  0  0  0
    2.1834    1.6852    0.3578 H   0  0  0  0  0  0  0  0  0  0  0  0
    0.6522    2.2679    2.9402 H   0  0  0  0  0  0  0  0  0  0  0  0
    2.0760    1.2489    2.7833 H   0  0  0  0  0  0  0  0  0  0  0  0
   -1.4599    0.3132   -0.8909 N   0  0  0  0  0  0  0  0  0  0  0  0
   -2.1090    0.1831   -2.1748 C   0  0  2  0  0  0  0  0  0  0  0  0
   -3.5996    0.4231   -1.9746 C   0  0  0  0  0  0  0  0  0  0  0  0
   -4.1618    0.2834   -0.8905 O   0  0  0  0  0  0  0  0  0  0  0  0
   -1.8562   -1.1861   -2.7864 C   0  0  0  0  0  0  0  0  0  0  0  0
   -2.0340    0.2130   -0.0591 H   0  0  0  0  0  0  0  0  0  0  0  0
   -1.6956    0.9667   -2.8191 H   0  0  0  0  0  0  0  0  0  0  0  0
   -2.2634   -1.9842   -2.1549 H   0  0  0  0  0  0  0  0  0  0  0  0
   -2.3250   -1.2731   -3.7721 H   0  0  0  0  0  0  0  0  0  0  0  0
   -0.7824   -1.3691   -2.9021 H   0  0  0  0  0  0  0  0  0  0  0  0
   -4.2360    0.7696   -3.1583 N   0  0  0  0  0  0  0  0  0  0  0  0
   -5.6535    1.0361   -3.2323 C   0  0  0  0  0  0  0  0  0  0  0  0
   -3.6879    0.8808   -4.0063 H   0  0  0  0  0  0  0  0  0  0  0  0
   -6.1879    0.1109   -3.4937 H   0  0  0  0  0  0  0  0  0  0  0  0
   -6.0091    1.4018   -2.2577 H   0  0  0  0  0  0  0  0  0  0  0  0
   -5.8434    1.7990   -4.0016 H   0  0  0  0  0  0  0  0  0  0  0  0
  1  3  1  0  0  0  0
  1  7  1  0  0  0  0
  1  2  2  0  0  0  0
 33 34  1  0  0  0  0
 34 42  1  0  0  0  0
 34 35  2  0  0  0  0
  8  9  1  0  0  0  0
  9 17  1  0  0  0  0
  9 10  2  0  0  0  0
 18 19  1  0  0  0  0
 19 32  1  0  0  0  0
 19 20  2  0  0  0  0
 22 23  1  0  0  0  0
 23 24  1  0  0  0  0
 23 25  2  0  0  0  0
 33 36  1  0  0  0  0
  8 11  1  0  0  0  0
 42 43  1  0  0  0  0
 21 22  1  0  0  0  0
 18 21  1  0  0  0  0
 32 33  1  0  0  0  0
  7  8  1  0  0  0  0
 17 18  1  0  0  0  0
  3  4  1  0  0  0  0
  3  5  1  0  0  0  0
  3  6  1  0  0  0  0
 36 39  1  0  0  0  0
 36 40  1  0  0  0  0
 36 41  1  0  0  0  0
 11 14  1  0  0  0  0
 11 15  1  0  0  0  0
 11 16  1  0  0  0  0
 43 45  1  0  0  0  0
 43 46  1  0  0  0  0
 43 47  1  0  0  0  0
 22 30  1  0  0  0  0
 22 31  1  0  0  0  0
 21 28  1  0  0  0  0
 21 29  1  0  0  0  0
 33 38  1  0  0  0  0
  8 13  1  0  0  0  0
 18 27  1  0  0  0  0
 42 44  1  0  0  0  0
  7 12  1  0  0  0  0
 32 37  1  0  0  0  0
 17 26  1  0  0  0  0
M  CHG  1  24  -1
M  END
$$$$

  -OEChem-05262214473D

 47 46  0     1  0  0  0  0  0999 V2000
    0.5093   -4.7265    3.0306 C   0  0  0  0  0  0  0  0  0  0  0  0
    1.2735   -4.4402    3.9448 O   0  0  0  0  0  0  0  0  0  0  0  0
   -0.4465   -5.8608    3.1982 C   0  0  0  0  0  0  0  0  0  0  0  0
   -0.0219   -6.8213    2.8645 H   0  0  0  0  0  0  0  0  0  0  0  0
   -0.7314   -6.0185    4.2509 H   0  0  0  0  0  0  0  0  0  0  0  0
   -1.3983   -5.7596    2.6527 H   0  0  0  0  0  0  0  0  0  0  0  0
    0.4252   -4.0886    1.8040 N   0  0  0  0  0  0  0  0  0  0  0  0
    1.2532   -2.9707    1.4349 C   0  0  2  0  0  0  0  0  0  0  0  0
    0.3395   -1.8293    1.0083 C   0  0  0  0  0  0  0  0  0  0  0  0
   -0.8136   -2.0027    0.6194 O   0  0  0  0  0  0  0  0  0  0  0  0
    2.2176   -3.3411    0.3189 C   0  0  0  0  0  0  0  0  0  0  0  0
   -0.2574   -4.4279    1.1287 H   0  0  0  0  0  0  0  0  0  0  0  0
    1.8087   -2.6785    2.3327 H   0  0  0  0  0  0  0  0  0  0  0  0
    1.6793   -3.6366   -0.5890 H   0  0  0  0  0  0  0  0  0  0  0  0
    2.8662   -2.4980    0.0589 H   0  0  0  0  0  0  0  0  0  0  0  0
    2.8538   -4.1816    0.6166 H   0  0  0  0  0  0  0  0  0  0  0  0
    0.9758   -0.5952    1.0708 N   0  0  0  0  0  0  0  0  0  0  0  0
    0.3258    0.6374    0.7059 C   0  0  2  0  0  0  0  0  0  0  0  0
   -0.0940    0.5193   -0.7555 C   0  0  0  0  0  0  0  0  0  0  0  0
    0.7100    0.3696   -1.6733 O   0  0  0  0  0  0  0  0  0  0  0  0
    1.2435    1.8502    0.9013 C   0  0  0  0  0  0  0  0  0  0  0  0
    1.5763    2.1324    2.3658 C   0  0  0  0  0  0  0  0  0  0  0  0
    2.5098    3.3182    2.6309 C   0  0  0  0  0  0  0  0  0  0  0  0
    3.0030    3.8353    1.5873 O   0  5  0  0  0  0  0  0  0  0  0  0
    2.6664    3.6483    3.8386 O   0  0  0  0  0  0  0  0  0  0  0  0
    1.9288   -0.5463    1.4242 H   0  0  0  0  0  0  0  0  0  0  0  0
   -0.5742    0.7133    1.3257 H   0  0  0  0  0  0  0  0  0  0  0  0
    0.7883    2.7416    0.4521 H   0  0  0  0  0  0  0  0  0  0  0  0
    2.1834    1.6852    0.3578 H   0  0  0  0  0  0  0  0  0  0  0  0
    0.6522    2.2679    2.9402 H   0  0  0  0  0  0  0  0  0  0  0  0
    2.0760    1.2489    2.7833 H   0  0  0  0  0  0  0  0  0  0  0  0
   -1.4666    0.6480   -0.9160 N   0  0  0  0  0  0  0  0  0  0  0  0
   -2.1135    0.5881   -2.2062 C   0  0  2  0  0  0  0  0  0  0  0  0
   -3.4996    1.2033   -2.0664 C   0  0  0  0  0  0  0  0  0  0  0  0
   -4.0909    1.2874   -0.9919 O   0  0  0  0  0  0  0  0  0  0  0  0
   -2.2025   -0.8424   -2.7147 C   0  0  0  0  0  0  0  0  0  0  0  0
   -2.0568    0.7545   -0.0963 H   0  0  0  0  0  0  0  0  0  0  0  0
   -1.5111    1.1954   -2.8905 H   0  0  0  0  0  0  0  0  0  0  0  0
   -2.8023   -1.4662   -2.0419 H   0  0  0  0  0  0  0  0  0  0  0  0
   -2.6672   -0.8832   -3.7053 H   0  0  0  0  0  0  0  0  0  0  0  0
   -1.2067   -1.2932   -2.7863 H   0  0  0  0  0  0  0  0  0  0  0  0
   -4.0167    1.6082   -3.2890 N   0  0  0  0  0  0  0  0  0  0  0  0
   -5.3225    2.2107   -3.4222 C   0  0  0  0  0  0  0  0  0  0  0  0
   -3.4489    1.5175   -4.1264 H   0  0  0  0  0  0  0  0  0  0  0  0
   -6.0673    1.4297   -3.6349 H   0  0  0  0  0  0  0  0  0  0  0  0
   -5.5867    2.7239   -2.4858 H   0  0  0  0  0  0  0  0  0  0  0  0
   -5.3082    2.9380   -4.2474 H   0  0  0  0  0  0  0  0  0  0  0  0
  1  3  1  0  0  0  0
  1  7  1  0  0  0  0
  1  2  2  0  0  0  0
 33 34  1  0  0  0  0
 34 42  1  0  0  0  0
 34 35  2  0  0  0  0
  8  9  1  0  0  0  0
  9 17  1  0  0  0  0
  9 10  2  0  0  0  0
 18 19  1  0  0  0  0
 19 32  1  0  0  0  0
 19 20  2  0  0  0  0
 22 23  1  0  0  0  0
 23 24  1  0  0  0  0
 23 25  2  0  0  0  0
 33 36  1  0  0  0  0
  8 11  1  0  0  0  0
 42 43  1  0  0  0  0
 21 22  1  0  0  0  0
 18 21  1  0  0  0  0
 32 33  1  0  0  0  0
  7  8  1  0  0  0  0
 17 18  1  0  0  0  0
  3  4  1  0  0  0  0
  3  5  1  0  0  0  0
  3  6  1  0  0  0  0
 36 39  1  0  0  0  0
 36 40  1  0  0  0  0
 36 41  1  0  0  0  0
 11 14  1  0  0  0  0
 11 15  1  0  0  0  0
 11 16  1  0  0  0  0
 43 45  1  0  0  0  0
 43 46  1  0  0  0  0
 43 47  1  0  0  0  0
 22 30  1  0  0  0  0
 22 31  1  0  0  0  0
 21 28  1  0  0  0  0
 21 29  1  0  0  0  0
 33 38  1  0  0  0  0
  8 13  1  0  0  0  0
 18 27  1  0  0  0  0
 42 44  1  0  0  0  0
  7 12  1  0  0  0  0
 32 37  1  0  0  0  0
 17 26  1  0  0  0  0
M  CHG  1  24  -1
M  END
$$$$

  -OEChem-05262214473D

 47 46  0     1  0  0  0  0  0999 V2000
    0.5093   -4.7265    3.0306 C   0  0  0  0  0  0  0  0  0  0  0  0
    1.2735   -4.4402    3.9448 O   0  0  0  0  0  0  0  0  0  0  0  0
   -0.4465   -5.8608    3.1982 C   0  0  0  0  0  0  0  0  0  0  0  0
   -0.0219   -6.8213    2.8645 H   0  0  0  0  0  0  0  0  0  0  0  0
   -0.7314   -6.0185    4.2509 H   0  0  0  0  0  0  0  0  0  0  0  0
   -1.3983   -5.7596    2.6527 H   0  0  0  0  0  0  0  0  0  0  0  0
    0.4252   -4.0886    1.8040 N   0  0  0  0  0  0  0  0  0  0  0  0
    1.2532   -2.9707    1.4349 C   0  0  2  0  0  0  0  0  0  0  0  0
    0.3395   -1.8293    1.0083 C   0  0  0  0  0  0  0  0  0  0  0  0
   -0.8136   -2.0027    0.6194 O   0  0  0  0  0  0  0  0  0  0  0  0
    2.2176   -3.3411    0.3189 C   0  0  0  0  0  0  0  0  0  0  0  0
   -0.2574   -4.4279    1.1287 H   0  0  0  0  0  0  0  0  0  0  0  0
    1.8087   -2.6785    2.3327 H   0  0  0  0  0  0  0  0  0  0  0  0
    1.6793   -3.6366   -0.5890 H   0  0  0  0  0  0  0  0  0  0  0  0
    2.8662   -2.4980    0.0589 H   0  0  0  0  0  0  0  0  0  0  0  0
    2.8538   -4.1816    0.6166 H   0  0  0  0  0  0  0  0  0  0  0  0
    0.9758   -0.5952    1.0708 N   0  0  0  0  0  0  0  0  0  0  0  0
    0.3258    0.6374    0.7059 C   0  0  2  0  0  0  0  0  0  0  0  0
   -0.0940    0.5193   -0.7555 C   0  0  0  0  0  0  0  0  0  0  0  0
    0.6576    0.1081   -1.6371 O   0  0  0  0  0  0  0  0  0  0  0  0
    1.2435    1.8502    0.9013 C   0  0  0  0  0  0  0  0  0  0  0  0
    1.5763    2.1324    2.3658 C   0  0  0  0  0  0  0  0  0  0  0  0
    2.5098    3.3182    2.6309 C   0  0  0  0  0  0  0  0  0  0  0  0
    3.0030    3.8353    1.5873 O   0  5  0  0  0  0  0  0  0  0  0  0
    2.6664    3.6483    3.8386 O   0  0  0  0  0  0  0  0  0  0  0  0
    1.9288   -0.5463    1.4242 H   0  0  0  0  0  0  0  0  0  0  0  0
   -0.5742    0.7133    1.3257 H   0  0  0  0  0  0  0  0  0  0  0  0
    0.7883    2.7416    0.4521 H   0  0  0  0  0  0  0  0  0  0  0  0
    2.1834    1.6852    0.3578 H   0  0  0  0  0  0  0  0  0  0  0  0
    0.6522    2.2679    2.9402 H   0  0  0  0  0  0  0  0  0  0  0  0
    2.0760    1.2489    2.7833 H   0  0  0  0  0  0  0  0  0  0  0  0
   -1.3896    0.9712   -0.9642 N   0  0  0  0  0  0  0  0  0  0  0  0
   -2.0167    0.9781   -2.2655 C   0  0  2  0  0  0  0  0  0  0  0  0
   -3.2078    1.9256   -2.2086 C   0  0  0  0  0  0  0  0  0  0  0  0
   -3.7714    2.2323   -1.1601 O   0  0  0  0  0  0  0  0  0  0  0  0
   -2.4531   -0.4194   -2.6769 C   0  0  0  0  0  0  0  0  0  0  0  0
   -1.9438    1.2805   -0.1712 H   0  0  0  0  0  0  0  0  0  0  0  0
   -1.2747    1.3654   -2.9722 H   0  0  0  0  0  0  0  0  0  0  0  0
   -3.1967   -0.8241   -1.9805 H   0  0  0  0  0  0  0  0  0  0  0  0
   -2.9024   -0.4169   -3.6754 H   0  0  0  0  0  0  0  0  0  0  0  0
   -1.6001   -1.1065   -2.6884 H   0  0  0  0  0  0  0  0  0  0  0  0
   -3.5943    2.3544   -3.4706 N   0  0  0  0  0  0  0  0  0  0  0  0
   -4.7077    3.2497   -3.6828 C   0  0  0  0  0  0  0  0  0  0  0  0
   -3.0577    2.0647   -4.2829 H   0  0  0  0  0  0  0  0  0  0  0  0
   -5.6210    2.6636   -3.8628 H   0  0  0  0  0  0  0  0  0  0  0  0
   -4.8462    3.8798   -2.7919 H   0  0  0  0  0  0  0  0  0  0  0  0
   -4.5038    3.8879   -4.5552 H   0  0  0  0  0  0  0  0  0  0  0  0
  1  3  1  0  0  0  0
  1  7  1  0  0  0  0
  1  2  2  0  0  0  0
 33 34  1  0  0  0  0
 34 42  1  0  0  0  0
 34 35  2  0  0  0  0
  8  9  1  0  0  0  0
  9 17  1  0  0  0  0
  9 10  2  0  0  0  0
 18 19  1  0  0  0  0
 19 32  1  0  0  0  0
 19 20  2  0  0  0  0
 22 23  1  0  0  0  0
 23 24  1  0  0  0  0
 23 25  2  0  0  0  0
 33 36  1  0  0  0  0
  8 11  1  0  0  0  0
 42 43  1  0  0  0  0
 21 22  1  0  0  0  0
 18 21  1  0  0  0  0
 32 33  1  0  0  0  0
  7  8  1  0  0  0  0
 17 18  1  0  0  0  0
  3  4  1  0  0  0  0
  3  5  1  0  0  0  0
  3  6  1  0  0  0  0
 36 39  1  0  0  0  0
 36 40  1  0  0  0  0
 36 41  1  0  0  0  0
 11 14  1  0  0  0  0
 11 15  1  0  0  0  0
 11 16  1  0  0  0  0
 43 45  1  0  0  0  0
 43 46  1  0  0  0  0
 43 47  1  0  0  0  0
 22 30  1  0  0  0  0
 22 31  1  0  0  0  0
 21 28  1  0  0  0  0
 21 29  1  0  0  0  0
 33 38  1  0  0  0  0
  8 13  1  0  0  0  0
 18 27  1  0  0  0  0
 42 44  1  0  0  0  0
  7 12  1  0  0  0  0
 32 37  1  0  0  0  0
 17 26  1  0  0  0  0
M  CHG  1  24  -1
M  END
$$$$

  -OEChem-05262214473D

 47 46  0     1  0  0  0  0  0999 V2000
    0.5093   -4.7265    3.0306 C   0  0  0  0  0  0  0  0  0  0  0  0
    1.2735   -4.4402    3.9448 O   0  0  0  0  0  0  0  0  0  0  0  0
   -0.4465   -5.8608    3.1982 C   0  0  0  0  0  0  0  0  0  0  0  0
   -0.0219   -6.8213    2.8645 H   0  0  0  0  0  0  0  0  0  0  0  0
   -0.7314   -6.0185    4.2509 H   0  0  0  0  0  0  0  0  0  0  0  0
   -1.3983   -5.7596    2.6527 H   0  0  0  0  0  0  0  0  0  0  0  0
    0.4252   -4.0886    1.8040 N   0  0  0  0  0  0  0  0  0  0  0  0
    1.2532   -2.9707    1.4349 C   0  0  2  0  0  0  0  0  0  0  0  0
    0.3395   -1.8293    1.0083 C   0  0  0  0  0  0  0  0  0  0  0  0
   -0.8136   -2.0027    0.6194 O   0  0  0  0  0  0  0  0  0  0  0  0
    2.2176   -3.3411    0.3189 C   0  0  0  0  0  0  0  0  0  0  0  0
   -0.2574   -4.4279    1.1287 H   0  0  0  0  0  0  0  0  0  0  0  0
    1.8087   -2.6785    2.3327 H   0  0  0  0  0  0  0  0  0  0  0  0
    1.6793   -3.6366   -0.5890 H   0  0  0  0  0  0  0  0  0  0  0  0
    2.8662   -2.4980    0.0589 H   0  0  0  0  0  0  0  0  0  0  0  0
    2.8538   -4.1816    0.6166 H   0  0  0  0  0  0  0  0  0  0  0  0
    0.9758   -0.5952    1.0708 N   0  0  0  0  0  0  0  0  0  0  0  0
    0.3258    0.6374    0.7059 C   0  0  2  0  0  0  0  0  0  0  0  0
   -0.0940    0.5193   -0.7555 C   0  0  0  0  0  0  0  0  0  0  0  0
    0.5414   -0.1289   -1.5846 O   0  0  0  0  0  0  0  0  0  0  0  0
    1.2435    1.8502    0.9013 C   0  0  0  0  0  0  0  0  0  0  0  0
    1.5763    2.1324    2.3658 C   0  0  0  0  0  0  0  0  0  0  0  0
    2.5098    3.3182    2.6309 C   0  0  0  0  0  0  0  0  0  0  0  0
    3.0030    3.8353    1.5873 O   0  5  0  0  0  0  0  0  0  0  0  0
    2.6664    3.6483    3.8386 O   0  0  0  0  0  0  0  0  0  0  0  0
    1.9288   -0.5463    1.4242 H   0  0  0  0  0  0  0  0  0  0  0  0
   -0.5742    0.7133    1.3257 H   0  0  0  0  0  0  0  0  0  0  0  0
    0.7883    2.7416    0.4521 H   0  0  0  0  0  0  0  0  0  0  0  0
    2.1834    1.6852    0.3578 H   0  0  0  0  0  0  0  0  0  0  0  0
    0.6522    2.2679    2.9402 H   0  0  0  0  0  0  0  0  0  0  0  0
    2.0760    1.2489    2.7833 H   0  0  0  0  0  0  0  0  0  0  0  0
   -1.2341    1.2609   -1.0323 N   0  0  0  0  0  0  0  0  0  0  0  0
   -1.8254    1.3266   -2.3486 C   0  0  2  0  0  0  0  0  0  0  0  0
   -2.7439    2.5408   -2.3915 C   0  0  0  0  0  0  0  0  0  0  0  0
   -3.2250    3.0538   -1.3834 O   0  0  0  0  0  0  0  0  0  0  0  0
   -2.5911    0.0540   -2.6755 C   0  0  0  0  0  0  0  0  0  0  0  0
   -1.7027    1.7553   -0.2788 H   0  0  0  0  0  0  0  0  0  0  0  0
   -1.0025    1.4652   -3.0584 H   0  0  0  0  0  0  0  0  0  0  0  0
   -3.4196   -0.1017   -1.9749 H   0  0  0  0  0  0  0  0  0  0  0  0
   -3.0146    0.0939   -3.6845 H   0  0  0  0  0  0  0  0  0  0  0  0
   -1.9357   -0.8215   -2.6151 H   0  0  0  0  0  0  0  0  0  0  0  0
   -2.9976    2.9576   -3.6907 N   0  0  0  0  0  0  0  0  0  0  0  0
   -3.8509    4.0822   -3.9961 C   0  0  0  0  0  0  0  0  0  0  0  0
   -2.5410    2.4850   -4.4653 H   0  0  0  0  0  0  0  0  0  0  0  0
   -4.8792    3.7285   -4.1619 H   0  0  0  0  0  0  0  0  0  0  0  0
   -3.8381    4.7910   -3.1550 H   0  0  0  0  0  0  0  0  0  0  0  0
   -3.4850    4.5840   -4.9041 H   0  0  0  0  0  0  0  0  0  0  0  0
  1  3  1  0  0  0  0
  1  7  1  0  0  0  0
  1  2  2  0  0  0  0
 33 34  1  0  0  0  0
 34 42  1  0  0  0  0
 34 35  2  0  0  0  0
  8  9  1  0  0  0  0
  9 17  1  0  0  0  0
  9 10  2  0  0  0  0
 18 19  1  0  0  0  0
 19 32  1  0  0  0  0
 19 20  2  0  0  0  0
 22 23  1  0  0  0  0
 23 24  1  0  0  0  0
 23 25  2  0  0  0  0
 33 36  1  0  0  0  0
  8 11  1  0  0  0  0
 42 43  1  0  0  0  0
 21 22  1  0  0  0  0
 18 21  1  0  0  0  0
 32 33  1  0  0  0  0
  7  8  1  0  0  0  0
 17 18  1  0  0  0  0
  3  4  1  0  0  0  0
  3  5  1  0  0  0  0
  3  6  1  0  0  0  0
 36 39  1  0  0  0  0
 36 40  1  0  0  0  0
 36 41  1  0  0  0  0
 11 14  1  0  0  0  0
 11 15  1  0  0  0  0
 11 16  1  0  0  0  0
 43 45  1  0  0  0  0
 43 46  1  0  0  0  0
 43 47  1  0  0  0  0
 22 30  1  0  0  0  0
 22 31  1  0  0  0  0
 21 28  1  0  0  0  0
 21 29  1  0  0  0  0
 33 38  1  0  0  0  0
  8 13  1  0  0  0  0
 18 27  1  0  0  0  0
 42 44  1  0  0  0  0
  7 12  1  0  0  0  0
 32 37  1  0  0  0  0
 17 26  1  0  0  0  0
M  CHG  1  24  -1
M  END
$$$$

  -OEChem-05262214473D

 47 46  0     1  0  0  0  0  0999 V2000
    0.5093   -4.7265    3.0306 C   0  0  0  0  0  0  0  0  0  0  0  0
    1.2735   -4.4402    3.9448 O   0  0  0  0  0  0  0  0  0  0  0  0
   -0.4465   -5.8608    3.1982 C   0  0  0  0  0  0  0  0  0  0  0  0
   -0.0219   -6.8213    2.8645 H   0  0  0  0  0  0  0  0  0  0  0  0
   -0.7314   -6.0185    4.2509 H   0  0  0  0  0  0  0  0  0  0  0  0
   -1.3983   -5.7596    2.6527 H   0  0  0  0  0  0  0  0  0  0  0  0
    0.4252   -4.0886    1.8040 N   0  0  0  0  0  0  0  0  0  0  0  0
    1.2532   -2.9707    1.4349 C   0  0  2  0  0  0  0  0  0  0  0  0
    0.3395   -1.8293    1.0083 C   0  0  0  0  0  0  0  0  0  0  0  0
   -0.8136   -2.0027    0.6194 O   0  0  0  0  0  0  0  0  0  0  0  0
    2.2176   -3.3411    0.3189 C   0  0  0  0  0  0  0  0  0  0  0  0
   -0.2574   -4.4279    1.1287 H   0  0  0  0  0  0  0  0  0  0  0  0
    1.8087   -2.6785    2.3327 H   0  0  0  0  0  0  0  0  0  0  0  0
    1.6793   -3.6366   -0.5890 H   0  0  0  0  0  0  0  0  0  0  0  0
    2.8662   -2.4980    0.0589 H   0  0  0  0  0  0  0  0  0  0  0  0
    2.8538   -4.1816    0.6166 H   0  0  0  0  0  0  0  0  0  0  0  0
    0.9758   -0.5952    1.0708 N   0  0  0  0  0  0  0  0  0  0  0  0
    0.3258    0.6374    0.7059 C   0  0  2  0  0  0  0  0  0  0  0  0
   -0.0940    0.5193   -0.7555 C   0  0  0  0  0  0  0  0  0  0  0  0
    0.3693   -0.3252   -1.5193 O   0  0  0  0  0  0  0  0  0  0  0  0
    1.2435    1.8502    0.9013 C   0  0  0  0  0  0  0  0  0  0  0  0
    1.5763    2.1324    2.3658 C   0  0  0  0  0  0  0  0  0  0  0  0
    2.5098    3.3182    2.6309 C   0  0  0  0  0  0  0  0  0  0  0  0
    3.0030    3.8353    1.5873 O   0  5  0  0  0  0  0  0  0  0  0  0
    2.6664    3.6483    3.8386 O   0  0  0  0  0  0  0  0  0  0  0  0
    1.9288   -0.5463    1.4242 H   0  0  0  0  0  0  0  0  0  0  0  0
   -0.5742    0.7133    1.3257 H   0  0  0  0  0  0  0  0  0  0  0  0
    0.7883    2.7416    0.4521 H   0  0  0  0  0  0  0  0  0  0  0  0
    2.1834    1.6852    0.3578 H   0  0  0  0  0  0  0  0  0  0  0  0
    0.6522    2.2679    2.9402 H   0  0  0  0  0  0  0  0  0  0  0  0
    2.0760    1.2489    2.7833 H   0  0  0  0  0  0  0  0  0  0  0  0
   -1.0107    1.4973   -1.1156 N   0  0  0  0  0  0  0  0  0  0  0  0
   -1.5524    1.6099   -2.4499 C   0  0  2  0  0  0  0  0  0  0  0  0
   -2.1395    3.0069   -2.6028 C   0  0  0  0  0  0  0  0  0  0  0  0
   -2.4890    3.6959   -1.6466 O   0  0  0  0  0  0  0  0  0  0  0  0
   -2.6070    0.5457   -2.7107 C   0  0  0  0  0  0  0  0  0  0  0  0
   -1.3498    2.1464   -0.4118 H   0  0  0  0  0  0  0  0  0  0  0  0
   -0.7132    1.4880   -3.1433 H   0  0  0  0  0  0  0  0  0  0  0  0
   -3.4558    0.6518   -2.0253 H   0  0  0  0  0  0  0  0  0  0  0  0
   -2.9961    0.6144   -3.7319 H   0  0  0  0  0  0  0  0  0  0  0  0
   -2.1907   -0.4579   -2.5712 H   0  0  0  0  0  0  0  0  0  0  0  0
   -2.2672    3.3765   -3.9344 N   0  0  0  0  0  0  0  0  0  0  0  0
   -2.8105    4.6515   -4.3409 C   0  0  0  0  0  0  0  0  0  0  0  0
   -1.9340    2.7499   -4.6611 H   0  0  0  0  0  0  0  0  0  0  0  0
   -3.8926    4.5519   -4.5118 H   0  0  0  0  0  0  0  0  0  0  0  0
   -2.6312    5.3952   -3.5505 H   0  0  0  0  0  0  0  0  0  0  0  0
   -2.3213    4.9788   -5.2702 H   0  0  0  0  0  0  0  0  0  0  0  0
  1  3  1  0  0  0  0
  1  7  1  0  0  0  0
  1  2  2  0  0  0  0
 33 34  1  0  0  0  0
 34 42  1  0  0  0  0
 34 35  2  0  0  0  0
  8  9  1  0  0  0  0
  9 17  1  0  0  0  0
  9 10  2  0  0  0  0
 18 19  1  0  0  0  0
 19 32  1  0  0  0  0
 19 20  2  0  0  0  0
 22 23  1  0  0  0  0
 23 24  1  0  0  0  0
 23 25  2  0  0  0  0
 33 36  1  0  0  0  0
  8 11  1  0  0  0  0
 42 43  1  0  0  0  0
 21 22  1  0  0  0  0
 18 21  1  0  0  0  0
 32 33  1  0  0  0  0
  7  8  1  0  0  0  0
 17 18  1  0  0  0  0
  3  4  1  0  0  0  0
  3  5  1  0  0  0  0
  3  6  1  0  0  0  0
 36 39  1  0  0  0  0
 36 40  1  0  0  0  0
 36 41  1  0  0  0  0
 11 14  1  0  0  0  0
 11 15  1  0  0  0  0
 11 16  1  0  0  0  0
 43 45  1  0  0  0  0
 43 46  1  0  0  0  0
 43 47  1  0  0  0  0
 22 30  1  0  0  0  0
 22 31  1  0  0  0  0
 21 28  1  0  0  0  0
 21 29  1  0  0  0  0
 33 38  1  0  0  0  0
  8 13  1  0  0  0  0
 18 27  1  0  0  0  0
 42 44  1  0  0  0  0
  7 12  1  0  0  0  0
 32 37  1  0  0  0  0
 17 26  1  0  0  0  0
M  CHG  1  24  -1
M  END
$$$$

  -OEChem-05262214473D

 47 46  0     1  0  0  0  0  0999 V2000
    0.5093   -4.7265    3.0306 C   0  0  0  0  0  0  0  0  0  0  0  0
    1.2735   -4.4402    3.9448 O   0  0  0  0  0  0  0  0  0  0  0  0
   -0.4465   -5.8608    3.1982 C   0  0  0  0  0  0  0  0  0  0  0  0
   -0.0219   -6.8213    2.8645 H   0  0  0  0  0  0  0  0  0  0  0  0
   -0.7314   -6.0185    4.2509 H   0  0  0  0  0  0  0  0  0  0  0  0
   -1.3983   -5.7596    2.6527 H   0  0  0  0  0  0  0  0  0  0  0  0
    0.4252   -4.0886    1.8040 N   0  0  0  0  0  0  0  0  0  0  0  0
    1.2532   -2.9707    1.4349 C   0  0  2  0  0  0  0  0  0  0  0  0
    0.3395   -1.8293    1.0083 C   0  0  0  0  0  0  0  0  0  0  0  0
   -0.8136   -2.0027    0.6194 O   0  0  0  0  0  0  0  0  0  0  0  0
    2.2176   -3.3411    0.3189 C   0  0  0  0  0  0  0  0  0  0  0  0
   -0.2574   -4.4279    1.1287 H   0  0  0  0  0  0  0  0  0  0  0  0
    1.8087   -2.6785    2.3327 H   0  0  0  0  0  0  0  0  0  0  0  0
    1.6793   -3.6366   -0.5890 H   0  0  0  0  0  0  0  0  0  0  0  0
    2.8662   -2.4980    0.0589 H   0  0  0  0  0  0  0  0  0  0  0  0
    2.8538   -4.1816    0.6166 H   0  0  0  0  0  0  0  0  0  0  0  0
    0.9758   -0.5952    1.0708 N   0  0  0  0  0  0  0  0  0  0  0  0
    0.3258    0.6374    0.7059 C   0  0  2  0  0  0  0  0  0  0  0  0
   -0.4181    0.3935   -0.6029 C   0  0  0  0  0  0  0  0  0  0  0  0
   -0.3850   -0.6793   -1.2023 O   0  0  0  0  0  0  0  0  0  0  0  0
    1.3262    1.7882    0.5448 C   0  0  0  0  0  0  0  0  0  0  0  0
    1.9948    2.2019    1.8551 C   0  0  0  0  0  0  0  0  0  0  0  0
    3.0249    3.3324    1.7614 C   0  0  0  0  0  0  0  0  0  0  0  0
    3.2966    3.6918    0.5796 O   0  5  0  0  0  0  0  0  0  0  0  0
    3.4667    3.7793    2.8556 O   0  0  0  0  0  0  0  0  0  0  0  0
    1.9288   -0.5463    1.4242 H   0  0  0  0  0  0  0  0  0  0  0  0
   -0.4061    0.8513    1.4923 H   0  0  0  0  0  0  0  0  0  0  0  0
    0.8288    2.6582    0.0983 H   0  0  0  0  0  0  0  0  0  0  0  0
    2.1095    1.4913   -0.1654 H   0  0  0  0  0  0  0  0  0  0  0  0
    1.2323    2.4718    2.5955 H   0  0  0  0  0  0  0  0  0  0  0  0
    2.5288    1.3328    2.2603 H   0  0  0  0  0  0  0  0  0  0  0  0
   -1.0834    1.5289   -1.0442 N   0  0  0  0  0  0  0  0  0  0  0  0
   -1.8498    1.5618   -2.2682 C   0  0  2  0  0  0  0  0  0  0  0  0
   -2.0453    3.0200   -2.6616 C   0  0  0  0  0  0  0  0  0  0  0  0
   -1.9732    3.9472   -1.8577 O   0  0  0  0  0  0  0  0  0  0  0  0
   -3.1884    0.8595   -2.1019 C   0  0  0  0  0  0  0  0  0  0  0  0
   -1.0675    2.3694   -0.4741 H   0  0  0  0  0  0  0  0  0  0  0  0
   -1.2493    1.0544   -3.0311 H   0  0  0  0  0  0  0  0  0  0  0  0
   -3.8041    1.3537   -1.3415 H   0  0  0  0  0  0  0  0  0  0  0  0
   -3.7559    0.8603   -3.0383 H   0  0  0  0  0  0  0  0  0  0  0  0
   -3.0466   -0.1809   -1.7899 H   0  0  0  0  0  0  0  0  0  0  0  0
   -2.3525    3.1607   -4.0078 N   0  0  0  0  0  0  0  0  0  0  0  0
   -2.5961    4.4451   -4.6218 C   0  0  0  0  0  0  0  0  0  0  0  0
   -2.3726    2.3388   -4.6042 H   0  0  0  0  0  0  0  0  0  0  0  0
   -3.6736    4.6653   -4.5972 H   0  0  0  0  0  0  0  0  0  0  0  0
   -2.0500    5.2245   -4.0702 H   0  0  0  0  0  0  0  0  0  0  0  0
   -2.2500    4.4238   -5.6657 H   0  0  0  0  0  0  0  0  0  0  0  0
  1  3  1  0  0  0  0
  1  7  1  0  0  0  0
  1  2  2  0  0  0  0
 33 34  1  0  0  0  0
 34 42  1  0  0  0  0
 34 35  2  0  0  0  0
  8  9  1  0  0  0  0
  9 17  1  0  0  0  0
  9 10  2  0  0  0  0
 18 19  1  0  0  0  0
 19 32  1  0  0  0  0
 19 20  2  0  0  0  0
 22 23  1  0  0  0  0
 23 24  1  0  0  0  0
 23 25  2  0  0  0  0
 33 36  1  0  0  0  0
  8 11  1  0  0  0  0
 42 43  1  0  0  0  0
 21 22  1  0  0  0  0
 18 21  1  0  0  0  0
 32 33  1  0  0  0  0
  7  8  1  0  0  0  0
 17 18  1  0  0  0  0
  3  4  1  0  0  0  0
  3  5  1  0  0  0  0
  3  6  1  0  0  0  0
 36 39  1  0  0  0  0
 36 40  1  0  0  0  0
 36 41  1  0  0  0  0
 11 14  1  0  0  0  0
 11 15  1  0  0  0  0
 11 16  1  0  0  0  0
 43 45  1  0  0  0  0
 43 46  1  0  0  0  0
 43 47  1  0  0  0  0
 22 30  1  0  0  0  0
 22 31  1  0  0  0  0
 21 28  1  0  0  0  0
 21 29  1  0  0  0  0
 33 38  1  0  0  0  0
  8 13  1  0  0  0  0
 18 27  1  0  0  0  0
 42 44  1  0  0  0  0
  7 12  1  0  0  0  0
 32 37  1  0  0  0  0
 17 26  1  0  0  0  0
M  CHG  1  24  -1
M  END
$$$$

  -OEChem-05262214473D

 47 46  0     1  0  0  0  0  0999 V2000
    0.5093   -4.7265    3.0306 C   0  0  0  0  0  0  0  0  0  0  0  0
    1.2735   -4.4402    3.9448 O   0  0  0  0  0  0  0  0  0  0  0  0
   -0.4465   -5.8608    3.1982 C   0  0  0  0  0  0  0  0  0  0  0  0
   -0.0219   -6.8213    2.8645 H   0  0  0  0  0  0  0  0  0  0  0  0
   -0.7314   -6.0185    4.2509 H   0  0  0  0  0  0  0  0  0  0  0  0
   -1.3983   -5.7596    2.6527 H   0  0  0  0  0  0  0  0  0  0  0  0
    0.4252   -4.0886    1.8040 N   0  0  0  0  0  0  0  0  0  0  0  0
    1.2532   -2.9707    1.4349 C   0  0  2  0  0  0  0  0  0  0  0  0
    0.3395   -1.8293    1.0083 C   0  0  0  0  0  0  0  0  0  0  0  0
   -0.8136   -2.0027    0.6194 O   0  0  0  0  0  0  0  0  0  0  0  0
    2.2176   -3.3411    0.3189 C   0  0  0  0  0  0  0  0  0  0  0  0
   -0.2574   -4.4279    1.1287 H   0  0  0  0  0  0  0  0  0  0  0  0
    1.8087   -2.6785    2.3327 H   0  0  0  0  0  0  0  0  0  0  0  0
    1.6793   -3.6366   -0.5890 H   0  0  0  0  0  0  0  0  0  0  0  0
    2.8662   -2.4980    0.0589 H   0  0  0  0  0  0  0  0  0  0  0  0
    2.8538   -4.1816    0.6166 H   0  0  0  0  0  0  0  0  0  0  0  0
    0.9758   -0.5952    1.0708 N   0  0  0  0  0  0  0  0  0  0  0  0
    0.3258    0.6374    0.7059 C   0  0  2  0  0  0  0  0  0  0  0  0
   -0.4181    0.3935   -0.6029 C   0  0  0  0  0  0  0  0  0  0  0  0
   -0.6107   -0.7294   -1.0646 O   0  0  0  0  0  0  0  0  0  0  0  0
    1.3262    1.7882    0.5448 C   0  0  0  0  0  0  0  0  0  0  0  0
    1.9948    2.2019    1.8551 C   0  0  0  0  0  0  0  0  0  0  0  0
    3.0249    3.3324    1.7614 C   0  0  0  0  0  0  0  0  0  0  0  0
    3.2966    3.6918    0.5796 O   0  5  0  0  0  0  0  0  0  0  0  0
    3.4667    3.7793    2.8556 O   0  0  0  0  0  0  0  0  0  0  0  0
    1.9288   -0.5463    1.4242 H   0  0  0  0  0  0  0  0  0  0  0  0
   -0.4061    0.8513    1.4923 H   0  0  0  0  0  0  0  0  0  0  0  0
    0.8288    2.6582    0.0983 H   0  0  0  0  0  0  0  0  0  0  0  0
    2.1095    1.4913   -0.1654 H   0  0  0  0  0  0  0  0  0  0  0  0
    1.2323    2.4718    2.5955 H   0  0  0  0  0  0  0  0  0  0  0  0
    2.5288    1.3328    2.2603 H   0  0  0  0  0  0  0  0  0  0  0  0
   -0.7989    1.5794   -1.2153 N   0  0  0  0  0  0  0  0  0  0  0  0
   -1.5049    1.6192   -2.4749 C   0  0  2  0  0  0  0  0  0  0  0  0
   -1.3569    3.0204   -3.0530 C   0  0  0  0  0  0  0  0  0  0  0  0
   -1.1000    4.0062   -2.3650 O   0  0  0  0  0  0  0  0  0  0  0  0
   -2.9711    1.2557   -2.2992 C   0  0  0  0  0  0  0  0  0  0  0  0
   -0.6100    2.4632   -0.7516 H   0  0  0  0  0  0  0  0  0  0  0  0
   -1.0133    0.8970   -3.1359 H   0  0  0  0  0  0  0  0  0  0  0  0
   -3.4803    1.9682   -1.6400 H   0  0  0  0  0  0  0  0  0  0  0  0
   -3.4983    1.2585   -3.2589 H   0  0  0  0  0  0  0  0  0  0  0  0
   -3.0753    0.2596   -1.8557 H   0  0  0  0  0  0  0  0  0  0  0  0
   -1.5880    3.0475   -4.4212 N   0  0  0  0  0  0  0  0  0  0  0  0
   -1.5199    4.2624   -5.1994 C   0  0  0  0  0  0  0  0  0  0  0  0
   -1.7761    2.1792   -4.9135 H   0  0  0  0  0  0  0  0  0  0  0  0
   -2.5205    4.7150   -5.2618 H   0  0  0  0  0  0  0  0  0  0  0  0
   -0.8277    4.9683   -4.7172 H   0  0  0  0  0  0  0  0  0  0  0  0
   -1.1593    4.0292   -6.2121 H   0  0  0  0  0  0  0  0  0  0  0  0
  1  3  1  0  0  0  0
  1  7  1  0  0  0  0
  1  2  2  0  0  0  0
 33 34  1  0  0  0  0
 34 42  1  0  0  0  0
 34 35  2  0  0  0  0
  8  9  1  0  0  0  0
  9 17  1  0  0  0  0
  9 10  2  0  0  0  0
 18 19  1  0  0  0  0
 19 32  1  0  0  0  0
 19 20  2  0  0  0  0
 22 23  1  0  0  0  0
 23 24  1  0  0  0  0
 23 25  2  0  0  0  0
 33 36  1  0  0  0  0
  8 11  1  0  0  0  0
 42 43  1  0  0  0  0
 21 22  1  0  0  0  0
 18 21  1  0  0  0  0
 32 33  1  0  0  0  0
  7  8  1  0  0  0  0
 17 18  1  0  0  0  0
  3  4  1  0  0  0  0
  3  5  1  0  0  0  0
  3  6  1  0  0  0  0
 36 39  1  0  0  0  0
 36 40  1  0  0  0  0
 36 41  1  0  0  0  0
 11 14  1  0  0  0  0
 11 15  1  0  0  0  0
 11 16  1  0  0  0  0
 43 45  1  0  0  0  0
 43 46  1  0  0  0  0
 43 47  1  0  0  0  0
 22 30  1  0  0  0  0
 22 31  1  0  0  0  0
 21 28  1  0  0  0  0
 21 29  1  0  0  0  0
 33 38  1  0  0  0  0
  8 13  1  0  0  0  0
 18 27  1  0  0  0  0
 42 44  1  0  0  0  0
  7 12  1  0  0  0  0
 32 37  1  0  0  0  0
 17 26  1  0  0  0  0
M  CHG  1  24  -1
M  END
$$$$

  -OEChem-05262214473D

 47 46  0     1  0  0  0  0  0999 V2000
    0.5093   -4.7265    3.0306 C   0  0  0  0  0  0  0  0  0  0  0  0
    1.2735   -4.4402    3.9448 O   0  0  0  0  0  0  0  0  0  0  0  0
   -0.4465   -5.8608    3.1982 C   0  0  0  0  0  0  0  0  0  0  0  0
   -0.0219   -6.8213    2.8645 H   0  0  0  0  0  0  0  0  0  0  0  0
   -0.7314   -6.0185    4.2509 H   0  0  0  0  0  0  0  0  0  0  0  0
   -1.3983   -5.7596    2.6527 H   0  0  0  0  0  0  0  0  0  0  0  0
    0.4252   -4.0886    1.8040 N   0  0  0  0  0  0  0  0  0  0  0  0
    1.2532   -2.9707    1.4349 C   0  0  2  0  0  0  0  0  0  0  0  0
    0.3395   -1.8293    1.0083 C   0  0  0  0  0  0  0  0  0  0  0  0
   -0.8136   -2.0027    0.6194 O   0  0  0  0  0  0  0  0  0  0  0  0
    2.2176   -3.3411    0.3189 C   0  0  0  0  0  0  0  0  0  0  0  0
   -0.2574   -4.4279    1.1287 H   0  0  0  0  0  0  0  0  0  0  0  0
    1.8087   -2.6785    2.3327 H   0  0  0  0  0  0  0  0  0  0  0  0
    1.6793   -3.6366   -0.5890 H   0  0  0  0  0  0  0  0  0  0  0  0
    2.8662   -2.4980    0.0589 H   0  0  0  0  0  0  0  0  0  0  0  0
    2.8538   -4.1816    0.6166 H   0  0  0  0  0  0  0  0  0  0  0  0
    0.9758   -0.5952    1.0708 N   0  0  0  0  0  0  0  0  0  0  0  0
    0.3258    0.6374    0.7059 C   0  0  2  0  0  0  0  0  0  0  0  0
   -0.4181    0.3935   -0.6029 C   0  0  0  0  0  0  0  0  0  0  0  0
   -0.8456   -0.7103   -0.9347 O   0  0  0  0  0  0  0  0  0  0  0  0
    1.3262    1.7882    0.5448 C   0  0  0  0  0  0  0  0  0  0  0  0
    1.9948    2.2019    1.8551 C   0  0  0  0  0  0  0  0  0  0  0  0
    3.0249    3.3324    1.7614 C   0  0  0  0  0  0  0  0  0  0  0  0
    3.2966    3.6918    0.5796 O   0  5  0  0  0  0  0  0  0  0  0  0
    3.4667    3.7793    2.8556 O   0  0  0  0  0  0  0  0  0  0  0  0
    1.9288   -0.5463    1.4242 H   0  0  0  0  0  0  0  0  0  0  0  0
   -0.4061    0.8513    1.4923 H   0  0  0  0  0  0  0  0  0  0  0  0
    0.8288    2.6582    0.0983 H   0  0  0  0  0  0  0  0  0  0  0  0
    2.1095    1.4913   -0.1654 H   0  0  0  0  0  0  0  0  0  0  0  0
    1.2323    2.4718    2.5955 H   0  0  0  0  0  0  0  0  0  0  0  0
    2.5288    1.3328    2.2603 H   0  0  0  0  0  0  0  0  0  0  0  0
   -0.5058    1.5435   -1.3751 N   0  0  0  0  0  0  0  0  0  0  0  0
   -1.1504    1.5719   -2.6676 C   0  0  2  0  0  0  0  0  0  0  0  0
   -0.6756    2.8184   -3.4026 C   0  0  0  0  0  0  0  0  0  0  0  0
   -0.2225    3.8051   -2.8263 O   0  0  0  0  0  0  0  0  0  0  0  0
   -2.6650    1.5653   -2.5309 C   0  0  0  0  0  0  0  0  0  0  0  0
   -0.1358    2.4171   -1.0126 H   0  0  0  0  0  0  0  0  0  0  0  0
   -0.8160    0.6793   -3.2075 H   0  0  0  0  0  0  0  0  0  0  0  0
   -3.0187    2.4522   -1.9925 H   0  0  0  0  0  0  0  0  0  0  0  0
   -3.1519    1.5580   -3.5116 H   0  0  0  0  0  0  0  0  0  0  0  0
   -3.0024    0.6832   -1.9761 H   0  0  0  0  0  0  0  0  0  0  0  0
   -0.8575    2.7163   -4.7747 N   0  0  0  0  0  0  0  0  0  0  0  0
   -0.4970    3.7739   -5.6898 C   0  0  0  0  0  0  0  0  0  0  0  0
   -1.2226    1.8536   -5.1675 H   0  0  0  0  0  0  0  0  0  0  0  0
   -1.3682    4.4229   -5.8624 H   0  0  0  0  0  0  0  0  0  0  0  0
    0.3228    4.3676   -5.2592 H   0  0  0  0  0  0  0  0  0  0  0  0
   -0.1707    3.3368   -6.6450 H   0  0  0  0  0  0  0  0  0  0  0  0
  1  3  1  0  0  0  0
  1  7  1  0  0  0  0
  1  2  2  0  0  0  0
 33 34  1  0  0  0  0
 34 42  1  0  0  0  0
 34 35  2  0  0  0  0
  8  9  1  0  0  0  0
  9 17  1  0  0  0  0
  9 10  2  0  0  0  0
 18 19  1  0  0  0  0
 19 32  1  0  0  0  0
 19 20  2  0  0  0  0
 22 23  1  0  0  0  0
 23 24  1  0  0  0  0
 23 25  2  0  0  0  0
 33 36  1  0  0  0  0
  8 11  1  0  0  0  0
 42 43  1  0  0  0  0
 21 22  1  0  0  0  0
 18 21  1  0  0  0  0
 32 33  1  0  0  0  0
  7  8  1  0  0  0  0
 17 18  1  0  0  0  0
  3  4  1  0  0  0  0
  3  5  1  0  0  0  0
  3  6  1  0  0  0  0
 36 39  1  0  0  0  0
 36 40  1  0  0  0  0
 36 41  1  0  0  0  0
 11 14  1  0  0  0  0
 11 15  1  0  0  0  0
 11 16  1  0  0  0  0
 43 45  1  0  0  0  0
 43 46  1  0  0  0  0
 43 47  1  0  0  0  0
 22 30  1  0  0  0  0
 22 31  1  0  0  0  0
 21 28  1  0  0  0  0
 21 29  1  0  0  0  0
 33 38  1  0  0  0  0
  8 13  1  0  0  0  0
 18 27  1  0  0  0  0
 42 44  1  0  0  0  0
  7 12  1  0  0  0  0
 32 37  1  0  0  0  0
 17 26  1  0  0  0  0
M  CHG  1  24  -1
M  END
$$$$

  -OEChem-05262214473D

 47 46  0     1  0  0  0  0  0999 V2000
    0.5093   -4.7265    3.0306 C   0  0  0  0  0  0  0  0  0  0  0  0
    1.2735   -4.4402    3.9448 O   0  0  0  0  0  0  0  0  0  0  0  0
   -0.4465   -5.8608    3.1982 C   0  0  0  0  0  0  0  0  0  0  0  0
   -0.0219   -6.8213    2.8645 H   0  0  0  0  0  0  0  0  0  0  0  0
   -0.7314   -6.0185    4.2509 H   0  0  0  0  0  0  0  0  0  0  0  0
   -1.3983   -5.7596    2.6527 H   0  0  0  0  0  0  0  0  0  0  0  0
    0.4252   -4.0886    1.8040 N   0  0  0  0  0  0  0  0  0  0  0  0
    1.2532   -2.9707    1.4349 C   0  0  2  0  0  0  0  0  0  0  0  0
    0.3395   -1.8293    1.0083 C   0  0  0  0  0  0  0  0  0  0  0  0
   -0.8136   -2.0027    0.6194 O   0  0  0  0  0  0  0  0  0  0  0  0
    2.2176   -3.3411    0.3189 C   0  0  0  0  0  0  0  0  0  0  0  0
   -0.2574   -4.4279    1.1287 H   0  0  0  0  0  0  0  0  0  0  0  0
    1.8087   -2.6785    2.3327 H   0  0  0  0  0  0  0  0  0  0  0  0
    1.6793   -3.6366   -0.5890 H   0  0  0  0  0  0  0  0  0  0  0  0
    2.8662   -2.4980    0.0589 H   0  0  0  0  0  0  0  0  0  0  0  0
    2.8538   -4.1816    0.6166 H   0  0  0  0  0  0  0  0  0  0  0  0
    0.9758   -0.5952    1.0708 N   0  0  0  0  0  0  0  0  0  0  0  0
    0.3258    0.6374    0.7059 C   0  0  2  0  0  0  0  0  0  0  0  0
   -0.4181    0.3935   -0.6029 C   0  0  0  0  0  0  0  0  0  0  0  0
   -1.0736   -0.6233   -0.8213 O   0  0  0  0  0  0  0  0  0  0  0  0
    1.3262    1.7882    0.5448 C   0  0  0  0  0  0  0  0  0  0  0  0
    1.9948    2.2019    1.8551 C   0  0  0  0  0  0  0  0  0  0  0  0
    3.0249    3.3324    1.7614 C   0  0  0  0  0  0  0  0  0  0  0  0
    3.2966    3.6918    0.5796 O   0  5  0  0  0  0  0  0  0  0  0  0
    3.4667    3.7793    2.8556 O   0  0  0  0  0  0  0  0  0  0  0  0
    1.9288   -0.5463    1.4242 H   0  0  0  0  0  0  0  0  0  0  0  0
   -0.4061    0.8513    1.4923 H   0  0  0  0  0  0  0  0  0  0  0  0
    0.8288    2.6582    0.0983 H   0  0  0  0  0  0  0  0  0  0  0  0
    2.1095    1.4913   -0.1654 H   0  0  0  0  0  0  0  0  0  0  0  0
    1.2323    2.4718    2.5955 H   0  0  0  0  0  0  0  0  0  0  0  0
    2.5288    1.3328    2.2603 H   0  0  0  0  0  0  0  0  0  0  0  0
   -0.2242    1.4234   -1.5129 N   0  0  0  0  0  0  0  0  0  0  0  0
   -0.8105    1.4231   -2.8331 C   0  0  2  0  0  0  0  0  0  0  0  0
   -0.0479    2.4278   -3.6866 C   0  0  0  0  0  0  0  0  0  0  0  0
    0.5996    3.3578   -3.2102 O   0  0  0  0  0  0  0  0  0  0  0  0
   -2.2910    1.7671   -2.7810 C   0  0  0  0  0  0  0  0  0  0  0  0
    0.3228    2.2344   -1.2392 H   0  0  0  0  0  0  0  0  0  0  0  0
   -0.6708    0.4161   -3.2409 H   0  0  0  0  0  0  0  0  0  0  0  0
   -2.4508    2.7726   -2.3750 H   0  0  0  0  0  0  0  0  0  0  0  0
   -2.7403    1.7385   -3.7792 H   0  0  0  0  0  0  0  0  0  0  0  0
   -2.8329    1.0609   -2.1427 H   0  0  0  0  0  0  0  0  0  0  0  0
   -0.2108    2.1894   -5.0441 N   0  0  0  0  0  0  0  0  0  0  0  0
    0.4028    3.0130   -6.0595 C   0  0  0  0  0  0  0  0  0  0  0  0
   -0.7497    1.3841   -5.3488 H   0  0  0  0  0  0  0  0  0  0  0  0
   -0.2952    3.8091   -6.3579 H   0  0  0  0  0  0  0  0  0  0  0  0
    1.3231    3.4635   -5.6593 H   0  0  0  0  0  0  0  0  0  0  0  0
    0.6483    2.3937   -6.9348 H   0  0  0  0  0  0  0  0  0  0  0  0
  1  3  1  0  0  0  0
  1  7  1  0  0  0  0
  1  2  2  0  0  0  0
 33 34  1  0  0  0  0
 34 42  1  0  0  0  0
 34 35  2  0  0  0  0
  8  9  1  0  0  0  0
  9 17  1  0  0  0  0
  9 10  2  0  0  0  0
 18 19  1  0  0  0  0
 19 32  1  0  0  0  0
 19 20  2  0  0  0  0
 22 23  1  0  0  0  0
 23 24  1  0  0  0  0
 23 25  2  0  0  0  0
 33 36  1  0  0  0  0
  8 11  1  0  0  0  0
 42 43  1  0  0  0  0
 21 22  1  0  0  0  0
 18 21  1  0  0  0  0
 32 33  1  0  0  0  0
  7  8  1  0  0  0  0
 17 18  1  0  0  0  0
  3  4  1  0  0  0  0
  3  5  1  0  0  0  0
  3  6  1  0  0  0  0
 36 39  1  0  0  0  0
 36 40  1  0  0  0  0
 36 41  1  0  0  0  0
 11 14  1  0  0  0  0
 11 15  1  0  0  0  0
 11 16  1  0  0  0  0
 43 45  1  0  0  0  0
 43 46  1  0  0  0  0
 43 47  1  0  0  0  0
 22 30  1  0  0  0  0
 22 31  1  0  0  0  0
 21 28  1  0  0  0  0
 21 29  1  0  0  0  0
 33 38  1  0  0  0  0
  8 13  1  0  0  0  0
 18 27  1  0  0  0  0
 42 44  1  0  0  0  0
  7 12  1  0  0  0  0
 32 37  1  0  0  0  0
 17 26  1  0  0  0  0
M  CHG  1  24  -1
M  END
$$$$

  -OEChem-05262214473D

 47 46  0     1  0  0  0  0  0999 V2000
    0.5093   -4.7265    3.0306 C   0  0  0  0  0  0  0  0  0  0  0  0
    1.2735   -4.4402    3.9448 O   0  0  0  0  0  0  0  0  0  0  0  0
   -0.4465   -5.8608    3.1982 C   0  0  0  0  0  0  0  0  0  0  0  0
   -0.0219   -6.8213    2.8645 H   0  0  0  0  0  0  0  0  0  0  0  0
   -0.7314   -6.0185    4.2509 H   0  0  0  0  0  0  0  0  0  0  0  0
   -1.3983   -5.7596    2.6527 H   0  0  0  0  0  0  0  0  0  0  0  0
    0.4252   -4.0886    1.8040 N   0  0  0  0  0  0  0  0  0  0  0  0
    1.2532   -2.9707    1.4349 C   0  0  2  0  0  0  0  0  0  0  0  0
    0.3395   -1.8293    1.0083 C   0  0  0  0  0  0  0  0  0  0  0  0
   -0.8136   -2.0027    0.6194 O   0  0  0  0  0  0  0  0  0  0  0  0
    2.2176   -3.3411    0.3189 C   0  0  0  0  0  0  0  0  0  0  0  0
   -0.2574   -4.4279    1.1287 H   0  0  0  0  0  0  0  0  0  0  0  0
    1.8087   -2.6785    2.3327 H   0  0  0  0  0  0  0  0  0  0  0  0
    1.6793   -3.6366   -0.5890 H   0  0  0  0  0  0  0  0  0  0  0  0
    2.8662   -2.4980    0.0589 H   0  0  0  0  0  0  0  0  0  0  0  0
    2.8538   -4.1816    0.6166 H   0  0  0  0  0  0  0  0  0  0  0  0
    0.9758   -0.5952    1.0708 N   0  0  0  0  0  0  0  0  0  0  0  0
    0.3258    0.6374    0.7059 C   0  0  2  0  0  0  0  0  0  0  0  0
   -0.4181    0.3935   -0.6029 C   0  0  0  0  0  0  0  0  0  0  0  0
   -1.2792   -0.4742   -0.7322 O   0  0  0  0  0  0  0  0  0  0  0  0
    1.3262    1.7882    0.5448 C   0  0  0  0  0  0  0  0  0  0  0  0
    1.9948    2.2019    1.8551 C   0  0  0  0  0  0  0  0  0  0  0  0
    3.0249    3.3324    1.7614 C   0  0  0  0  0  0  0  0  0  0  0  0
    3.2966    3.6918    0.5796 O   0  5  0  0  0  0  0  0  0  0  0  0
    3.4667    3.7793    2.8556 O   0  0  0  0  0  0  0  0  0  0  0  0
    1.9288   -0.5463    1.4242 H   0  0  0  0  0  0  0  0  0  0  0  0
   -0.4061    0.8513    1.4923 H   0  0  0  0  0  0  0  0  0  0  0  0
    0.8288    2.6582    0.0983 H   0  0  0  0  0  0  0  0  0  0  0  0
    2.1095    1.4913   -0.1654 H   0  0  0  0  0  0  0  0  0  0  0  0
    1.2323    2.4718    2.5955 H   0  0  0  0  0  0  0  0  0  0  0  0
    2.5288    1.3328    2.2603 H   0  0  0  0  0  0  0  0  0  0  0  0
    0.0270    1.2275   -1.6191 N   0  0  0  0  0  0  0  0  0  0  0  0
   -0.5084    1.1831   -2.9600 C   0  0  2  0  0  0  0  0  0  0  0  0
    0.4833    1.8753   -3.8856 C   0  0  0  0  0  0  0  0  0  0  0  0
    1.3102    2.6947   -3.4906 O   0  0  0  0  0  0  0  0  0  0  0  0
   -1.8745    1.8473   -3.0327 C   0  0  0  0  0  0  0  0  0  0  0  0
    0.7346    1.9273   -1.4161 H   0  0  0  0  0  0  0  0  0  0  0  0
   -0.5876    0.1254   -3.2341 H   0  0  0  0  0  0  0  0  0  0  0  0
   -1.8152    2.9077   -2.7614 H   0  0  0  0  0  0  0  0  0  0  0  0
   -2.2915    1.7876   -4.0434 H   0  0  0  0  0  0  0  0  0  0  0  0
   -2.5785    1.3671   -2.3444 H   0  0  0  0  0  0  0  0  0  0  0  0
    0.3079    1.5028   -5.2110 N   0  0  0  0  0  0  0  0  0  0  0  0
    1.1183    2.0315   -6.2833 C   0  0  0  0  0  0  0  0  0  0  0  0
   -0.3897    0.8026   -5.4451 H   0  0  0  0  0  0  0  0  0  0  0  0
    0.6254    2.9152   -6.7146 H   0  0  0  0  0  0  0  0  0  0  0  0
    2.1051    2.3174   -5.8902 H   0  0  0  0  0  0  0  0  0  0  0  0
    1.2419    1.2643   -7.0618 H   0  0  0  0  0  0  0  0  0  0  0  0
  1  3  1  0  0  0  0
  1  7  1  0  0  0  0
  1  2  2  0  0  0  0
 33 34  1  0  0  0  0
 34 42  1  0  0  0  0
 34 35  2  0  0  0  0
  8  9  1  0  0  0  0
  9 17  1  0  0  0  0
  9 10  2  0  0  0  0
 18 19  1  0  0  0  0
 19 32  1  0  0  0  0
 19 20  2  0  0  0  0
 22 23  1  0  0  0  0
 23 24  1  0  0  0  0
 23 25  2  0  0  0  0
 33 36  1  0  0  0  0
  8 11  1  0  0  0  0
 42 43  1  0  0  0  0
 21 22  1  0  0  0  0
 18 21  1  0  0  0  0
 32 33  1  0  0  0  0
  7  8  1  0  0  0  0
 17 18  1  0  0  0  0
  3  4  1  0  0  0  0
  3  5  1  0  0  0  0
  3  6  1  0  0  0  0
 36 39  1  0  0  0  0
 36 40  1  0  0  0  0
 36 41  1  0  0  0  0
 11 14  1  0  0  0  0
 11 15  1  0  0  0  0
 11 16  1  0  0  0  0
 43 45  1  0  0  0  0
 43 46  1  0  0  0  0
 43 47  1  0  0  0  0
 22 30  1  0  0  0  0
 22 31  1  0  0  0  0
 21 28  1  0  0  0  0
 21 29  1  0  0  0  0
 33 38  1  0  0  0  0
  8 13  1  0  0  0  0
 18 27  1  0  0  0  0
 42 44  1  0  0  0  0
  7 12  1  0  0  0  0
 32 37  1  0  0  0  0
 17 26  1  0  0  0  0
M  CHG  1  24  -1
M  END
$$$$

  -OEChem-05262214473D

 47 46  0     1  0  0  0  0  0999 V2000
    0.5093   -4.7265    3.0306 C   0  0  0  0  0  0  0  0  0  0  0  0
    1.2735   -4.4402    3.9448 O   0  0  0  0  0  0  0  0  0  0  0  0
   -0.4465   -5.8608    3.1982 C   0  0  0  0  0  0  0  0  0  0  0  0
   -0.0219   -6.8213    2.8645 H   0  0  0  0  0  0  0  0  0  0  0  0
   -0.7314   -6.0185    4.2509 H   0  0  0  0  0  0  0  0  0  0  0  0
   -1.3983   -5.7596    2.6527 H   0  0  0  0  0  0  0  0  0  0  0  0
    0.4252   -4.0886    1.8040 N   0  0  0  0  0  0  0  0  0  0  0  0
    1.2532   -2.9707    1.4349 C   0  0  2  0  0  0  0  0  0  0  0  0
    0.3395   -1.8293    1.0083 C   0  0  0  0  0  0  0  0  0  0  0  0
   -0.8136   -2.0027    0.6194 O   0  0  0  0  0  0  0  0  0  0  0  0
    2.2176   -3.3411    0.3189 C   0  0  0  0  0  0  0  0  0  0  0  0
   -0.2574   -4.4279    1.1287 H   0  0  0  0  0  0  0  0  0  0  0  0
    1.8087   -2.6785    2.3327 H   0  0  0  0  0  0  0  0  0  0  0  0
    1.6793   -3.6366   -0.5890 H   0  0  0  0  0  0  0  0  0  0  0  0
    2.8662   -2.4980    0.0589 H   0  0  0  0  0  0  0  0  0  0  0  0
    2.8538   -4.1816    0.6166 H   0  0  0  0  0  0  0  0  0  0  0  0
    0.9758   -0.5952    1.0708 N   0  0  0  0  0  0  0  0  0  0  0  0
    0.3258    0.6374    0.7059 C   0  0  2  0  0  0  0  0  0  0  0  0
   -0.4181    0.3935   -0.6029 C   0  0  0  0  0  0  0  0  0  0  0  0
   -1.4484   -0.2734   -0.6735 O   0  0  0  0  0  0  0  0  0  0  0  0
    1.3262    1.7882    0.5448 C   0  0  0  0  0  0  0  0  0  0  0  0
    1.9948    2.2019    1.8551 C   0  0  0  0  0  0  0  0  0  0  0  0
    3.0249    3.3324    1.7614 C   0  0  0  0  0  0  0  0  0  0  0  0
    3.2966    3.6918    0.5796 O   0  5  0  0  0  0  0  0  0  0  0  0
    3.4667    3.7793    2.8556 O   0  0  0  0  0  0  0  0  0  0  0  0
    1.9288   -0.5463    1.4242 H   0  0  0  0  0  0  0  0  0  0  0  0
   -0.4061    0.8513    1.4923 H   0  0  0  0  0  0  0  0  0  0  0  0
    0.8288    2.6582    0.0983 H   0  0  0  0  0  0  0  0  0  0  0  0
    2.1095    1.4913   -0.1654 H   0  0  0  0  0  0  0  0  0  0  0  0
    1.2323    2.4718    2.5955 H   0  0  0  0  0  0  0  0  0  0  0  0
    2.5288    1.3328    2.2603 H   0  0  0  0  0  0  0  0  0  0  0  0
    0.2305    0.9691   -1.6866 N   0  0  0  0  0  0  0  0  0  0  0  0
   -0.2647    0.8681   -3.0399 C   0  0  2  0  0  0  0  0  0  0  0  0
    0.8820    1.1985   -3.9861 C   0  0  0  0  0  0  0  0  0  0  0  0
    1.8609    1.8609   -3.6482 O   0  0  0  0  0  0  0  0  0  0  0  0
   -1.4440    1.8006   -3.2686 C   0  0  0  0  0  0  0  0  0  0  0  0
    1.0715    1.5169   -1.5311 H   0  0  0  0  0  0  0  0  0  0  0  0
   -0.5721   -0.1730   -3.1873 H   0  0  0  0  0  0  0  0  0  0  0  0
   -1.1552    2.8482   -3.1254 H   0  0  0  0  0  0  0  0  0  0  0  0
   -1.8362    1.7020   -4.2862 H   0  0  0  0  0  0  0  0  0  0  0  0
   -2.2563    1.5809   -2.5674 H   0  0  0  0  0  0  0  0  0  0  0  0
    0.6633    0.7033   -5.2641 N   0  0  0  0  0  0  0  0  0  0  0  0
    1.6006    0.8962   -6.3459 C   0  0  0  0  0  0  0  0  0  0  0  0
   -0.1672    0.1488   -5.4497 H   0  0  0  0  0  0  0  0  0  0  0  0
    1.3309    1.8023   -6.9082 H   0  0  0  0  0  0  0  0  0  0  0  0
    2.6154    1.0076   -5.9362 H   0  0  0  0  0  0  0  0  0  0  0  0
    1.5697    0.0254   -7.0173 H   0  0  0  0  0  0  0  0  0  0  0  0
  1  3  1  0  0  0  0
  1  7  1  0  0  0  0
  1  2  2  0  0  0  0
 33 34  1  0  0  0  0
 34 42  1  0  0  0  0
 34 35  2  0  0  0  0
  8  9  1  0  0  0  0
  9 17  1  0  0  0  0
  9 10  2  0  0  0  0
 18 19  1  0  0  0  0
 19 32  1  0  0  0  0
 19 20  2  0  0  0  0
 22 23  1  0  0  0  0
 23 24  1  0  0  0  0
 23 25  2  0  0  0  0
 33 36  1  0  0  0  0
  8 11  1  0  0  0  0
 42 43  1  0  0  0  0
 21 22  1  0  0  0  0
 18 21  1  0  0  0  0
 32 33  1  0  0  0  0
  7  8  1  0  0  0  0
 17 18  1  0  0  0  0
  3  4  1  0  0  0  0
  3  5  1  0  0  0  0
  3  6  1  0  0  0  0
 36 39  1  0  0  0  0
 36 40  1  0  0  0  0
 36 41  1  0  0  0  0
 11 14  1  0  0  0  0
 11 15  1  0  0  0  0
 11 16  1  0  0  0  0
 43 45  1  0  0  0  0
 43 46  1  0  0  0  0
 43 47  1  0  0  0  0
 22 30  1  0  0  0  0
 22 31  1  0  0  0  0
 21 28  1  0  0  0  0
 21 29  1  0  0  0  0
 33 38  1  0  0  0  0
  8 13  1  0  0  0  0
 18 27  1  0  0  0  0
 42 44  1  0  0  0  0
  7 12  1  0  0  0  0
 32 37  1  0  0  0  0
 17 26  1  0  0  0  0
M  CHG  1  24  -1
M  END
$$$$

  -OEChem-05262214473D

 47 46  0     1  0  0  0  0  0999 V2000
    0.5093   -4.7265    3.0306 C   0  0  0  0  0  0  0  0  0  0  0  0
    1.2735   -4.4402    3.9448 O   0  0  0  0  0  0  0  0  0  0  0  0
   -0.4465   -5.8608    3.1982 C   0  0  0  0  0  0  0  0  0  0  0  0
   -0.0219   -6.8213    2.8645 H   0  0  0  0  0  0  0  0  0  0  0  0
   -0.7314   -6.0185    4.2509 H   0  0  0  0  0  0  0  0  0  0  0  0
   -1.3983   -5.7596    2.6527 H   0  0  0  0  0  0  0  0  0  0  0  0
    0.4252   -4.0886    1.8040 N   0  0  0  0  0  0  0  0  0  0  0  0
    1.2532   -2.9707    1.4349 C   0  0  2  0  0  0  0  0  0  0  0  0
    0.3395   -1.8293    1.0083 C   0  0  0  0  0  0  0  0  0  0  0  0
   -0.8136   -2.0027    0.6194 O   0  0  0  0  0  0  0  0  0  0  0  0
    2.2176   -3.3411    0.3189 C   0  0  0  0  0  0  0  0  0  0  0  0
   -0.2574   -4.4279    1.1287 H   0  0  0  0  0  0  0  0  0  0  0  0
    1.8087   -2.6785    2.3327 H   0  0  0  0  0  0  0  0  0  0  0  0
    1.6793   -3.6366   -0.5890 H   0  0  0  0  0  0  0  0  0  0  0  0
    2.8662   -2.4980    0.0589 H   0  0  0  0  0  0  0  0  0  0  0  0
    2.8538   -4.1816    0.6166 H   0  0  0  0  0  0  0  0  0  0  0  0
    0.9758   -0.5952    1.0708 N   0  0  0  0  0  0  0  0  0  0  0  0
    0.3258    0.6374    0.7059 C   0  0  2  0  0  0  0  0  0  0  0  0
   -0.4181    0.3935   -0.6029 C   0  0  0  0  0  0  0  0  0  0  0  0
   -1.5696   -0.0344   -0.6491 O   0  0  0  0  0  0  0  0  0  0  0  0
    1.3262    1.7882    0.5448 C   0  0  0  0  0  0  0  0  0  0  0  0
    1.9948    2.2019    1.8551 C   0  0  0  0  0  0  0  0  0  0  0  0
    3.0249    3.3324    1.7614 C   0  0  0  0  0  0  0  0  0  0  0  0
    3.2966    3.6918    0.5796 O   0  5  0  0  0  0  0  0  0  0  0  0
    3.4667    3.7793    2.8556 O   0  0  0  0  0  0  0  0  0  0  0  0
    1.9288   -0.5463    1.4242 H   0  0  0  0  0  0  0  0  0  0  0  0
   -0.4061    0.8513    1.4923 H   0  0  0  0  0  0  0  0  0  0  0  0
    0.8288    2.6582    0.0983 H   0  0  0  0  0  0  0  0  0  0  0  0
    2.1095    1.4913   -0.1654 H   0  0  0  0  0  0  0  0  0  0  0  0
    1.2323    2.4718    2.5955 H   0  0  0  0  0  0  0  0  0  0  0  0
    2.5288    1.3328    2.2603 H   0  0  0  0  0  0  0  0  0  0  0  0
    0.3724    0.6658   -1.7108 N   0  0  0  0  0  0  0  0  0  0  0  0
   -0.0959    0.4996   -3.0672 C   0  0  2  0  0  0  0  0  0  0  0  0
    1.1210    0.4435   -3.9813 C   0  0  0  0  0  0  0  0  0  0  0  0
    2.2141    0.9134   -3.6725 O   0  0  0  0  0  0  0  0  0  0  0  0
   -1.0288    1.6300   -3.4728 C   0  0  0  0  0  0  0  0  0  0  0  0
    1.3105    1.0312   -1.5764 H   0  0  0  0  0  0  0  0  0  0  0  0
   -0.6254   -0.4587   -3.1038 H   0  0  0  0  0  0  0  0  0  0  0  0
   -0.5159    2.5982   -3.4422 H   0  0  0  0  0  0  0  0  0  0  0  0
   -1.4054    1.4875   -4.4912 H   0  0  0  0  0  0  0  0  0  0  0  0
   -1.8884    1.6877   -2.7964 H   0  0  0  0  0  0  0  0  0  0  0  0
    0.8313   -0.1545   -5.1997 N   0  0  0  0  0  0  0  0  0  0  0  0
    1.8169   -0.3154   -6.2431 C   0  0  0  0  0  0  0  0  0  0  0  0
   -0.0973   -0.5327   -5.3625 H   0  0  0  0  0  0  0  0  0  0  0  0
    1.7731    0.5462   -6.9255 H   0  0  0  0  0  0  0  0  0  0  0  0
    2.8193   -0.3768   -5.7942 H   0  0  0  0  0  0  0  0  0  0  0  0
    1.6093   -1.2384   -6.8043 H   0  0  0  0  0  0  0  0  0  0  0  0
  1  3  1  0  0  0  0
  1  7  1  0  0  0  0
  1  2  2  0  0  0  0
 33 34  1  0  0  0  0
 34 42  1  0  0  0  0
 34 35  2  0  0  0  0
  8  9  1  0  0  0  0
  9 17  1  0  0  0  0
  9 10  2  0  0  0  0
 18 19  1  0  0  0  0
 19 32  1  0  0  0  0
 19 20  2  0  0  0  0
 22 23  1  0  0  0  0
 23 24  1  0  0  0  0
 23 25  2  0  0  0  0
 33 36  1  0  0  0  0
  8 11  1  0  0  0  0
 42 43  1  0  0  0  0
 21 22  1  0  0  0  0
 18 21  1  0  0  0  0
 32 33  1  0  0  0  0
  7  8  1  0  0  0  0
 17 18  1  0  0  0  0
  3  4  1  0  0  0  0
  3  5  1  0  0  0  0
  3  6  1  0  0  0  0
 36 39  1  0  0  0  0
 36 40  1  0  0  0  0
 36 41  1  0  0  0  0
 11 14  1  0  0  0  0
 11 15  1  0  0  0  0
 11 16  1  0  0  0  0
 43 45  1  0  0  0  0
 43 46  1  0  0  0  0
 43 47  1  0  0  0  0
 22 30  1  0  0  0  0
 22 31  1  0  0  0  0
 21 28  1  0  0  0  0
 21 29  1  0  0  0  0
 33 38  1  0  0  0  0
  8 13  1  0  0  0  0
 18 27  1  0  0  0  0
 42 44  1  0  0  0  0
  7 12  1  0  0  0  0
 32 37  1  0  0  0  0
 17 26  1  0  0  0  0
M  CHG  1  24  -1
M  END
$$$$

  -OEChem-05262214473D

 47 46  0     1  0  0  0  0  0999 V2000
    0.5093   -4.7265    3.0306 C   0  0  0  0  0  0  0  0  0  0  0  0
    1.2735   -4.4402    3.9448 O   0  0  0  0  0  0  0  0  0  0  0  0
   -0.4465   -5.8608    3.1982 C   0  0  0  0  0  0  0  0  0  0  0  0
   -0.0219   -6.8213    2.8645 H   0  0  0  0  0  0  0  0  0  0  0  0
   -0.7314   -6.0185    4.2509 H   0  0  0  0  0  0  0  0  0  0  0  0
   -1.3983   -5.7596    2.6527 H   0  0  0  0  0  0  0  0  0  0  0  0
    0.4252   -4.0886    1.8040 N   0  0  0  0  0  0  0  0  0  0  0  0
    1.2532   -2.9707    1.4349 C   0  0  2  0  0  0  0  0  0  0  0  0
    0.3395   -1.8293    1.0083 C   0  0  0  0  0  0  0  0  0  0  0  0
   -0.8136   -2.0027    0.6194 O   0  0  0  0  0  0  0  0  0  0  0  0
    2.2176   -3.3411    0.3189 C   0  0  0  0  0  0  0  0  0  0  0  0
   -0.2574   -4.4279    1.1287 H   0  0  0  0  0  0  0  0  0  0  0  0
    1.8087   -2.6785    2.3327 H   0  0  0  0  0  0  0  0  0  0  0  0
    1.6793   -3.6366   -0.5890 H   0  0  0  0  0  0  0  0  0  0  0  0
    2.8662   -2.4980    0.0589 H   0  0  0  0  0  0  0  0  0  0  0  0
    2.8538   -4.1816    0.6166 H   0  0  0  0  0  0  0  0  0  0  0  0
    0.9758   -0.5952    1.0708 N   0  0  0  0  0  0  0  0  0  0  0  0
    0.3258    0.6374    0.7059 C   0  0  2  0  0  0  0  0  0  0  0  0
   -0.4181    0.3935   -0.6029 C   0  0  0  0  0  0  0  0  0  0  0  0
   -1.6347    0.2265   -0.6607 O   0  0  0  0  0  0  0  0  0  0  0  0
    1.3262    1.7882    0.5448 C   0  0  0  0  0  0  0  0  0  0  0  0
    1.9948    2.2019    1.8551 C   0  0  0  0  0  0  0  0  0  0  0  0
    3.0249    3.3324    1.7614 C   0  0  0  0  0  0  0  0  0  0  0  0
    3.2966    3.6918    0.5796 O   0  5  0  0  0  0  0  0  0  0  0  0
    3.4667    3.7793    2.8556 O   0  0  0  0  0  0  0  0  0  0  0  0
    1.9288   -0.5463    1.4242 H   0  0  0  0  0  0  0  0  0  0  0  0
   -0.4061    0.8513    1.4923 H   0  0  0  0  0  0  0  0  0  0  0  0
    0.8288    2.6582    0.0983 H   0  0  0  0  0  0  0  0  0  0  0  0
    2.1095    1.4913   -0.1654 H   0  0  0  0  0  0  0  0  0  0  0  0
    1.2323    2.4718    2.5955 H   0  0  0  0  0  0  0  0  0  0  0  0
    2.5288    1.3328    2.2603 H   0  0  0  0  0  0  0  0  0  0  0  0
    0.4431    0.3382   -1.6899 N   0  0  0  0  0  0  0  0  0  0  0  0
   -0.0136    0.1027   -3.0400 C   0  0  2  0  0  0  0  0  0  0  0  0
    1.1839   -0.3382   -3.8714 C   0  0  0  0  0  0  0  0  0  0  0  0
    2.3459   -0.0835   -3.5616 O   0  0  0  0  0  0  0  0  0  0  0  0
   -0.6572    1.3472   -3.6314 C   0  0  0  0  0  0  0  0  0  0  0  0
    1.4354    0.5032   -1.5490 H   0  0  0  0  0  0  0  0  0  0  0  0
   -0.7437   -0.7123   -2.9893 H   0  0  0  0  0  0  0  0  0  0  0  0
    0.0592    2.1747   -3.6902 H   0  0  0  0  0  0  0  0  0  0  0  0
   -1.0284    1.1588   -4.6442 H   0  0  0  0  0  0  0  0  0  0  0  0
   -1.4998    1.6802   -3.0158 H   0  0  0  0  0  0  0  0  0  0  0  0
    0.8003   -1.0124   -5.0223 N   0  0  0  0  0  0  0  0  0  0  0  0
    1.7525   -1.5208   -5.9819 C   0  0  0  0  0  0  0  0  0  0  0  0
   -0.1847   -1.1955   -5.1893 H   0  0  0  0  0  0  0  0  0  0  0  0
    1.9220   -0.7675   -6.7654 H   0  0  0  0  0  0  0  0  0  0  0  0
    2.7028   -1.7414   -5.4738 H   0  0  0  0  0  0  0  0  0  0  0  0
    1.3580   -2.4410   -6.4374 H   0  0  0  0  0  0  0  0  0  0  0  0
  1  3  1  0  0  0  0
  1  7  1  0  0  0  0
  1  2  2  0  0  0  0
 33 34  1  0  0  0  0
 34 42  1  0  0  0  0
 34 35  2  0  0  0  0
  8  9  1  0  0  0  0
  9 17  1  0  0  0  0
  9 10  2  0  0  0  0
 18 19  1  0  0  0  0
 19 32  1  0  0  0  0
 19 20  2  0  0  0  0
 22 23  1  0  0  0  0
 23 24  1  0  0  0  0
 23 25  2  0  0  0  0
 33 36  1  0  0  0  0
  8 11  1  0  0  0  0
 42 43  1  0  0  0  0
 21 22  1  0  0  0  0
 18 21  1  0  0  0  0
 32 33  1  0  0  0  0
  7  8  1  0  0  0  0
 17 18  1  0  0  0  0
  3  4  1  0  0  0  0
  3  5  1  0  0  0  0
  3  6  1  0  0  0  0
 36 39  1  0  0  0  0
 36 40  1  0  0  0  0
 36 41  1  0  0  0  0
 11 14  1  0  0  0  0
 11 15  1  0  0  0  0
 11 16  1  0  0  0  0
 43 45  1  0  0  0  0
 43 46  1  0  0  0  0
 43 47  1  0  0  0  0
 22 30  1  0  0  0  0
 22 31  1  0  0  0  0
 21 28  1  0  0  0  0
 21 29  1  0  0  0  0
 33 38  1  0  0  0  0
  8 13  1  0  0  0  0
 18 27  1  0  0  0  0
 42 44  1  0  0  0  0
  7 12  1  0  0  0  0
 32 37  1  0  0  0  0
 17 26  1  0  0  0  0
M  CHG  1  24  -1
M  END
$$$$

  -OEChem-05262214473D

 47 46  0     1  0  0  0  0  0999 V2000
    0.5093   -4.7265    3.0306 C   0  0  0  0  0  0  0  0  0  0  0  0
    1.2735   -4.4402    3.9448 O   0  0  0  0  0  0  0  0  0  0  0  0
   -0.4465   -5.8608    3.1982 C   0  0  0  0  0  0  0  0  0  0  0  0
   -0.0219   -6.8213    2.8645 H   0  0  0  0  0  0  0  0  0  0  0  0
   -0.7314   -6.0185    4.2509 H   0  0  0  0  0  0  0  0  0  0  0  0
   -1.3983   -5.7596    2.6527 H   0  0  0  0  0  0  0  0  0  0  0  0
    0.4252   -4.0886    1.8040 N   0  0  0  0  0  0  0  0  0  0  0  0
    1.2532   -2.9707    1.4349 C   0  0  2  0  0  0  0  0  0  0  0  0
    0.3395   -1.8293    1.0083 C   0  0  0  0  0  0  0  0  0  0  0  0
   -0.8136   -2.0027    0.6194 O   0  0  0  0  0  0  0  0  0  0  0  0
    2.2176   -3.3411    0.3189 C   0  0  0  0  0  0  0  0  0  0  0  0
   -0.2574   -4.4279    1.1287 H   0  0  0  0  0  0  0  0  0  0  0  0
    1.8087   -2.6785    2.3327 H   0  0  0  0  0  0  0  0  0  0  0  0
    1.6793   -3.6366   -0.5890 H   0  0  0  0  0  0  0  0  0  0  0  0
    2.8662   -2.4980    0.0589 H   0  0  0  0  0  0  0  0  0  0  0  0
    2.8538   -4.1816    0.6166 H   0  0  0  0  0  0  0  0  0  0  0  0
    0.9758   -0.5952    1.0708 N   0  0  0  0  0  0  0  0  0  0  0  0
    0.3258    0.6374    0.7059 C   0  0  2  0  0  0  0  0  0  0  0  0
   -0.4181    0.3935   -0.6029 C   0  0  0  0  0  0  0  0  0  0  0  0
   -1.6391    0.4915   -0.7076 O   0  0  0  0  0  0  0  0  0  0  0  0
    1.3262    1.7882    0.5448 C   0  0  0  0  0  0  0  0  0  0  0  0
    1.9948    2.2019    1.8551 C   0  0  0  0  0  0  0  0  0  0  0  0
    3.0249    3.3324    1.7614 C   0  0  0  0  0  0  0  0  0  0  0  0
    3.2966    3.6918    0.5796 O   0  5  0  0  0  0  0  0  0  0  0  0
    3.4667    3.7793    2.8556 O   0  0  0  0  0  0  0  0  0  0  0  0
    1.9288   -0.5463    1.4242 H   0  0  0  0  0  0  0  0  0  0  0  0
   -0.4061    0.8513    1.4923 H   0  0  0  0  0  0  0  0  0  0  0  0
    0.8288    2.6582    0.0983 H   0  0  0  0  0  0  0  0  0  0  0  0
    2.1095    1.4913   -0.1654 H   0  0  0  0  0  0  0  0  0  0  0  0
    1.2323    2.4718    2.5955 H   0  0  0  0  0  0  0  0  0  0  0  0
    2.5288    1.3328    2.2603 H   0  0  0  0  0  0  0  0  0  0  0  0
    0.4378    0.0087   -1.6255 N   0  0  0  0  0  0  0  0  0  0  0  0
   -0.0234   -0.2955   -2.9603 C   0  0  2  0  0  0  0  0  0  0  0  0
    1.0664   -1.0934   -3.6639 C   0  0  0  0  0  0  0  0  0  0  0  0
    2.2471   -1.0616   -3.3233 O   0  0  0  0  0  0  0  0  0  0  0  0
   -0.3545    0.9715   -3.7334 C   0  0  0  0  0  0  0  0  0  0  0  0
    1.4375   -0.0311   -1.4507 H   0  0  0  0  0  0  0  0  0  0  0  0
   -0.9191   -0.9166   -2.8515 H   0  0  0  0  0  0  0  0  0  0  0  0
    0.5309    1.6067   -3.8524 H   0  0  0  0  0  0  0  0  0  0  0  0
   -0.7309    0.7382   -4.7349 H   0  0  0  0  0  0  0  0  0  0  0  0
   -1.1171    1.5590   -3.2108 H   0  0  0  0  0  0  0  0  0  0  0  0
    0.5725   -1.8117   -4.7439 N   0  0  0  0  0  0  0  0  0  0  0  0
    1.4117   -2.6378   -5.5801 C   0  0  0  0  0  0  0  0  0  0  0  0
   -0.4236   -1.7944   -4.9420 H   0  0  0  0  0  0  0  0  0  0  0  0
    1.7674   -2.0493   -6.4387 H   0  0  0  0  0  0  0  0  0  0  0  0
    2.2740   -2.9931   -4.9968 H   0  0  0  0  0  0  0  0  0  0  0  0
    0.8330   -3.5006   -5.9416 H   0  0  0  0  0  0  0  0  0  0  0  0
  1  3  1  0  0  0  0
  1  7  1  0  0  0  0
  1  2  2  0  0  0  0
 33 34  1  0  0  0  0
 34 42  1  0  0  0  0
 34 35  2  0  0  0  0
  8  9  1  0  0  0  0
  9 17  1  0  0  0  0
  9 10  2  0  0  0  0
 18 19  1  0  0  0  0
 19 32  1  0  0  0  0
 19 20  2  0  0  0  0
 22 23  1  0  0  0  0
 23 24  1  0  0  0  0
 23 25  2  0  0  0  0
 33 36  1  0  0  0  0
  8 11  1  0  0  0  0
 42 43  1  0  0  0  0
 21 22  1  0  0  0  0
 18 21  1  0  0  0  0
 32 33  1  0  0  0  0
  7  8  1  0  0  0  0
 17 18  1  0  0  0  0
  3  4  1  0  0  0  0
  3  5  1  0  0  0  0
  3  6  1  0  0  0  0
 36 39  1  0  0  0  0
 36 40  1  0  0  0  0
 36 41  1  0  0  0  0
 11 14  1  0  0  0  0
 11 15  1  0  0  0  0
 11 16  1  0  0  0  0
 43 45  1  0  0  0  0
 43 46  1  0  0  0  0
 43 47  1  0  0  0  0
 22 30  1  0  0  0  0
 22 31  1  0  0  0  0
 21 28  1  0  0  0  0
 21 29  1  0  0  0  0
 33 38  1  0  0  0  0
  8 13  1  0  0  0  0
 18 27  1  0  0  0  0
 42 44  1  0  0  0  0
  7 12  1  0  0  0  0
 32 37  1  0  0  0  0
 17 26  1  0  0  0  0
M  CHG  1  24  -1
M  END
$$$$

  -OEChem-05262214473D

 47 46  0     1  0  0  0  0  0999 V2000
    0.5093   -4.7265    3.0306 C   0  0  0  0  0  0  0  0  0  0  0  0
    1.2735   -4.4402    3.9448 O   0  0  0  0  0  0  0  0  0  0  0  0
   -0.4465   -5.8608    3.1982 C   0  0  0  0  0  0  0  0  0  0  0  0
   -0.0219   -6.8213    2.8645 H   0  0  0  0  0  0  0  0  0  0  0  0
   -0.7314   -6.0185    4.2509 H   0  0  0  0  0  0  0  0  0  0  0  0
   -1.3983   -5.7596    2.6527 H   0  0  0  0  0  0  0  0  0  0  0  0
    0.4252   -4.0886    1.8040 N   0  0  0  0  0  0  0  0  0  0  0  0
    1.2532   -2.9707    1.4349 C   0  0  2  0  0  0  0  0  0  0  0  0
    0.3395   -1.8293    1.0083 C   0  0  0  0  0  0  0  0  0  0  0  0
   -0.8136   -2.0027    0.6194 O   0  0  0  0  0  0  0  0  0  0  0  0
    2.2176   -3.3411    0.3189 C   0  0  0  0  0  0  0  0  0  0  0  0
   -0.2574   -4.4279    1.1287 H   0  0  0  0  0  0  0  0  0  0  0  0
    1.8087   -2.6785    2.3327 H   0  0  0  0  0  0  0  0  0  0  0  0
    1.6793   -3.6366   -0.5890 H   0  0  0  0  0  0  0  0  0  0  0  0
    2.8662   -2.4980    0.0589 H   0  0  0  0  0  0  0  0  0  0  0  0
    2.8538   -4.1816    0.6166 H   0  0  0  0  0  0  0  0  0  0  0  0
    0.9758   -0.5952    1.0708 N   0  0  0  0  0  0  0  0  0  0  0  0
    0.3258    0.6374    0.7059 C   0  0  2  0  0  0  0  0  0  0  0  0
   -0.4181    0.3935   -0.6029 C   0  0  0  0  0  0  0  0  0  0  0  0
   -1.5825    0.7424   -0.7865 O   0  0  0  0  0  0  0  0  0  0  0  0
    1.3262    1.7882    0.5448 C   0  0  0  0  0  0  0  0  0  0  0  0
    1.9948    2.2019    1.8551 C   0  0  0  0  0  0  0  0  0  0  0  0
    3.0249    3.3324    1.7614 C   0  0  0  0  0  0  0  0  0  0  0  0
    3.2966    3.6918    0.5796 O   0  5  0  0  0  0  0  0  0  0  0  0
    3.4667    3.7793    2.8556 O   0  0  0  0  0  0  0  0  0  0  0  0
    1.9288   -0.5463    1.4242 H   0  0  0  0  0  0  0  0  0  0  0  0
   -0.4061    0.8513    1.4923 H   0  0  0  0  0  0  0  0  0  0  0  0
    0.8288    2.6582    0.0983 H   0  0  0  0  0  0  0  0  0  0  0  0
    2.1095    1.4913   -0.1654 H   0  0  0  0  0  0  0  0  0  0  0  0
    1.2323    2.4718    2.5955 H   0  0  0  0  0  0  0  0  0  0  0  0
    2.5288    1.3328    2.2603 H   0  0  0  0  0  0  0  0  0  0  0  0
    0.3568   -0.3002   -1.5219 N   0  0  0  0  0  0  0  0  0  0  0  0
   -0.1246   -0.6678   -2.8334 C   0  0  2  0  0  0  0  0  0  0  0  0
    0.7767   -1.7706   -3.3730 C   0  0  0  0  0  0  0  0  0  0  0  0
    1.9246   -1.9543   -2.9736 O   0  0  0  0  0  0  0  0  0  0  0  0
   -0.1413    0.5285   -3.7721 C   0  0  0  0  0  0  0  0  0  0  0  0
    1.3169   -0.5352   -1.2882 H   0  0  0  0  0  0  0  0  0  0  0  0
   -1.1396   -1.0575   -2.6999 H   0  0  0  0  0  0  0  0  0  0  0  0
    0.8670    0.9327   -3.9179 H   0  0  0  0  0  0  0  0  0  0  0  0
   -0.5333    0.2545   -4.7571 H   0  0  0  0  0  0  0  0  0  0  0  0
   -0.7663    1.3322   -3.3679 H   0  0  0  0  0  0  0  0  0  0  0  0
    0.1634   -2.4980   -4.3835 N   0  0  0  0  0  0  0  0  0  0  0  0
    0.8178   -3.5904   -5.0651 C   0  0  0  0  0  0  0  0  0  0  0  0
   -0.7975   -2.2886   -4.6373 H   0  0  0  0  0  0  0  0  0  0  0  0
    1.3198   -3.2119   -5.9677 H   0  0  0  0  0  0  0  0  0  0  0  0
    1.5620   -4.0467   -4.3958 H   0  0  0  0  0  0  0  0  0  0  0  0
    0.0700   -4.3448   -5.3506 H   0  0  0  0  0  0  0  0  0  0  0  0
  1  3  1  0  0  0  0
  1  7  1  0  0  0  0
  1  2  2  0  0  0  0
 33 34  1  0  0  0  0
 34 42  1  0  0  0  0
 34 35  2  0  0  0  0
  8  9  1  0  0  0  0
  9 17  1  0  0  0  0
  9 10  2  0  0  0  0
 18 19  1  0  0  0  0
 19 32  1  0  0  0  0
 19 20  2  0  0  0  0
 22 23  1  0  0  0  0
 23 24  1  0  0  0  0
 23 25  2  0  0  0  0
 33 36  1  0  0  0  0
  8 11  1  0  0  0  0
 42 43  1  0  0  0  0
 21 22  1  0  0  0  0
 18 21  1  0  0  0  0
 32 33  1  0  0  0  0
  7  8  1  0  0  0  0
 17 18  1  0  0  0  0
  3  4  1  0  0  0  0
  3  5  1  0  0  0  0
  3  6  1  0  0  0  0
 36 39  1  0  0  0  0
 36 40  1  0  0  0  0
 36 41  1  0  0  0  0
 11 14  1  0  0  0  0
 11 15  1  0  0  0  0
 11 16  1  0  0  0  0
 43 45  1  0  0  0  0
 43 46  1  0  0  0  0
 43 47  1  0  0  0  0
 22 30  1  0  0  0  0
 22 31  1  0  0  0  0
 21 28  1  0  0  0  0
 21 29  1  0  0  0  0
 33 38  1  0  0  0  0
  8 13  1  0  0  0  0
 18 27  1  0  0  0  0
 42 44  1  0  0  0  0
  7 12  1  0  0  0  0
 32 37  1  0  0  0  0
 17 26  1  0  0  0  0
M  CHG  1  24  -1
M  END
$$$$

  -OEChem-05262214473D

 47 46  0     1  0  0  0  0  0999 V2000
    0.5093   -4.7265    3.0306 C   0  0  0  0  0  0  0  0  0  0  0  0
    1.2735   -4.4402    3.9448 O   0  0  0  0  0  0  0  0  0  0  0  0
   -0.4465   -5.8608    3.1982 C   0  0  0  0  0  0  0  0  0  0  0  0
   -0.0219   -6.8213    2.8645 H   0  0  0  0  0  0  0  0  0  0  0  0
   -0.7314   -6.0185    4.2509 H   0  0  0  0  0  0  0  0  0  0  0  0
   -1.3983   -5.7596    2.6527 H   0  0  0  0  0  0  0  0  0  0  0  0
    0.4252   -4.0886    1.8040 N   0  0  0  0  0  0  0  0  0  0  0  0
    1.2532   -2.9707    1.4349 C   0  0  2  0  0  0  0  0  0  0  0  0
    0.3395   -1.8293    1.0083 C   0  0  0  0  0  0  0  0  0  0  0  0
   -0.8136   -2.0027    0.6194 O   0  0  0  0  0  0  0  0  0  0  0  0
    2.2176   -3.3411    0.3189 C   0  0  0  0  0  0  0  0  0  0  0  0
   -0.2574   -4.4279    1.1287 H   0  0  0  0  0  0  0  0  0  0  0  0
    1.8087   -2.6785    2.3327 H   0  0  0  0  0  0  0  0  0  0  0  0
    1.6793   -3.6366   -0.5890 H   0  0  0  0  0  0  0  0  0  0  0  0
    2.8662   -2.4980    0.0589 H   0  0  0  0  0  0  0  0  0  0  0  0
    2.8538   -4.1816    0.6166 H   0  0  0  0  0  0  0  0  0  0  0  0
    0.9758   -0.5952    1.0708 N   0  0  0  0  0  0  0  0  0  0  0  0
    0.3258    0.6374    0.7059 C   0  0  2  0  0  0  0  0  0  0  0  0
   -0.4181    0.3935   -0.6029 C   0  0  0  0  0  0  0  0  0  0  0  0
   -1.4689    0.9623   -0.8921 O   0  0  0  0  0  0  0  0  0  0  0  0
    1.3262    1.7882    0.5448 C   0  0  0  0  0  0  0  0  0  0  0  0
    1.9948    2.2019    1.8551 C   0  0  0  0  0  0  0  0  0  0  0  0
    3.0249    3.3324    1.7614 C   0  0  0  0  0  0  0  0  0  0  0  0
    3.2966    3.6918    0.5796 O   0  5  0  0  0  0  0  0  0  0  0  0
    3.4667    3.7793    2.8556 O   0  0  0  0  0  0  0  0  0  0  0  0
    1.9288   -0.5463    1.4242 H   0  0  0  0  0  0  0  0  0  0  0  0
   -0.4061    0.8513    1.4923 H   0  0  0  0  0  0  0  0  0  0  0  0
    0.8288    2.6582    0.0983 H   0  0  0  0  0  0  0  0  0  0  0  0
    2.1095    1.4913   -0.1654 H   0  0  0  0  0  0  0  0  0  0  0  0
    1.2323    2.4718    2.5955 H   0  0  0  0  0  0  0  0  0  0  0  0
    2.5288    1.3328    2.2603 H   0  0  0  0  0  0  0  0  0  0  0  0
    0.2057   -0.5676   -1.3862 N   0  0  0  0  0  0  0  0  0  0  0  0
   -0.3103   -0.9890   -2.6680 C   0  0  2  0  0  0  0  0  0  0  0  0
    0.3343   -2.3236   -3.0186 C   0  0  0  0  0  0  0  0  0  0  0  0
    1.4003   -2.7009   -2.5365 O   0  0  0  0  0  0  0  0  0  0  0  0
   -0.0322    0.0484   -3.7446 C   0  0  0  0  0  0  0  0  0  0  0  0
    1.0817   -0.9749   -1.0726 H   0  0  0  0  0  0  0  0  0  0  0  0
   -1.3902   -1.1256   -2.5448 H   0  0  0  0  0  0  0  0  0  0  0  0
    1.0448    0.1987   -3.8822 H   0  0  0  0  0  0  0  0  0  0  0  0
   -0.4489   -0.2595   -4.7093 H   0  0  0  0  0  0  0  0  0  0  0  0
   -0.4712    1.0155   -3.4766 H   0  0  0  0  0  0  0  0  0  0  0  0
   -0.3991   -3.0246   -3.9656 N   0  0  0  0  0  0  0  0  0  0  0  0
    0.0112   -4.3135   -4.4719 C   0  0  0  0  0  0  0  0  0  0  0  0
   -1.2812   -2.6445   -4.2962 H   0  0  0  0  0  0  0  0  0  0  0  0
    0.6097   -4.1760   -5.3845 H   0  0  0  0  0  0  0  0  0  0  0  0
    0.6154   -4.8305   -3.7118 H   0  0  0  0  0  0  0  0  0  0  0  0
   -0.8790   -4.9162   -4.7048 H   0  0  0  0  0  0  0  0  0  0  0  0
  1  3  1  0  0  0  0
  1  7  1  0  0  0  0
  1  2  2  0  0  0  0
 33 34  1  0  0  0  0
 34 42  1  0  0  0  0
 34 35  2  0  0  0  0
  8  9  1  0  0  0  0
  9 17  1  0  0  0  0
  9 10  2  0  0  0  0
 18 19  1  0  0  0  0
 19 32  1  0  0  0  0
 19 20  2  0  0  0  0
 22 23  1  0  0  0  0
 23 24  1  0  0  0  0
 23 25  2  0  0  0  0
 33 36  1  0  0  0  0
  8 11  1  0  0  0  0
 42 43  1  0  0  0  0
 21 22  1  0  0  0  0
 18 21  1  0  0  0  0
 32 33  1  0  0  0  0
  7  8  1  0  0  0  0
 17 18  1  0  0  0  0
  3  4  1  0  0  0  0
  3  5  1  0  0  0  0
  3  6  1  0  0  0  0
 36 39  1  0  0  0  0
 36 40  1  0  0  0  0
 36 41  1  0  0  0  0
 11 14  1  0  0  0  0
 11 15  1  0  0  0  0
 11 16  1  0  0  0  0
 43 45  1  0  0  0  0
 43 46  1  0  0  0  0
 43 47  1  0  0  0  0
 22 30  1  0  0  0  0
 22 31  1  0  0  0  0
 21 28  1  0  0  0  0
 21 29  1  0  0  0  0
 33 38  1  0  0  0  0
  8 13  1  0  0  0  0
 18 27  1  0  0  0  0
 42 44  1  0  0  0  0
  7 12  1  0  0  0  0
 32 37  1  0  0  0  0
 17 26  1  0  0  0  0
M  CHG  1  24  -1
M  END
$$$$

  -OEChem-05262214473D

 47 46  0     1  0  0  0  0  0999 V2000
    0.5093   -4.7265    3.0306 C   0  0  0  0  0  0  0  0  0  0  0  0
    1.2735   -4.4402    3.9448 O   0  0  0  0  0  0  0  0  0  0  0  0
   -0.4465   -5.8608    3.1982 C   0  0  0  0  0  0  0  0  0  0  0  0
   -0.0219   -6.8213    2.8645 H   0  0  0  0  0  0  0  0  0  0  0  0
   -0.7314   -6.0185    4.2509 H   0  0  0  0  0  0  0  0  0  0  0  0
   -1.3983   -5.7596    2.6527 H   0  0  0  0  0  0  0  0  0  0  0  0
    0.4252   -4.0886    1.8040 N   0  0  0  0  0  0  0  0  0  0  0  0
    1.2532   -2.9707    1.4349 C   0  0  2  0  0  0  0  0  0  0  0  0
    0.3395   -1.8293    1.0083 C   0  0  0  0  0  0  0  0  0  0  0  0
   -0.8136   -2.0027    0.6194 O   0  0  0  0  0  0  0  0  0  0  0  0
    2.2176   -3.3411    0.3189 C   0  0  0  0  0  0  0  0  0  0  0  0
   -0.2574   -4.4279    1.1287 H   0  0  0  0  0  0  0  0  0  0  0  0
    1.8087   -2.6785    2.3327 H   0  0  0  0  0  0  0  0  0  0  0  0
    1.6793   -3.6366   -0.5890 H   0  0  0  0  0  0  0  0  0  0  0  0
    2.8662   -2.4980    0.0589 H   0  0  0  0  0  0  0  0  0  0  0  0
    2.8538   -4.1816    0.6166 H   0  0  0  0  0  0  0  0  0  0  0  0
    0.9758   -0.5952    1.0708 N   0  0  0  0  0  0  0  0  0  0  0  0
    0.3258    0.6374    0.7059 C   0  0  2  0  0  0  0  0  0  0  0  0
   -0.4181    0.3935   -0.6029 C   0  0  0  0  0  0  0  0  0  0  0  0
   -1.3059    1.1362   -1.0171 O   0  0  0  0  0  0  0  0  0  0  0  0
    1.3262    1.7882    0.5448 C   0  0  0  0  0  0  0  0  0  0  0  0
    1.9948    2.2019    1.8551 C   0  0  0  0  0  0  0  0  0  0  0  0
    3.0249    3.3324    1.7614 C   0  0  0  0  0  0  0  0  0  0  0  0
    3.2966    3.6918    0.5796 O   0  5  0  0  0  0  0  0  0  0  0  0
    3.4667    3.7793    2.8556 O   0  0  0  0  0  0  0  0  0  0  0  0
    1.9288   -0.5463    1.4242 H   0  0  0  0  0  0  0  0  0  0  0  0
   -0.4061    0.8513    1.4923 H   0  0  0  0  0  0  0  0  0  0  0  0
    0.8288    2.6582    0.0983 H   0  0  0  0  0  0  0  0  0  0  0  0
    2.1095    1.4913   -0.1654 H   0  0  0  0  0  0  0  0  0  0  0  0
    1.2323    2.4718    2.5955 H   0  0  0  0  0  0  0  0  0  0  0  0
    2.5288    1.3328    2.2603 H   0  0  0  0  0  0  0  0  0  0  0  0
   -0.0053   -0.7751   -1.2276 N   0  0  0  0  0  0  0  0  0  0  0  0
   -0.5678   -1.2372   -2.4754 C   0  0  2  0  0  0  0  0  0  0  0  0
   -0.2305   -2.7148   -2.6247 C   0  0  0  0  0  0  0  0  0  0  0  0
    0.7100   -3.2504   -2.0418 O   0  0  0  0  0  0  0  0  0  0  0  0
   -0.0346   -0.4362   -3.6530 C   0  0  0  0  0  0  0  0  0  0  0  0
    0.7479   -1.3201   -0.8186 H   0  0  0  0  0  0  0  0  0  0  0  0
   -1.6537   -1.1160   -2.3968 H   0  0  0  0  0  0  0  0  0  0  0  0
    1.0519   -0.5452   -3.7477 H   0  0  0  0  0  0  0  0  0  0  0  0
   -0.4835   -0.7687   -4.5948 H   0  0  0  0  0  0  0  0  0  0  0  0
   -0.2521    0.6302   -3.5294 H   0  0  0  0  0  0  0  0  0  0  0  0
   -1.0767   -3.3555   -3.5189 N   0  0  0  0  0  0  0  0  0  0  0  0
   -0.9530   -4.7580   -3.8410 C   0  0  0  0  0  0  0  0  0  0  0  0
   -1.8415   -2.8378   -3.9417 H   0  0  0  0  0  0  0  0  0  0  0  0
   -0.3144   -4.8759   -4.7289 H   0  0  0  0  0  0  0  0  0  0  0  0
   -0.5014   -5.2909   -2.9913 H   0  0  0  0  0  0  0  0  0  0  0  0
   -1.9493   -5.1758   -4.0481 H   0  0  0  0  0  0  0  0  0  0  0  0
  1  3  1  0  0  0  0
  1  7  1  0  0  0  0
  1  2  2  0  0  0  0
 33 34  1  0  0  0  0
 34 42  1  0  0  0  0
 34 35  2  0  0  0  0
  8  9  1  0  0  0  0
  9 17  1  0  0  0  0
  9 10  2  0  0  0  0
 18 19  1  0  0  0  0
 19 32  1  0  0  0  0
 19 20  2  0  0  0  0
 22 23  1  0  0  0  0
 23 24  1  0  0  0  0
 23 25  2  0  0  0  0
 33 36  1  0  0  0  0
  8 11  1  0  0  0  0
 42 43  1  0  0  0  0
 21 22  1  0  0  0  0
 18 21  1  0  0  0  0
 32 33  1  0  0  0  0
  7  8  1  0  0  0  0
 17 18  1  0  0  0  0
  3  4  1  0  0  0  0
  3  5  1  0  0  0  0
  3  6  1  0  0  0  0
 36 39  1  0  0  0  0
 36 40  1  0  0  0  0
 36 41  1  0  0  0  0
 11 14  1  0  0  0  0
 11 15  1  0  0  0  0
 11 16  1  0  0  0  0
 43 45  1  0  0  0  0
 43 46  1  0  0  0  0
 43 47  1  0  0  0  0
 22 30  1  0  0  0  0
 22 31  1  0  0  0  0
 21 28  1  0  0  0  0
 21 29  1  0  0  0  0
 33 38  1  0  0  0  0
  8 13  1  0  0  0  0
 18 27  1  0  0  0  0
 42 44  1  0  0  0  0
  7 12  1  0  0  0  0
 32 37  1  0  0  0  0
 17 26  1  0  0  0  0
M  CHG  1  24  -1
M  END
$$$$

  -OEChem-05262214473D

 47 46  0     1  0  0  0  0  0999 V2000
    0.5093   -4.7265    3.0306 C   0  0  0  0  0  0  0  0  0  0  0  0
    1.2735   -4.4402    3.9448 O   0  0  0  0  0  0  0  0  0  0  0  0
   -0.4465   -5.8608    3.1982 C   0  0  0  0  0  0  0  0  0  0  0  0
   -0.0219   -6.8213    2.8645 H   0  0  0  0  0  0  0  0  0  0  0  0
   -0.7314   -6.0185    4.2509 H   0  0  0  0  0  0  0  0  0  0  0  0
   -1.3983   -5.7596    2.6527 H   0  0  0  0  0  0  0  0  0  0  0  0
    0.4252   -4.0886    1.8040 N   0  0  0  0  0  0  0  0  0  0  0  0
    1.2532   -2.9707    1.4349 C   0  0  2  0  0  0  0  0  0  0  0  0
    0.3395   -1.8293    1.0083 C   0  0  0  0  0  0  0  0  0  0  0  0
   -0.8136   -2.0027    0.6194 O   0  0  0  0  0  0  0  0  0  0  0  0
    2.2176   -3.3411    0.3189 C   0  0  0  0  0  0  0  0  0  0  0  0
   -0.2574   -4.4279    1.1287 H   0  0  0  0  0  0  0  0  0  0  0  0
    1.8087   -2.6785    2.3327 H   0  0  0  0  0  0  0  0  0  0  0  0
    1.6793   -3.6366   -0.5890 H   0  0  0  0  0  0  0  0  0  0  0  0
    2.8662   -2.4980    0.0589 H   0  0  0  0  0  0  0  0  0  0  0  0
    2.8538   -4.1816    0.6166 H   0  0  0  0  0  0  0  0  0  0  0  0
    0.9758   -0.5952    1.0708 N   0  0  0  0  0  0  0  0  0  0  0  0
    0.3258    0.6374    0.7059 C   0  0  2  0  0  0  0  0  0  0  0  0
   -0.4181    0.3935   -0.6029 C   0  0  0  0  0  0  0  0  0  0  0  0
   -1.1047    1.2521   -1.1531 O   0  0  0  0  0  0  0  0  0  0  0  0
    1.3262    1.7882    0.5448 C   0  0  0  0  0  0  0  0  0  0  0  0
    1.9948    2.2019    1.8551 C   0  0  0  0  0  0  0  0  0  0  0  0
    3.0249    3.3324    1.7614 C   0  0  0  0  0  0  0  0  0  0  0  0
    3.2966    3.6918    0.5796 O   0  5  0  0  0  0  0  0  0  0  0  0
    3.4667    3.7793    2.8556 O   0  0  0  0  0  0  0  0  0  0  0  0
    1.9288   -0.5463    1.4242 H   0  0  0  0  0  0  0  0  0  0  0  0
   -0.4061    0.8513    1.4923 H   0  0  0  0  0  0  0  0  0  0  0  0
    0.8288    2.6582    0.0983 H   0  0  0  0  0  0  0  0  0  0  0  0
    2.1095    1.4913   -0.1654 H   0  0  0  0  0  0  0  0  0  0  0  0
    1.2323    2.4718    2.5955 H   0  0  0  0  0  0  0  0  0  0  0  0
    2.5288    1.3328    2.2603 H   0  0  0  0  0  0  0  0  0  0  0  0
   -0.2618   -0.9087   -1.0570 N   0  0  0  0  0  0  0  0  0  0  0  0
   -0.8797   -1.3953   -2.2686 C   0  0  2  0  0  0  0  0  0  0  0  0
   -0.8792   -2.9175   -2.2182 C   0  0  0  0  0  0  0  0  0  0  0  0
   -0.0993   -3.5653   -1.5231 O   0  0  0  0  0  0  0  0  0  0  0  0
   -0.1484   -0.8921   -3.5034 C   0  0  0  0  0  0  0  0  0  0  0  0
    0.3383   -1.5473   -0.5434 H   0  0  0  0  0  0  0  0  0  0  0  0
   -1.9123   -1.0296   -2.2660 H   0  0  0  0  0  0  0  0  0  0  0  0
    0.8880   -1.2484   -3.5235 H   0  0  0  0  0  0  0  0  0  0  0  0
   -0.6348   -1.2384   -4.4213 H   0  0  0  0  0  0  0  0  0  0  0  0
   -0.1239    0.2028   -3.5226 H   0  0  0  0  0  0  0  0  0  0  0  0
   -1.8232   -3.4683   -3.0735 N   0  0  0  0  0  0  0  0  0  0  0  0
   -2.0093   -4.8935   -3.2155 C   0  0  0  0  0  0  0  0  0  0  0  0
   -2.4403   -2.8552   -3.5981 H   0  0  0  0  0  0  0  0  0  0  0  0
   -1.3896   -5.2638   -4.0455 H   0  0  0  0  0  0  0  0  0  0  0  0
   -1.7121   -5.3965   -2.2834 H   0  0  0  0  0  0  0  0  0  0  0  0
   -3.0680   -5.1059   -3.4253 H   0  0  0  0  0  0  0  0  0  0  0  0
  1  3  1  0  0  0  0
  1  7  1  0  0  0  0
  1  2  2  0  0  0  0
 33 34  1  0  0  0  0
 34 42  1  0  0  0  0
 34 35  2  0  0  0  0
  8  9  1  0  0  0  0
  9 17  1  0  0  0  0
  9 10  2  0  0  0  0
 18 19  1  0  0  0  0
 19 32  1  0  0  0  0
 19 20  2  0  0  0  0
 22 23  1  0  0  0  0
 23 24  1  0  0  0  0
 23 25  2  0  0  0  0
 33 36  1  0  0  0  0
  8 11  1  0  0  0  0
 42 43  1  0  0  0  0
 21 22  1  0  0  0  0
 18 21  1  0  0  0  0
 32 33  1  0  0  0  0
  7  8  1  0  0  0  0
 17 18  1  0  0  0  0
  3  4  1  0  0  0  0
  3  5  1  0  0  0  0
  3  6  1  0  0  0  0
 36 39  1  0  0  0  0
 36 40  1  0  0  0  0
 36 41  1  0  0  0  0
 11 14  1  0  0  0  0
 11 15  1  0  0  0  0
 11 16  1  0  0  0  0
 43 45  1  0  0  0  0
 43 46  1  0  0  0  0
 43 47  1  0  0  0  0
 22 30  1  0  0  0  0
 22 31  1  0  0  0  0
 21 28  1  0  0  0  0
 21 29  1  0  0  0  0
 33 38  1  0  0  0  0
  8 13  1  0  0  0  0
 18 27  1  0  0  0  0
 42 44  1  0  0  0  0
  7 12  1  0  0  0  0
 32 37  1  0  0  0  0
 17 26  1  0  0  0  0
M  CHG  1  24  -1
M  END
$$$$

  -OEChem-05262214473D

 47 46  0     1  0  0  0  0  0999 V2000
    0.5093   -4.7265    3.0306 C   0  0  0  0  0  0  0  0  0  0  0  0
    1.2735   -4.4402    3.9448 O   0  0  0  0  0  0  0  0  0  0  0  0
   -0.4465   -5.8608    3.1982 C   0  0  0  0  0  0  0  0  0  0  0  0
   -0.0219   -6.8213    2.8645 H   0  0  0  0  0  0  0  0  0  0  0  0
   -0.7314   -6.0185    4.2509 H   0  0  0  0  0  0  0  0  0  0  0  0
   -1.3983   -5.7596    2.6527 H   0  0  0  0  0  0  0  0  0  0  0  0
    0.4252   -4.0886    1.8040 N   0  0  0  0  0  0  0  0  0  0  0  0
    1.2532   -2.9707    1.4349 C   0  0  2  0  0  0  0  0  0  0  0  0
    0.3395   -1.8293    1.0083 C   0  0  0  0  0  0  0  0  0  0  0  0
   -0.8136   -2.0027    0.6194 O   0  0  0  0  0  0  0  0  0  0  0  0
    2.2176   -3.3411    0.3189 C   0  0  0  0  0  0  0  0  0  0  0  0
   -0.2574   -4.4279    1.1287 H   0  0  0  0  0  0  0  0  0  0  0  0
    1.8087   -2.6785    2.3327 H   0  0  0  0  0  0  0  0  0  0  0  0
    1.6793   -3.6366   -0.5890 H   0  0  0  0  0  0  0  0  0  0  0  0
    2.8662   -2.4980    0.0589 H   0  0  0  0  0  0  0  0  0  0  0  0
    2.8538   -4.1816    0.6166 H   0  0  0  0  0  0  0  0  0  0  0  0
    0.9758   -0.5952    1.0708 N   0  0  0  0  0  0  0  0  0  0  0  0
    0.3258    0.6374    0.7059 C   0  0  2  0  0  0  0  0  0  0  0  0
   -0.4181    0.3935   -0.6029 C   0  0  0  0  0  0  0  0  0  0  0  0
   -0.8789    1.3023   -1.2907 O   0  0  0  0  0  0  0  0  0  0  0  0
    1.3262    1.7882    0.5448 C   0  0  0  0  0  0  0  0  0  0  0  0
    1.9948    2.2019    1.8551 C   0  0  0  0  0  0  0  0  0  0  0  0
    3.0249    3.3324    1.7614 C   0  0  0  0  0  0  0  0  0  0  0  0
    3.2966    3.6918    0.5796 O   0  5  0  0  0  0  0  0  0  0  0  0
    3.4667    3.7793    2.8556 O   0  0  0  0  0  0  0  0  0  0  0  0
    1.9288   -0.5463    1.4242 H   0  0  0  0  0  0  0  0  0  0  0  0
   -0.4061    0.8513    1.4923 H   0  0  0  0  0  0  0  0  0  0  0  0
    0.8288    2.6582    0.0983 H   0  0  0  0  0  0  0  0  0  0  0  0
    2.1095    1.4913   -0.1654 H   0  0  0  0  0  0  0  0  0  0  0  0
    1.2323    2.4718    2.5955 H   0  0  0  0  0  0  0  0  0  0  0  0
    2.5288    1.3328    2.2603 H   0  0  0  0  0  0  0  0  0  0  0  0
   -0.5462   -0.9592   -0.8859 N   0  0  0  0  0  0  0  0  0  0  0  0
   -1.2246   -1.4527   -2.0619 C   0  0  2  0  0  0  0  0  0  0  0  0
   -1.5676   -2.9178   -1.8269 C   0  0  0  0  0  0  0  0  0  0  0  0
   -0.9725   -3.6243   -1.0158 O   0  0  0  0  0  0  0  0  0  0  0  0
   -0.3657   -1.2883   -3.3060 C   0  0  0  0  0  0  0  0  0  0  0  0
   -0.1192   -1.6411   -0.2659 H   0  0  0  0  0  0  0  0  0  0  0  0
   -2.1483   -0.8722   -2.1612 H   0  0  0  0  0  0  0  0  0  0  0  0
    0.5642   -1.8629   -3.2250 H   0  0  0  0  0  0  0  0  0  0  0  0
   -0.8924   -1.6366   -4.2007 H   0  0  0  0  0  0  0  0  0  0  0  0
   -0.0952   -0.2377   -3.4569 H   0  0  0  0  0  0  0  0  0  0  0  0
   -2.5878   -3.3552   -2.6601 N   0  0  0  0  0  0  0  0  0  0  0  0
   -3.0855   -4.7108   -2.6378 C   0  0  0  0  0  0  0  0  0  0  0  0
   -3.0368   -2.6957   -3.2888 H   0  0  0  0  0  0  0  0  0  0  0  0
   -2.5427   -5.3135   -3.3808 H   0  0  0  0  0  0  0  0  0  0  0  0
   -2.9344   -5.1403   -1.6364 H   0  0  0  0  0  0  0  0  0  0  0  0
   -4.1587   -4.7112   -2.8789 H   0  0  0  0  0  0  0  0  0  0  0  0
  1  3  1  0  0  0  0
  1  7  1  0  0  0  0
  1  2  2  0  0  0  0
 33 34  1  0  0  0  0
 34 42  1  0  0  0  0
 34 35  2  0  0  0  0
  8  9  1  0  0  0  0
  9 17  1  0  0  0  0
  9 10  2  0  0  0  0
 18 19  1  0  0  0  0
 19 32  1  0  0  0  0
 19 20  2  0  0  0  0
 22 23  1  0  0  0  0
 23 24  1  0  0  0  0
 23 25  2  0  0  0  0
 33 36  1  0  0  0  0
  8 11  1  0  0  0  0
 42 43  1  0  0  0  0
 21 22  1  0  0  0  0
 18 21  1  0  0  0  0
 32 33  1  0  0  0  0
  7  8  1  0  0  0  0
 17 18  1  0  0  0  0
  3  4  1  0  0  0  0
  3  5  1  0  0  0  0
  3  6  1  0  0  0  0
 36 39  1  0  0  0  0
 36 40  1  0  0  0  0
 36 41  1  0  0  0  0
 11 14  1  0  0  0  0
 11 15  1  0  0  0  0
 11 16  1  0  0  0  0
 43 45  1  0  0  0  0
 43 46  1  0  0  0  0
 43 47  1  0  0  0  0
 22 30  1  0  0  0  0
 22 31  1  0  0  0  0
 21 28  1  0  0  0  0
 21 29  1  0  0  0  0
 33 38  1  0  0  0  0
  8 13  1  0  0  0  0
 18 27  1  0  0  0  0
 42 44  1  0  0  0  0
  7 12  1  0  0  0  0
 32 37  1  0  0  0  0
 17 26  1  0  0  0  0
M  CHG  1  24  -1
M  END
$$$$

  -OEChem-05262214473D

 47 46  0     1  0  0  0  0  0999 V2000
    0.5093   -4.7265    3.0306 C   0  0  0  0  0  0  0  0  0  0  0  0
    1.2735   -4.4402    3.9448 O   0  0  0  0  0  0  0  0  0  0  0  0
   -0.4465   -5.8608    3.1982 C   0  0  0  0  0  0  0  0  0  0  0  0
   -0.0219   -6.8213    2.8645 H   0  0  0  0  0  0  0  0  0  0  0  0
   -0.7314   -6.0185    4.2509 H   0  0  0  0  0  0  0  0  0  0  0  0
   -1.3983   -5.7596    2.6527 H   0  0  0  0  0  0  0  0  0  0  0  0
    0.4252   -4.0886    1.8040 N   0  0  0  0  0  0  0  0  0  0  0  0
    1.2532   -2.9707    1.4349 C   0  0  2  0  0  0  0  0  0  0  0  0
    0.3395   -1.8293    1.0083 C   0  0  0  0  0  0  0  0  0  0  0  0
   -0.8136   -2.0027    0.6194 O   0  0  0  0  0  0  0  0  0  0  0  0
    2.2176   -3.3411    0.3189 C   0  0  0  0  0  0  0  0  0  0  0  0
   -0.2574   -4.4279    1.1287 H   0  0  0  0  0  0  0  0  0  0  0  0
    1.8087   -2.6785    2.3327 H   0  0  0  0  0  0  0  0  0  0  0  0
    1.6793   -3.6366   -0.5890 H   0  0  0  0  0  0  0  0  0  0  0  0
    2.8662   -2.4980    0.0589 H   0  0  0  0  0  0  0  0  0  0  0  0
    2.8538   -4.1816    0.6166 H   0  0  0  0  0  0  0  0  0  0  0  0
    0.9758   -0.5952    1.0708 N   0  0  0  0  0  0  0  0  0  0  0  0
    0.3258    0.6374    0.7059 C   0  0  2  0  0  0  0  0  0  0  0  0
   -0.4181    0.3935   -0.6029 C   0  0  0  0  0  0  0  0  0  0  0  0
   -0.6440    1.2832   -1.4207 O   0  0  0  0  0  0  0  0  0  0  0  0
    1.3262    1.7882    0.5448 C   0  0  0  0  0  0  0  0  0  0  0  0
    1.9948    2.2019    1.8551 C   0  0  0  0  0  0  0  0  0  0  0  0
    3.0249    3.3324    1.7614 C   0  0  0  0  0  0  0  0  0  0  0  0
    3.2966    3.6918    0.5796 O   0  5  0  0  0  0  0  0  0  0  0  0
    3.4667    3.7793    2.8556 O   0  0  0  0  0  0  0  0  0  0  0  0
    1.9288   -0.5463    1.4242 H   0  0  0  0  0  0  0  0  0  0  0  0
   -0.4061    0.8513    1.4923 H   0  0  0  0  0  0  0  0  0  0  0  0
    0.8288    2.6582    0.0983 H   0  0  0  0  0  0  0  0  0  0  0  0
    2.1095    1.4913   -0.1654 H   0  0  0  0  0  0  0  0  0  0  0  0
    1.2323    2.4718    2.5955 H   0  0  0  0  0  0  0  0  0  0  0  0
    2.5288    1.3328    2.2603 H   0  0  0  0  0  0  0  0  0  0  0  0
   -0.8393   -0.9232   -0.7260 N   0  0  0  0  0  0  0  0  0  0  0  0
   -1.5791   -1.4054   -1.8692 C   0  0  2  0  0  0  0  0  0  0  0  0
   -2.2489   -2.7159   -1.4773 C   0  0  0  0  0  0  0  0  0  0  0  0
   -1.8501   -3.4233   -0.5545 O   0  0  0  0  0  0  0  0  0  0  0  0
   -0.6718   -1.5979   -3.0744 C   0  0  0  0  0  0  0  0  0  0  0  0
   -0.5935   -1.5950   -0.0050 H   0  0  0  0  0  0  0  0  0  0  0  0
   -2.3456   -0.6545   -2.0896 H   0  0  0  0  0  0  0  0  0  0  0  0
    0.1027   -2.3468   -2.8725 H   0  0  0  0  0  0  0  0  0  0  0  0
   -1.2389   -1.9361   -3.9479 H   0  0  0  0  0  0  0  0  0  0  0  0
   -0.1681   -0.6613   -3.3365 H   0  0  0  0  0  0  0  0  0  0  0  0
   -3.3183   -3.0239   -2.3066 N   0  0  0  0  0  0  0  0  0  0  0  0
   -4.1084   -4.2224   -2.1474 C   0  0  0  0  0  0  0  0  0  0  0  0
   -3.5903   -2.3701   -3.0348 H   0  0  0  0  0  0  0  0  0  0  0  0
   -3.6950   -5.0215   -2.7803 H   0  0  0  0  0  0  0  0  0  0  0  0
   -4.0849   -4.5397   -1.0944 H   0  0  0  0  0  0  0  0  0  0  0  0
   -5.1473   -4.0188   -2.4460 H   0  0  0  0  0  0  0  0  0  0  0  0
  1  3  1  0  0  0  0
  1  7  1  0  0  0  0
  1  2  2  0  0  0  0
 33 34  1  0  0  0  0
 34 42  1  0  0  0  0
 34 35  2  0  0  0  0
  8  9  1  0  0  0  0
  9 17  1  0  0  0  0
  9 10  2  0  0  0  0
 18 19  1  0  0  0  0
 19 32  1  0  0  0  0
 19 20  2  0  0  0  0
 22 23  1  0  0  0  0
 23 24  1  0  0  0  0
 23 25  2  0  0  0  0
 33 36  1  0  0  0  0
  8 11  1  0  0  0  0
 42 43  1  0  0  0  0
 21 22  1  0  0  0  0
 18 21  1  0  0  0  0
 32 33  1  0  0  0  0
  7  8  1  0  0  0  0
 17 18  1  0  0  0  0
  3  4  1  0  0  0  0
  3  5  1  0  0  0  0
  3  6  1  0  0  0  0
 36 39  1  0  0  0  0
 36 40  1  0  0  0  0
 36 41  1  0  0  0  0
 11 14  1  0  0  0  0
 11 15  1  0  0  0  0
 11 16  1  0  0  0  0
 43 45  1  0  0  0  0
 43 46  1  0  0  0  0
 43 47  1  0  0  0  0
 22 30  1  0  0  0  0
 22 31  1  0  0  0  0
 21 28  1  0  0  0  0
 21 29  1  0  0  0  0
 33 38  1  0  0  0  0
  8 13  1  0  0  0  0
 18 27  1  0  0  0  0
 42 44  1  0  0  0  0
  7 12  1  0  0  0  0
 32 37  1  0  0  0  0
 17 26  1  0  0  0  0
M  CHG  1  24  -1
M  END
$$$$

  -OEChem-05262214473D

 47 46  0     1  0  0  0  0  0999 V2000
    0.5093   -4.7265    3.0306 C   0  0  0  0  0  0  0  0  0  0  0  0
    1.2735   -4.4402    3.9448 O   0  0  0  0  0  0  0  0  0  0  0  0
   -0.4465   -5.8608    3.1982 C   0  0  0  0  0  0  0  0  0  0  0  0
   -0.0219   -6.8213    2.8645 H   0  0  0  0  0  0  0  0  0  0  0  0
   -0.7314   -6.0185    4.2509 H   0  0  0  0  0  0  0  0  0  0  0  0
   -1.3983   -5.7596    2.6527 H   0  0  0  0  0  0  0  0  0  0  0  0
    0.4252   -4.0886    1.8040 N   0  0  0  0  0  0  0  0  0  0  0  0
    1.2532   -2.9707    1.4349 C   0  0  2  0  0  0  0  0  0  0  0  0
    0.3395   -1.8293    1.0083 C   0  0  0  0  0  0  0  0  0  0  0  0
   -0.8136   -2.0027    0.6194 O   0  0  0  0  0  0  0  0  0  0  0  0
    2.2176   -3.3411    0.3189 C   0  0  0  0  0  0  0  0  0  0  0  0
   -0.2574   -4.4279    1.1287 H   0  0  0  0  0  0  0  0  0  0  0  0
    1.8087   -2.6785    2.3327 H   0  0  0  0  0  0  0  0  0  0  0  0
    1.6793   -3.6366   -0.5890 H   0  0  0  0  0  0  0  0  0  0  0  0
    2.8662   -2.4980    0.0589 H   0  0  0  0  0  0  0  0  0  0  0  0
    2.8538   -4.1816    0.6166 H   0  0  0  0  0  0  0  0  0  0  0  0
    0.9758   -0.5952    1.0708 N   0  0  0  0  0  0  0  0  0  0  0  0
    0.3258    0.6374    0.7059 C   0  0  2  0  0  0  0  0  0  0  0  0
   -0.4181    0.3935   -0.6029 C   0  0  0  0  0  0  0  0  0  0  0  0
   -0.4160    1.1961   -1.5340 O   0  0  0  0  0  0  0  0  0  0  0  0
    1.3262    1.7882    0.5448 C   0  0  0  0  0  0  0  0  0  0  0  0
    1.9948    2.2019    1.8551 C   0  0  0  0  0  0  0  0  0  0  0  0
    3.0249    3.3324    1.7614 C   0  0  0  0  0  0  0  0  0  0  0  0
    3.2966    3.6918    0.5796 O   0  5  0  0  0  0  0  0  0  0  0  0
    3.4667    3.7793    2.8556 O   0  0  0  0  0  0  0  0  0  0  0  0
    1.9288   -0.5463    1.4242 H   0  0  0  0  0  0  0  0  0  0  0  0
   -0.4061    0.8513    1.4923 H   0  0  0  0  0  0  0  0  0  0  0  0
    0.8288    2.6582    0.0983 H   0  0  0  0  0  0  0  0  0  0  0  0
    2.1095    1.4913   -0.1654 H   0  0  0  0  0  0  0  0  0  0  0  0
    1.2323    2.4718    2.5955 H   0  0  0  0  0  0  0  0  0  0  0  0
    2.5288    1.3328    2.2603 H   0  0  0  0  0  0  0  0  0  0  0  0
   -1.1210   -0.8032   -0.5883 N   0  0  0  0  0  0  0  0  0  0  0  0
   -1.9190   -1.2567   -1.7038 C   0  0  2  0  0  0  0  0  0  0  0  0
   -2.8766   -2.3253   -1.1933 C   0  0  0  0  0  0  0  0  0  0  0  0
   -2.6721   -2.9760   -0.1706 O   0  0  0  0  0  0  0  0  0  0  0  0
   -1.0458   -1.7997   -2.8242 C   0  0  0  0  0  0  0  0  0  0  0  0
   -1.0521   -1.4122    0.2217 H   0  0  0  0  0  0  0  0  0  0  0  0
   -2.4908   -0.3913   -2.0561 H   0  0  0  0  0  0  0  0  0  0  0  0
   -0.4653   -2.6673   -2.4900 H   0  0  0  0  0  0  0  0  0  0  0  0
   -1.6505   -2.1166   -3.6804 H   0  0  0  0  0  0  0  0  0  0  0  0
   -0.3375   -1.0390   -3.1698 H   0  0  0  0  0  0  0  0  0  0  0  0
   -3.9649   -2.4970   -2.0372 N   0  0  0  0  0  0  0  0  0  0  0  0
   -5.0082   -3.4615   -1.7777 C   0  0  0  0  0  0  0  0  0  0  0  0
   -4.0632   -1.9005   -2.8535 H   0  0  0  0  0  0  0  0  0  0  0  0
   -4.7680   -4.4076   -2.2848 H   0  0  0  0  0  0  0  0  0  0  0  0
   -5.0853   -3.6355   -0.6943 H   0  0  0  0  0  0  0  0  0  0  0  0
   -5.9663   -3.0757   -2.1562 H   0  0  0  0  0  0  0  0  0  0  0  0
  1  3  1  0  0  0  0
  1  7  1  0  0  0  0
  1  2  2  0  0  0  0
 33 34  1  0  0  0  0
 34 42  1  0  0  0  0
 34 35  2  0  0  0  0
  8  9  1  0  0  0  0
  9 17  1  0  0  0  0
  9 10  2  0  0  0  0
 18 19  1  0  0  0  0
 19 32  1  0  0  0  0
 19 20  2  0  0  0  0
 22 23  1  0  0  0  0
 23 24  1  0  0  0  0
 23 25  2  0  0  0  0
 33 36  1  0  0  0  0
  8 11  1  0  0  0  0
 42 43  1  0  0  0  0
 21 22  1  0  0  0  0
 18 21  1  0  0  0  0
 32 33  1  0  0  0  0
  7  8  1  0  0  0  0
 17 18  1  0  0  0  0
  3  4  1  0  0  0  0
  3  5  1  0  0  0  0
  3  6  1  0  0  0  0
 36 39  1  0  0  0  0
 36 40  1  0  0  0  0
 36 41  1  0  0  0  0
 11 14  1  0  0  0  0
 11 15  1  0  0  0  0
 11 16  1  0  0  0  0
 43 45  1  0  0  0  0
 43 46  1  0  0  0  0
 43 47  1  0  0  0  0
 22 30  1  0  0  0  0
 22 31  1  0  0  0  0
 21 28  1  0  0  0  0
 21 29  1  0  0  0  0
 33 38  1  0  0  0  0
  8 13  1  0  0  0  0
 18 27  1  0  0  0  0
 42 44  1  0  0  0  0
  7 12  1  0  0  0  0
 32 37  1  0  0  0  0
 17 26  1  0  0  0  0
M  CHG  1  24  -1
M  END
$$$$

  -OEChem-05262214473D

 47 46  0     1  0  0  0  0  0999 V2000
    0.5093   -4.7265    3.0306 C   0  0  0  0  0  0  0  0  0  0  0  0
    1.2735   -4.4402    3.9448 O   0  0  0  0  0  0  0  0  0  0  0  0
   -0.4465   -5.8608    3.1982 C   0  0  0  0  0  0  0  0  0  0  0  0
   -0.0219   -6.8213    2.8645 H   0  0  0  0  0  0  0  0  0  0  0  0
   -0.7314   -6.0185    4.2509 H   0  0  0  0  0  0  0  0  0  0  0  0
   -1.3983   -5.7596    2.6527 H   0  0  0  0  0  0  0  0  0  0  0  0
    0.4252   -4.0886    1.8040 N   0  0  0  0  0  0  0  0  0  0  0  0
    1.2532   -2.9707    1.4349 C   0  0  2  0  0  0  0  0  0  0  0  0
    0.3395   -1.8293    1.0083 C   0  0  0  0  0  0  0  0  0  0  0  0
   -0.8136   -2.0027    0.6194 O   0  0  0  0  0  0  0  0  0  0  0  0
    2.2176   -3.3411    0.3189 C   0  0  0  0  0  0  0  0  0  0  0  0
   -0.2574   -4.4279    1.1287 H   0  0  0  0  0  0  0  0  0  0  0  0
    1.8087   -2.6785    2.3327 H   0  0  0  0  0  0  0  0  0  0  0  0
    1.6793   -3.6366   -0.5890 H   0  0  0  0  0  0  0  0  0  0  0  0
    2.8662   -2.4980    0.0589 H   0  0  0  0  0  0  0  0  0  0  0  0
    2.8538   -4.1816    0.6166 H   0  0  0  0  0  0  0  0  0  0  0  0
    0.9758   -0.5952    1.0708 N   0  0  0  0  0  0  0  0  0  0  0  0
    0.3258    0.6374    0.7059 C   0  0  2  0  0  0  0  0  0  0  0  0
   -0.4181    0.3935   -0.6029 C   0  0  0  0  0  0  0  0  0  0  0  0
   -0.2104    1.0471   -1.6231 O   0  0  0  0  0  0  0  0  0  0  0  0
    1.3262    1.7882    0.5448 C   0  0  0  0  0  0  0  0  0  0  0  0
    1.9948    2.2019    1.8551 C   0  0  0  0  0  0  0  0  0  0  0  0
    3.0249    3.3324    1.7614 C   0  0  0  0  0  0  0  0  0  0  0  0
    3.2966    3.6918    0.5796 O   0  5  0  0  0  0  0  0  0  0  0  0
    3.4667    3.7793    2.8556 O   0  0  0  0  0  0  0  0  0  0  0  0
    1.9288   -0.5463    1.4242 H   0  0  0  0  0  0  0  0  0  0  0  0
   -0.4061    0.8513    1.4923 H   0  0  0  0  0  0  0  0  0  0  0  0
    0.8288    2.6582    0.0983 H   0  0  0  0  0  0  0  0  0  0  0  0
    2.1095    1.4913   -0.1654 H   0  0  0  0  0  0  0  0  0  0  0  0
    1.2323    2.4718    2.5955 H   0  0  0  0  0  0  0  0  0  0  0  0
    2.5288    1.3328    2.2603 H   0  0  0  0  0  0  0  0  0  0  0  0
   -1.3721   -0.6073   -0.4820 N   0  0  0  0  0  0  0  0  0  0  0  0
   -2.2211   -1.0166   -1.5768 C   0  0  2  0  0  0  0  0  0  0  0  0
   -3.4079   -1.7728   -0.9943 C   0  0  0  0  0  0  0  0  0  0  0  0
   -3.3827   -2.3129    0.1097 O   0  0  0  0  0  0  0  0  0  0  0  0
   -1.4623   -1.8799   -2.5726 C   0  0  0  0  0  0  0  0  0  0  0  0
   -1.4639   -1.1052    0.3985 H   0  0  0  0  0  0  0  0  0  0  0  0
   -2.5740   -0.1006   -2.0630 H   0  0  0  0  0  0  0  0  0  0  0  0
   -1.1009   -2.8024   -2.1036 H   0  0  0  0  0  0  0  0  0  0  0  0
   -2.0992   -2.1657   -3.4162 H   0  0  0  0  0  0  0  0  0  0  0  0
   -0.5920   -1.3452   -2.9682 H   0  0  0  0  0  0  0  0  0  0  0  0
   -4.4836   -1.8104   -1.8703 N   0  0  0  0  0  0  0  0  0  0  0  0
   -5.7237   -2.4799   -1.5540 C   0  0  0  0  0  0  0  0  0  0  0  0
   -4.4232   -1.3191   -2.7573 H   0  0  0  0  0  0  0  0  0  0  0  0
   -5.6886   -3.5138   -1.9281 H   0  0  0  0  0  0  0  0  0  0  0  0
   -5.8672   -2.4894   -0.4634 H   0  0  0  0  0  0  0  0  0  0  0  0
   -6.5599   -1.9463   -2.0292 H   0  0  0  0  0  0  0  0  0  0  0  0
  1  3  1  0  0  0  0
  1  7  1  0  0  0  0
  1  2  2  0  0  0  0
 33 34  1  0  0  0  0
 34 42  1  0  0  0  0
 34 35  2  0  0  0  0
  8  9  1  0  0  0  0
  9 17  1  0  0  0  0
  9 10  2  0  0  0  0
 18 19  1  0  0  0  0
 19 32  1  0  0  0  0
 19 20  2  0  0  0  0
 22 23  1  0  0  0  0
 23 24  1  0  0  0  0
 23 25  2  0  0  0  0
 33 36  1  0  0  0  0
  8 11  1  0  0  0  0
 42 43  1  0  0  0  0
 21 22  1  0  0  0  0
 18 21  1  0  0  0  0
 32 33  1  0  0  0  0
  7  8  1  0  0  0  0
 17 18  1  0  0  0  0
  3  4  1  0  0  0  0
  3  5  1  0  0  0  0
  3  6  1  0  0  0  0
 36 39  1  0  0  0  0
 36 40  1  0  0  0  0
 36 41  1  0  0  0  0
 11 14  1  0  0  0  0
 11 15  1  0  0  0  0
 11 16  1  0  0  0  0
 43 45  1  0  0  0  0
 43 46  1  0  0  0  0
 43 47  1  0  0  0  0
 22 30  1  0  0  0  0
 22 31  1  0  0  0  0
 21 28  1  0  0  0  0
 21 29  1  0  0  0  0
 33 38  1  0  0  0  0
  8 13  1  0  0  0  0
 18 27  1  0  0  0  0
 42 44  1  0  0  0  0
  7 12  1  0  0  0  0
 32 37  1  0  0  0  0
 17 26  1  0  0  0  0
M  CHG  1  24  -1
M  END
$$$$

  -OEChem-05262214473D

 47 46  0     1  0  0  0  0  0999 V2000
    0.5093   -4.7265    3.0306 C   0  0  0  0  0  0  0  0  0  0  0  0
    1.2735   -4.4402    3.9448 O   0  0  0  0  0  0  0  0  0  0  0  0
   -0.4465   -5.8608    3.1982 C   0  0  0  0  0  0  0  0  0  0  0  0
   -0.0219   -6.8213    2.8645 H   0  0  0  0  0  0  0  0  0  0  0  0
   -0.7314   -6.0185    4.2509 H   0  0  0  0  0  0  0  0  0  0  0  0
   -1.3983   -5.7596    2.6527 H   0  0  0  0  0  0  0  0  0  0  0  0
    0.4252   -4.0886    1.8040 N   0  0  0  0  0  0  0  0  0  0  0  0
    1.2532   -2.9707    1.4349 C   0  0  2  0  0  0  0  0  0  0  0  0
    0.3395   -1.8293    1.0083 C   0  0  0  0  0  0  0  0  0  0  0  0
   -0.8136   -2.0027    0.6194 O   0  0  0  0  0  0  0  0  0  0  0  0
    2.2176   -3.3411    0.3189 C   0  0  0  0  0  0  0  0  0  0  0  0
   -0.2574   -4.4279    1.1287 H   0  0  0  0  0  0  0  0  0  0  0  0
    1.8087   -2.6785    2.3327 H   0  0  0  0  0  0  0  0  0  0  0  0
    1.6793   -3.6366   -0.5890 H   0  0  0  0  0  0  0  0  0  0  0  0
    2.8662   -2.4980    0.0589 H   0  0  0  0  0  0  0  0  0  0  0  0
    2.8538   -4.1816    0.6166 H   0  0  0  0  0  0  0  0  0  0  0  0
    0.9758   -0.5952    1.0708 N   0  0  0  0  0  0  0  0  0  0  0  0
    0.3258    0.6374    0.7059 C   0  0  2  0  0  0  0  0  0  0  0  0
   -0.4181    0.3935   -0.6029 C   0  0  0  0  0  0  0  0  0  0  0  0
   -0.0412    0.8463   -1.6819 O   0  0  0  0  0  0  0  0  0  0  0  0
    1.3262    1.7882    0.5448 C   0  0  0  0  0  0  0  0  0  0  0  0
    1.9948    2.2019    1.8551 C   0  0  0  0  0  0  0  0  0  0  0  0
    3.0249    3.3324    1.7614 C   0  0  0  0  0  0  0  0  0  0  0  0
    3.2966    3.6918    0.5796 O   0  5  0  0  0  0  0  0  0  0  0  0
    3.4667    3.7793    2.8556 O   0  0  0  0  0  0  0  0  0  0  0  0
    1.9288   -0.5463    1.4242 H   0  0  0  0  0  0  0  0  0  0  0  0
   -0.4061    0.8513    1.4923 H   0  0  0  0  0  0  0  0  0  0  0  0
    0.8288    2.6582    0.0983 H   0  0  0  0  0  0  0  0  0  0  0  0
    2.1095    1.4913   -0.1654 H   0  0  0  0  0  0  0  0  0  0  0  0
    1.2323    2.4718    2.5955 H   0  0  0  0  0  0  0  0  0  0  0  0
    2.5288    1.3328    2.2603 H   0  0  0  0  0  0  0  0  0  0  0  0
   -1.5756   -0.3489   -0.4145 N   0  0  0  0  0  0  0  0  0  0  0  0
   -2.4648   -0.7016   -1.4969 C   0  0  2  0  0  0  0  0  0  0  0  0
   -3.8065   -1.0960   -0.8938 C   0  0  0  0  0  0  0  0  0  0  0  0
   -3.9334   -1.4791    0.2674 O   0  0  0  0  0  0  0  0  0  0  0  0
   -1.8928   -1.8332   -2.3366 C   0  0  0  0  0  0  0  0  0  0  0  0
   -1.8008   -0.6948    0.5135 H   0  0  0  0  0  0  0  0  0  0  0  0
   -2.5895    0.1978   -2.1098 H   0  0  0  0  0  0  0  0  0  0  0  0
   -1.7608   -2.7429   -1.7395 H   0  0  0  0  0  0  0  0  0  0  0  0
   -2.5545   -2.0801   -3.1733 H   0  0  0  0  0  0  0  0  0  0  0  0
   -0.9142   -1.5590   -2.7452 H   0  0  0  0  0  0  0  0  0  0  0  0
   -4.8391   -1.0110   -1.8172 N   0  0  0  0  0  0  0  0  0  0  0  0
   -6.2060   -1.3447   -1.4913 C   0  0  0  0  0  0  0  0  0  0  0  0
   -4.6457   -0.6653   -2.7526 H   0  0  0  0  0  0  0  0  0  0  0  0
   -6.3941   -2.4009   -1.7345 H   0  0  0  0  0  0  0  0  0  0  0  0
   -6.3775   -1.1796   -0.4174 H   0  0  0  0  0  0  0  0  0  0  0  0
   -6.8877   -0.7075   -2.0738 H   0  0  0  0  0  0  0  0  0  0  0  0
  1  3  1  0  0  0  0
  1  7  1  0  0  0  0
  1  2  2  0  0  0  0
 33 34  1  0  0  0  0
 34 42  1  0  0  0  0
 34 35  2  0  0  0  0
  8  9  1  0  0  0  0
  9 17  1  0  0  0  0
  9 10  2  0  0  0  0
 18 19  1  0  0  0  0
 19 32  1  0  0  0  0
 19 20  2  0  0  0  0
 22 23  1  0  0  0  0
 23 24  1  0  0  0  0
 23 25  2  0  0  0  0
 33 36  1  0  0  0  0
  8 11  1  0  0  0  0
 42 43  1  0  0  0  0
 21 22  1  0  0  0  0
 18 21  1  0  0  0  0
 32 33  1  0  0  0  0
  7  8  1  0  0  0  0
 17 18  1  0  0  0  0
  3  4  1  0  0  0  0
  3  5  1  0  0  0  0
  3  6  1  0  0  0  0
 36 39  1  0  0  0  0
 36 40  1  0  0  0  0
 36 41  1  0  0  0  0
 11 14  1  0  0  0  0
 11 15  1  0  0  0  0
 11 16  1  0  0  0  0
 43 45  1  0  0  0  0
 43 46  1  0  0  0  0
 43 47  1  0  0  0  0
 22 30  1  0  0  0  0
 22 31  1  0  0  0  0
 21 28  1  0  0  0  0
 21 29  1  0  0  0  0
 33 38  1  0  0  0  0
  8 13  1  0  0  0  0
 18 27  1  0  0  0  0
 42 44  1  0  0  0  0
  7 12  1  0  0  0  0
 32 37  1  0  0  0  0
 17 26  1  0  0  0  0
M  CHG  1  24  -1
M  END
$$$$

  -OEChem-05262214473D

 47 46  0     1  0  0  0  0  0999 V2000
    0.5093   -4.7265    3.0306 C   0  0  0  0  0  0  0  0  0  0  0  0
    1.2735   -4.4402    3.9448 O   0  0  0  0  0  0  0  0  0  0  0  0
   -0.4465   -5.8608    3.1982 C   0  0  0  0  0  0  0  0  0  0  0  0
   -0.0219   -6.8213    2.8645 H   0  0  0  0  0  0  0  0  0  0  0  0
   -0.7314   -6.0185    4.2509 H   0  0  0  0  0  0  0  0  0  0  0  0
   -1.3983   -5.7596    2.6527 H   0  0  0  0  0  0  0  0  0  0  0  0
    0.4252   -4.0886    1.8040 N   0  0  0  0  0  0  0  0  0  0  0  0
    1.2532   -2.9707    1.4349 C   0  0  2  0  0  0  0  0  0  0  0  0
    0.3395   -1.8293    1.0083 C   0  0  0  0  0  0  0  0  0  0  0  0
   -0.8136   -2.0027    0.6194 O   0  0  0  0  0  0  0  0  0  0  0  0
    2.2176   -3.3411    0.3189 C   0  0  0  0  0  0  0  0  0  0  0  0
   -0.2574   -4.4279    1.1287 H   0  0  0  0  0  0  0  0  0  0  0  0
    1.8087   -2.6785    2.3327 H   0  0  0  0  0  0  0  0  0  0  0  0
    1.6793   -3.6366   -0.5890 H   0  0  0  0  0  0  0  0  0  0  0  0
    2.8662   -2.4980    0.0589 H   0  0  0  0  0  0  0  0  0  0  0  0
    2.8538   -4.1816    0.6166 H   0  0  0  0  0  0  0  0  0  0  0  0
    0.9758   -0.5952    1.0708 N   0  0  0  0  0  0  0  0  0  0  0  0
    0.3258    0.6374    0.7059 C   0  0  2  0  0  0  0  0  0  0  0  0
   -0.4181    0.3935   -0.6029 C   0  0  0  0  0  0  0  0  0  0  0  0
    0.0800    0.6073   -1.7063 O   0  0  0  0  0  0  0  0  0  0  0  0
    1.3262    1.7882    0.5448 C   0  0  0  0  0  0  0  0  0  0  0  0
    1.9948    2.2019    1.8551 C   0  0  0  0  0  0  0  0  0  0  0  0
    3.0249    3.3324    1.7614 C   0  0  0  0  0  0  0  0  0  0  0  0
    3.2966    3.6918    0.5796 O   0  5  0  0  0  0  0  0  0  0  0  0
    3.4667    3.7793    2.8556 O   0  0  0  0  0  0  0  0  0  0  0  0
    1.9288   -0.5463    1.4242 H   0  0  0  0  0  0  0  0  0  0  0  0
   -0.4061    0.8513    1.4923 H   0  0  0  0  0  0  0  0  0  0  0  0
    0.8288    2.6582    0.0983 H   0  0  0  0  0  0  0  0  0  0  0  0
    2.1095    1.4913   -0.1654 H   0  0  0  0  0  0  0  0  0  0  0  0
    1.2323    2.4718    2.5955 H   0  0  0  0  0  0  0  0  0  0  0  0
    2.5288    1.3328    2.2603 H   0  0  0  0  0  0  0  0  0  0  0  0
   -1.7175   -0.0455   -0.3904 N   0  0  0  0  0  0  0  0  0  0  0  0
   -2.6336   -0.3332   -1.4696 C   0  0  2  0  0  0  0  0  0  0  0  0
   -4.0455   -0.3410   -0.8986 C   0  0  0  0  0  0  0  0  0  0  0  0
   -4.2866   -0.5315    0.2916 O   0  0  0  0  0  0  0  0  0  0  0  0
   -2.3080   -1.6626   -2.1324 C   0  0  0  0  0  0  0  0  0  0  0  0
   -2.0398   -0.2091    0.5589 H   0  0  0  0  0  0  0  0  0  0  0  0
   -2.5362    0.4835   -2.1933 H   0  0  0  0  0  0  0  0  0  0  0  0
   -2.4001   -2.4929   -1.4228 H   0  0  0  0  0  0  0  0  0  0  0  0
   -2.9854   -1.8656   -2.9684 H   0  0  0  0  0  0  0  0  0  0  0  0
   -1.2821   -1.6658   -2.5162 H   0  0  0  0  0  0  0  0  0  0  0  0
   -5.0070   -0.1531   -1.8816 N   0  0  0  0  0  0  0  0  0  0  0  0
   -6.4223   -0.1331   -1.5941 C   0  0  0  0  0  0  0  0  0  0  0  0
   -4.7156    0.0162   -2.8398 H   0  0  0  0  0  0  0  0  0  0  0  0
   -6.8363   -1.1447   -1.7171 H   0  0  0  0  0  0  0  0  0  0  0  0
   -6.5814    0.2048   -0.5594 H   0  0  0  0  0  0  0  0  0  0  0  0
   -6.9273    0.5563   -2.2867 H   0  0  0  0  0  0  0  0  0  0  0  0
  1  3  1  0  0  0  0
  1  7  1  0  0  0  0
  1  2  2  0  0  0  0
 33 34  1  0  0  0  0
 34 42  1  0  0  0  0
 34 35  2  0  0  0  0
  8  9  1  0  0  0  0
  9 17  1  0  0  0  0
  9 10  2  0  0  0  0
 18 19  1  0  0  0  0
 19 32  1  0  0  0  0
 19 20  2  0  0  0  0
 22 23  1  0  0  0  0
 23 24  1  0  0  0  0
 23 25  2  0  0  0  0
 33 36  1  0  0  0  0
  8 11  1  0  0  0  0
 42 43  1  0  0  0  0
 21 22  1  0  0  0  0
 18 21  1  0  0  0  0
 32 33  1  0  0  0  0
  7  8  1  0  0  0  0
 17 18  1  0  0  0  0
  3  4  1  0  0  0  0
  3  5  1  0  0  0  0
  3  6  1  0  0  0  0
 36 39  1  0  0  0  0
 36 40  1  0  0  0  0
 36 41  1  0  0  0  0
 11 14  1  0  0  0  0
 11 15  1  0  0  0  0
 11 16  1  0  0  0  0
 43 45  1  0  0  0  0
 43 46  1  0  0  0  0
 43 47  1  0  0  0  0
 22 30  1  0  0  0  0
 22 31  1  0  0  0  0
 21 28  1  0  0  0  0
 21 29  1  0  0  0  0
 33 38  1  0  0  0  0
  8 13  1  0  0  0  0
 18 27  1  0  0  0  0
 42 44  1  0  0  0  0
  7 12  1  0  0  0  0
 32 37  1  0  0  0  0
 17 26  1  0  0  0  0
M  CHG  1  24  -1
M  END
$$$$

  -OEChem-05262214473D

 47 46  0     1  0  0  0  0  0999 V2000
    0.5093   -4.7265    3.0306 C   0  0  0  0  0  0  0  0  0  0  0  0
    1.2735   -4.4402    3.9448 O   0  0  0  0  0  0  0  0  0  0  0  0
   -0.4465   -5.8608    3.1982 C   0  0  0  0  0  0  0  0  0  0  0  0
   -0.0219   -6.8213    2.8645 H   0  0  0  0  0  0  0  0  0  0  0  0
   -0.7314   -6.0185    4.2509 H   0  0  0  0  0  0  0  0  0  0  0  0
   -1.3983   -5.7596    2.6527 H   0  0  0  0  0  0  0  0  0  0  0  0
    0.4252   -4.0886    1.8040 N   0  0  0  0  0  0  0  0  0  0  0  0
    1.2532   -2.9707    1.4349 C   0  0  2  0  0  0  0  0  0  0  0  0
    0.3395   -1.8293    1.0083 C   0  0  0  0  0  0  0  0  0  0  0  0
   -0.8136   -2.0027    0.6194 O   0  0  0  0  0  0  0  0  0  0  0  0
    2.2176   -3.3411    0.3189 C   0  0  0  0  0  0  0  0  0  0  0  0
   -0.2574   -4.4279    1.1287 H   0  0  0  0  0  0  0  0  0  0  0  0
    1.8087   -2.6785    2.3327 H   0  0  0  0  0  0  0  0  0  0  0  0
    1.6793   -3.6366   -0.5890 H   0  0  0  0  0  0  0  0  0  0  0  0
    2.8662   -2.4980    0.0589 H   0  0  0  0  0  0  0  0  0  0  0  0
    2.8538   -4.1816    0.6166 H   0  0  0  0  0  0  0  0  0  0  0  0
    0.9758   -0.5952    1.0708 N   0  0  0  0  0  0  0  0  0  0  0  0
    0.3258    0.6374    0.7059 C   0  0  2  0  0  0  0  0  0  0  0  0
   -0.4181    0.3935   -0.6029 C   0  0  0  0  0  0  0  0  0  0  0  0
    0.1450    0.3464   -1.6946 O   0  0  0  0  0  0  0  0  0  0  0  0
    1.3262    1.7882    0.5448 C   0  0  0  0  0  0  0  0  0  0  0  0
    1.9948    2.2019    1.8551 C   0  0  0  0  0  0  0  0  0  0  0  0
    3.0249    3.3324    1.7614 C   0  0  0  0  0  0  0  0  0  0  0  0
    3.2966    3.6918    0.5796 O   0  5  0  0  0  0  0  0  0  0  0  0
    3.4667    3.7793    2.8556 O   0  0  0  0  0  0  0  0  0  0  0  0
    1.9288   -0.5463    1.4242 H   0  0  0  0  0  0  0  0  0  0  0  0
   -0.4061    0.8513    1.4923 H   0  0  0  0  0  0  0  0  0  0  0  0
    0.8288    2.6582    0.0983 H   0  0  0  0  0  0  0  0  0  0  0  0
    2.1095    1.4913   -0.1654 H   0  0  0  0  0  0  0  0  0  0  0  0
    1.2323    2.4718    2.5955 H   0  0  0  0  0  0  0  0  0  0  0  0
    2.5288    1.3328    2.2603 H   0  0  0  0  0  0  0  0  0  0  0  0
   -1.7882    0.2820   -0.4112 N   0  0  0  0  0  0  0  0  0  0  0  0
   -2.7159    0.0637   -1.4968 C   0  0  2  0  0  0  0  0  0  0  0  0
   -4.1084    0.4407   -1.0085 C   0  0  0  0  0  0  0  0  0  0  0  0
   -4.4184    0.4653    0.1808 O   0  0  0  0  0  0  0  0  0  0  0  0
   -2.6796   -1.3798   -1.9739 C   0  0  0  0  0  0  0  0  0  0  0  0
   -2.1646    0.3189    0.5315 H   0  0  0  0  0  0  0  0  0  0  0  0
   -2.4179    0.7371   -2.3078 H   0  0  0  0  0  0  0  0  0  0  0  0
   -2.9752   -2.0694   -1.1748 H   0  0  0  0  0  0  0  0  0  0  0  0
   -3.3623   -1.5369   -2.8154 H   0  0  0  0  0  0  0  0  0  0  0  0
   -1.6706   -1.6583   -2.2968 H   0  0  0  0  0  0  0  0  0  0  0  0
   -4.9761    0.7047   -2.0590 N   0  0  0  0  0  0  0  0  0  0  0  0
   -6.3579    1.0723   -1.8553 C   0  0  0  0  0  0  0  0  0  0  0  0
   -4.6282    0.6790   -3.0130 H   0  0  0  0  0  0  0  0  0  0  0  0
   -6.9852    0.1690   -1.8773 H   0  0  0  0  0  0  0  0  0  0  0  0
   -6.4650    1.5693   -0.8799 H   0  0  0  0  0  0  0  0  0  0  0  0
   -6.6760    1.7590   -2.6536 H   0  0  0  0  0  0  0  0  0  0  0  0
  1  3  1  0  0  0  0
  1  7  1  0  0  0  0
  1  2  2  0  0  0  0
 33 34  1  0  0  0  0
 34 42  1  0  0  0  0
 34 35  2  0  0  0  0
  8  9  1  0  0  0  0
  9 17  1  0  0  0  0
  9 10  2  0  0  0  0
 18 19  1  0  0  0  0
 19 32  1  0  0  0  0
 19 20  2  0  0  0  0
 22 23  1  0  0  0  0
 23 24  1  0  0  0  0
 23 25  2  0  0  0  0
 33 36  1  0  0  0  0
  8 11  1  0  0  0  0
 42 43  1  0  0  0  0
 21 22  1  0  0  0  0
 18 21  1  0  0  0  0
 32 33  1  0  0  0  0
  7  8  1  0  0  0  0
 17 18  1  0  0  0  0
  3  4  1  0  0  0  0
  3  5  1  0  0  0  0
  3  6  1  0  0  0  0
 36 39  1  0  0  0  0
 36 40  1  0  0  0  0
 36 41  1  0  0  0  0
 11 14  1  0  0  0  0
 11 15  1  0  0  0  0
 11 16  1  0  0  0  0
 43 45  1  0  0  0  0
 43 46  1  0  0  0  0
 43 47  1  0  0  0  0
 22 30  1  0  0  0  0
 22 31  1  0  0  0  0
 21 28  1  0  0  0  0
 21 29  1  0  0  0  0
 33 38  1  0  0  0  0
  8 13  1  0  0  0  0
 18 27  1  0  0  0  0
 42 44  1  0  0  0  0
  7 12  1  0  0  0  0
 32 37  1  0  0  0  0
 17 26  1  0  0  0  0
M  CHG  1  24  -1
M  END
$$$$

  -OEChem-05262214473D

 47 46  0     1  0  0  0  0  0999 V2000
    0.5093   -4.7265    3.0306 C   0  0  0  0  0  0  0  0  0  0  0  0
    1.2735   -4.4402    3.9448 O   0  0  0  0  0  0  0  0  0  0  0  0
   -0.4465   -5.8608    3.1982 C   0  0  0  0  0  0  0  0  0  0  0  0
   -0.0219   -6.8213    2.8645 H   0  0  0  0  0  0  0  0  0  0  0  0
   -0.7314   -6.0185    4.2509 H   0  0  0  0  0  0  0  0  0  0  0  0
   -1.3983   -5.7596    2.6527 H   0  0  0  0  0  0  0  0  0  0  0  0
    0.4252   -4.0886    1.8040 N   0  0  0  0  0  0  0  0  0  0  0  0
    1.2532   -2.9707    1.4349 C   0  0  2  0  0  0  0  0  0  0  0  0
    0.3395   -1.8293    1.0083 C   0  0  0  0  0  0  0  0  0  0  0  0
   -0.8136   -2.0027    0.6194 O   0  0  0  0  0  0  0  0  0  0  0  0
    2.2176   -3.3411    0.3189 C   0  0  0  0  0  0  0  0  0  0  0  0
   -0.2574   -4.4279    1.1287 H   0  0  0  0  0  0  0  0  0  0  0  0
    1.8087   -2.6785    2.3327 H   0  0  0  0  0  0  0  0  0  0  0  0
    1.6793   -3.6366   -0.5890 H   0  0  0  0  0  0  0  0  0  0  0  0
    2.8662   -2.4980    0.0589 H   0  0  0  0  0  0  0  0  0  0  0  0
    2.8538   -4.1816    0.6166 H   0  0  0  0  0  0  0  0  0  0  0  0
    0.9758   -0.5952    1.0708 N   0  0  0  0  0  0  0  0  0  0  0  0
    0.3258    0.6374    0.7059 C   0  0  2  0  0  0  0  0  0  0  0  0
   -0.4181    0.3935   -0.6029 C   0  0  0  0  0  0  0  0  0  0  0  0
    0.1494    0.0814   -1.6477 O   0  0  0  0  0  0  0  0  0  0  0  0
    1.3262    1.7882    0.5448 C   0  0  0  0  0  0  0  0  0  0  0  0
    1.9948    2.2019    1.8551 C   0  0  0  0  0  0  0  0  0  0  0  0
    3.0249    3.3324    1.7614 C   0  0  0  0  0  0  0  0  0  0  0  0
    3.2966    3.6918    0.5796 O   0  5  0  0  0  0  0  0  0  0  0  0
    3.4667    3.7793    2.8556 O   0  0  0  0  0  0  0  0  0  0  0  0
    1.9288   -0.5463    1.4242 H   0  0  0  0  0  0  0  0  0  0  0  0
   -0.4061    0.8513    1.4923 H   0  0  0  0  0  0  0  0  0  0  0  0
    0.8288    2.6582    0.0983 H   0  0  0  0  0  0  0  0  0  0  0  0
    2.1095    1.4913   -0.1654 H   0  0  0  0  0  0  0  0  0  0  0  0
    1.2323    2.4718    2.5955 H   0  0  0  0  0  0  0  0  0  0  0  0
    2.5288    1.3328    2.2603 H   0  0  0  0  0  0  0  0  0  0  0  0
   -1.7829    0.6115   -0.4756 N   0  0  0  0  0  0  0  0  0  0  0  0
   -2.7061    0.4619   -1.5765 C   0  0  2  0  0  0  0  0  0  0  0  0
   -3.9909    1.1959   -1.2160 C   0  0  0  0  0  0  0  0  0  0  0  0
   -4.3196    1.4434   -0.0576 O   0  0  0  0  0  0  0  0  0  0  0  0
   -2.9823   -1.0041   -1.8718 C   0  0  0  0  0  0  0  0  0  0  0  0
   -2.1668    0.8532    0.4332 H   0  0  0  0  0  0  0  0  0  0  0  0
   -2.2425    0.9414   -2.4455 H   0  0  0  0  0  0  0  0  0  0  0  0
   -3.4469   -1.5013   -1.0125 H   0  0  0  0  0  0  0  0  0  0  0  0
   -3.6598   -1.1163   -2.7247 H   0  0  0  0  0  0  0  0  0  0  0  0
   -2.0534   -1.5371   -2.1018 H   0  0  0  0  0  0  0  0  0  0  0  0
   -4.7483    1.5041   -2.3374 N   0  0  0  0  0  0  0  0  0  0  0  0
   -6.0171    2.1894   -2.2571 C   0  0  0  0  0  0  0  0  0  0  0  0
   -4.3893    1.2779   -3.2603 H   0  0  0  0  0  0  0  0  0  0  0  0
   -6.8306    1.4508   -2.2040 H   0  0  0  0  0  0  0  0  0  0  0  0
   -6.0361    2.8211   -1.3568 H   0  0  0  0  0  0  0  0  0  0  0  0
   -6.1510    2.8185   -3.1494 H   0  0  0  0  0  0  0  0  0  0  0  0
  1  3  1  0  0  0  0
  1  7  1  0  0  0  0
  1  2  2  0  0  0  0
 33 34  1  0  0  0  0
 34 42  1  0  0  0  0
 34 35  2  0  0  0  0
  8  9  1  0  0  0  0
  9 17  1  0  0  0  0
  9 10  2  0  0  0  0
 18 19  1  0  0  0  0
 19 32  1  0  0  0  0
 19 20  2  0  0  0  0
 22 23  1  0  0  0  0
 23 24  1  0  0  0  0
 23 25  2  0  0  0  0
 33 36  1  0  0  0  0
  8 11  1  0  0  0  0
 42 43  1  0  0  0  0
 21 22  1  0  0  0  0
 18 21  1  0  0  0  0
 32 33  1  0  0  0  0
  7  8  1  0  0  0  0
 17 18  1  0  0  0  0
  3  4  1  0  0  0  0
  3  5  1  0  0  0  0
  3  6  1  0  0  0  0
 36 39  1  0  0  0  0
 36 40  1  0  0  0  0
 36 41  1  0  0  0  0
 11 14  1  0  0  0  0
 11 15  1  0  0  0  0
 11 16  1  0  0  0  0
 43 45  1  0  0  0  0
 43 46  1  0  0  0  0
 43 47  1  0  0  0  0
 22 30  1  0  0  0  0
 22 31  1  0  0  0  0
 21 28  1  0  0  0  0
 21 29  1  0  0  0  0
 33 38  1  0  0  0  0
  8 13  1  0  0  0  0
 18 27  1  0  0  0  0
 42 44  1  0  0  0  0
  7 12  1  0  0  0  0
 32 37  1  0  0  0  0
 17 26  1  0  0  0  0
M  CHG  1  24  -1
M  END
$$$$

  -OEChem-05262214473D

 47 46  0     1  0  0  0  0  0999 V2000
    0.5093   -4.7265    3.0306 C   0  0  0  0  0  0  0  0  0  0  0  0
    1.2735   -4.4402    3.9448 O   0  0  0  0  0  0  0  0  0  0  0  0
   -0.4465   -5.8608    3.1982 C   0  0  0  0  0  0  0  0  0  0  0  0
   -0.0219   -6.8213    2.8645 H   0  0  0  0  0  0  0  0  0  0  0  0
   -0.7314   -6.0185    4.2509 H   0  0  0  0  0  0  0  0  0  0  0  0
   -1.3983   -5.7596    2.6527 H   0  0  0  0  0  0  0  0  0  0  0  0
    0.4252   -4.0886    1.8040 N   0  0  0  0  0  0  0  0  0  0  0  0
    1.2532   -2.9707    1.4349 C   0  0  2  0  0  0  0  0  0  0  0  0
    0.3395   -1.8293    1.0083 C   0  0  0  0  0  0  0  0  0  0  0  0
   -0.8136   -2.0027    0.6194 O   0  0  0  0  0  0  0  0  0  0  0  0
    2.2176   -3.3411    0.3189 C   0  0  0  0  0  0  0  0  0  0  0  0
   -0.2574   -4.4279    1.1287 H   0  0  0  0  0  0  0  0  0  0  0  0
    1.8087   -2.6785    2.3327 H   0  0  0  0  0  0  0  0  0  0  0  0
    1.6793   -3.6366   -0.5890 H   0  0  0  0  0  0  0  0  0  0  0  0
    2.8662   -2.4980    0.0589 H   0  0  0  0  0  0  0  0  0  0  0  0
    2.8538   -4.1816    0.6166 H   0  0  0  0  0  0  0  0  0  0  0  0
    0.9758   -0.5952    1.0708 N   0  0  0  0  0  0  0  0  0  0  0  0
    0.3258    0.6374    0.7059 C   0  0  2  0  0  0  0  0  0  0  0  0
   -0.4181    0.3935   -0.6029 C   0  0  0  0  0  0  0  0  0  0  0  0
    0.0929   -0.1696   -1.5688 O   0  0  0  0  0  0  0  0  0  0  0  0
    1.3262    1.7882    0.5448 C   0  0  0  0  0  0  0  0  0  0  0  0
    1.9948    2.2019    1.8551 C   0  0  0  0  0  0  0  0  0  0  0  0
    3.0249    3.3324    1.7614 C   0  0  0  0  0  0  0  0  0  0  0  0
    3.2966    3.6918    0.5796 O   0  5  0  0  0  0  0  0  0  0  0  0
    3.4667    3.7793    2.8556 O   0  0  0  0  0  0  0  0  0  0  0  0
    1.9288   -0.5463    1.4242 H   0  0  0  0  0  0  0  0  0  0  0  0
   -0.4061    0.8513    1.4923 H   0  0  0  0  0  0  0  0  0  0  0  0
    0.8288    2.6582    0.0983 H   0  0  0  0  0  0  0  0  0  0  0  0
    2.1095    1.4913   -0.1654 H   0  0  0  0  0  0  0  0  0  0  0  0
    1.2323    2.4718    2.5955 H   0  0  0  0  0  0  0  0  0  0  0  0
    2.5288    1.3328    2.2603 H   0  0  0  0  0  0  0  0  0  0  0  0
   -1.7019    0.9205   -0.5792 N   0  0  0  0  0  0  0  0  0  0  0  0
   -2.6050    0.8343   -1.7034 C   0  0  2  0  0  0  0  0  0  0  0  0
   -3.7012    1.8731   -1.5068 C   0  0  0  0  0  0  0  0  0  0  0  0
   -3.9971    2.3361   -0.4072 O   0  0  0  0  0  0  0  0  0  0  0  0
   -3.1954   -0.5611   -1.8332 C   0  0  0  0  0  0  0  0  0  0  0  0
   -2.0462    1.3573    0.2707 H   0  0  0  0  0  0  0  0  0  0  0  0
   -2.0220    1.0823   -2.5971 H   0  0  0  0  0  0  0  0  0  0  0  0
   -3.7831   -0.8274   -0.9470 H   0  0  0  0  0  0  0  0  0  0  0  0
   -3.8575   -0.6326   -2.7025 H   0  0  0  0  0  0  0  0  0  0  0  0
   -2.4042   -1.3103   -1.9446 H   0  0  0  0  0  0  0  0  0  0  0  0
   -4.3392    2.1904   -2.6978 N   0  0  0  0  0  0  0  0  0  0  0  0
   -5.4232    3.1419   -2.7721 C   0  0  0  0  0  0  0  0  0  0  0  0
   -4.0154    1.7722   -3.5650 H   0  0  0  0  0  0  0  0  0  0  0  0
   -6.3830    2.6134   -2.6750 H   0  0  0  0  0  0  0  0  0  0  0  0
   -5.3242    3.8747   -1.9578 H   0  0  0  0  0  0  0  0  0  0  0  0
   -5.3880    3.6628   -3.7404 H   0  0  0  0  0  0  0  0  0  0  0  0
  1  3  1  0  0  0  0
  1  7  1  0  0  0  0
  1  2  2  0  0  0  0
 33 34  1  0  0  0  0
 34 42  1  0  0  0  0
 34 35  2  0  0  0  0
  8  9  1  0  0  0  0
  9 17  1  0  0  0  0
  9 10  2  0  0  0  0
 18 19  1  0  0  0  0
 19 32  1  0  0  0  0
 19 20  2  0  0  0  0
 22 23  1  0  0  0  0
 23 24  1  0  0  0  0
 23 25  2  0  0  0  0
 33 36  1  0  0  0  0
  8 11  1  0  0  0  0
 42 43  1  0  0  0  0
 21 22  1  0  0  0  0
 18 21  1  0  0  0  0
 32 33  1  0  0  0  0
  7  8  1  0  0  0  0
 17 18  1  0  0  0  0
  3  4  1  0  0  0  0
  3  5  1  0  0  0  0
  3  6  1  0  0  0  0
 36 39  1  0  0  0  0
 36 40  1  0  0  0  0
 36 41  1  0  0  0  0
 11 14  1  0  0  0  0
 11 15  1  0  0  0  0
 11 16  1  0  0  0  0
 43 45  1  0  0  0  0
 43 46  1  0  0  0  0
 43 47  1  0  0  0  0
 22 30  1  0  0  0  0
 22 31  1  0  0  0  0
 21 28  1  0  0  0  0
 21 29  1  0  0  0  0
 33 38  1  0  0  0  0
  8 13  1  0  0  0  0
 18 27  1  0  0  0  0
 42 44  1  0  0  0  0
  7 12  1  0  0  0  0
 32 37  1  0  0  0  0
 17 26  1  0  0  0  0
M  CHG  1  24  -1
M  END
$$$$

  -OEChem-05262214473D

 47 46  0     1  0  0  0  0  0999 V2000
    0.5093   -4.7265    3.0306 C   0  0  0  0  0  0  0  0  0  0  0  0
    1.2735   -4.4402    3.9448 O   0  0  0  0  0  0  0  0  0  0  0  0
   -0.4465   -5.8608    3.1982 C   0  0  0  0  0  0  0  0  0  0  0  0
   -0.0219   -6.8213    2.8645 H   0  0  0  0  0  0  0  0  0  0  0  0
   -0.7314   -6.0185    4.2509 H   0  0  0  0  0  0  0  0  0  0  0  0
   -1.3983   -5.7596    2.6527 H   0  0  0  0  0  0  0  0  0  0  0  0
    0.4252   -4.0886    1.8040 N   0  0  0  0  0  0  0  0  0  0  0  0
    1.2532   -2.9707    1.4349 C   0  0  2  0  0  0  0  0  0  0  0  0
    0.3395   -1.8293    1.0083 C   0  0  0  0  0  0  0  0  0  0  0  0
   -0.8136   -2.0027    0.6194 O   0  0  0  0  0  0  0  0  0  0  0  0
    2.2176   -3.3411    0.3189 C   0  0  0  0  0  0  0  0  0  0  0  0
   -0.2574   -4.4279    1.1287 H   0  0  0  0  0  0  0  0  0  0  0  0
    1.8087   -2.6785    2.3327 H   0  0  0  0  0  0  0  0  0  0  0  0
    1.6793   -3.6366   -0.5890 H   0  0  0  0  0  0  0  0  0  0  0  0
    2.8662   -2.4980    0.0589 H   0  0  0  0  0  0  0  0  0  0  0  0
    2.8538   -4.1816    0.6166 H   0  0  0  0  0  0  0  0  0  0  0  0
    0.9758   -0.5952    1.0708 N   0  0  0  0  0  0  0  0  0  0  0  0
    0.3258    0.6374    0.7059 C   0  0  2  0  0  0  0  0  0  0  0  0
   -0.4181    0.3935   -0.6029 C   0  0  0  0  0  0  0  0  0  0  0  0
   -0.0208   -0.3895   -1.4633 O   0  0  0  0  0  0  0  0  0  0  0  0
    1.3262    1.7882    0.5448 C   0  0  0  0  0  0  0  0  0  0  0  0
    1.9948    2.2019    1.8551 C   0  0  0  0  0  0  0  0  0  0  0  0
    3.0249    3.3324    1.7614 C   0  0  0  0  0  0  0  0  0  0  0  0
    3.2966    3.6918    0.5796 O   0  5  0  0  0  0  0  0  0  0  0  0
    3.4667    3.7793    2.8556 O   0  0  0  0  0  0  0  0  0  0  0  0
    1.9288   -0.5463    1.4242 H   0  0  0  0  0  0  0  0  0  0  0  0
   -0.4061    0.8513    1.4923 H   0  0  0  0  0  0  0  0  0  0  0  0
    0.8288    2.6582    0.0983 H   0  0  0  0  0  0  0  0  0  0  0  0
    2.1095    1.4913   -0.1654 H   0  0  0  0  0  0  0  0  0  0  0  0
    1.2323    2.4718    2.5955 H   0  0  0  0  0  0  0  0  0  0  0  0
    2.5288    1.3328    2.2603 H   0  0  0  0  0  0  0  0  0  0  0  0
   -1.5508    1.1878   -0.7149 N   0  0  0  0  0  0  0  0  0  0  0  0
   -2.4193    1.1555   -1.8688 C   0  0  2  0  0  0  0  0  0  0  0  0
   -3.2588    2.4261   -1.8613 C   0  0  0  0  0  0  0  0  0  0  0  0
   -3.4728    3.0827   -0.8443 O   0  0  0  0  0  0  0  0  0  0  0  0
   -3.3045   -0.0810   -1.8606 C   0  0  0  0  0  0  0  0  0  0  0  0
   -1.8110    1.7970    0.0550 H   0  0  0  0  0  0  0  0  0  0  0  0
   -1.7714    1.1504   -2.7522 H   0  0  0  0  0  0  0  0  0  0  0  0
   -3.9608   -0.0934   -0.9828 H   0  0  0  0  0  0  0  0  0  0  0  0
   -3.9419   -0.1186   -2.7503 H   0  0  0  0  0  0  0  0  0  0  0  0
   -2.6992   -0.9936   -1.8360 H   0  0  0  0  0  0  0  0  0  0  0  0
   -3.7766    2.7170   -3.1156 N   0  0  0  0  0  0  0  0  0  0  0  0
   -4.6166    3.8651   -3.3653 C   0  0  0  0  0  0  0  0  0  0  0  0
   -3.5317    2.1280   -3.9062 H   0  0  0  0  0  0  0  0  0  0  0  0
   -5.6729    3.5775   -3.2582 H   0  0  0  0  0  0  0  0  0  0  0  0
   -4.3775    4.6584   -2.6418 H   0  0  0  0  0  0  0  0  0  0  0  0
   -4.4390    4.2341   -4.3862 H   0  0  0  0  0  0  0  0  0  0  0  0
  1  3  1  0  0  0  0
  1  7  1  0  0  0  0
  1  2  2  0  0  0  0
 33 34  1  0  0  0  0
 34 42  1  0  0  0  0
 34 35  2  0  0  0  0
  8  9  1  0  0  0  0
  9 17  1  0  0  0  0
  9 10  2  0  0  0  0
 18 19  1  0  0  0  0
 19 32  1  0  0  0  0
 19 20  2  0  0  0  0
 22 23  1  0  0  0  0
 23 24  1  0  0  0  0
 23 25  2  0  0  0  0
 33 36  1  0  0  0  0
  8 11  1  0  0  0  0
 42 43  1  0  0  0  0
 21 22  1  0  0  0  0
 18 21  1  0  0  0  0
 32 33  1  0  0  0  0
  7  8  1  0  0  0  0
 17 18  1  0  0  0  0
  3  4  1  0  0  0  0
  3  5  1  0  0  0  0
  3  6  1  0  0  0  0
 36 39  1  0  0  0  0
 36 40  1  0  0  0  0
 36 41  1  0  0  0  0
 11 14  1  0  0  0  0
 11 15  1  0  0  0  0
 11 16  1  0  0  0  0
 43 45  1  0  0  0  0
 43 46  1  0  0  0  0
 43 47  1  0  0  0  0
 22 30  1  0  0  0  0
 22 31  1  0  0  0  0
 21 28  1  0  0  0  0
 21 29  1  0  0  0  0
 33 38  1  0  0  0  0
  8 13  1  0  0  0  0
 18 27  1  0  0  0  0
 42 44  1  0  0  0  0
  7 12  1  0  0  0  0
 32 37  1  0  0  0  0
 17 26  1  0  0  0  0
M  CHG  1  24  -1
M  END
$$$$

  -OEChem-05262214473D

 47 46  0     1  0  0  0  0  0999 V2000
    0.5093   -4.7265    3.0306 C   0  0  0  0  0  0  0  0  0  0  0  0
    1.2735   -4.4402    3.9448 O   0  0  0  0  0  0  0  0  0  0  0  0
   -0.4465   -5.8608    3.1982 C   0  0  0  0  0  0  0  0  0  0  0  0
   -0.0219   -6.8213    2.8645 H   0  0  0  0  0  0  0  0  0  0  0  0
   -0.7314   -6.0185    4.2509 H   0  0  0  0  0  0  0  0  0  0  0  0
   -1.3983   -5.7596    2.6527 H   0  0  0  0  0  0  0  0  0  0  0  0
    0.4252   -4.0886    1.8040 N   0  0  0  0  0  0  0  0  0  0  0  0
    1.2532   -2.9707    1.4349 C   0  0  2  0  0  0  0  0  0  0  0  0
    0.3395   -1.8293    1.0083 C   0  0  0  0  0  0  0  0  0  0  0  0
   -0.8136   -2.0027    0.6194 O   0  0  0  0  0  0  0  0  0  0  0  0
    2.2176   -3.3411    0.3189 C   0  0  0  0  0  0  0  0  0  0  0  0
   -0.2574   -4.4279    1.1287 H   0  0  0  0  0  0  0  0  0  0  0  0
    1.8087   -2.6785    2.3327 H   0  0  0  0  0  0  0  0  0  0  0  0
    1.6793   -3.6366   -0.5890 H   0  0  0  0  0  0  0  0  0  0  0  0
    2.8662   -2.4980    0.0589 H   0  0  0  0  0  0  0  0  0  0  0  0
    2.8538   -4.1816    0.6166 H   0  0  0  0  0  0  0  0  0  0  0  0
    0.9758   -0.5952    1.0708 N   0  0  0  0  0  0  0  0  0  0  0  0
    0.3258    0.6374    0.7059 C   0  0  2  0  0  0  0  0  0  0  0  0
   -0.4181    0.3935   -0.6029 C   0  0  0  0  0  0  0  0  0  0  0  0
   -0.1838   -0.5633   -1.3383 O   0  0  0  0  0  0  0  0  0  0  0  0
    1.3262    1.7882    0.5448 C   0  0  0  0  0  0  0  0  0  0  0  0
    1.9948    2.2019    1.8551 C   0  0  0  0  0  0  0  0  0  0  0  0
    3.0249    3.3324    1.7614 C   0  0  0  0  0  0  0  0  0  0  0  0
    3.2966    3.6918    0.5796 O   0  5  0  0  0  0  0  0  0  0  0  0
    3.4667    3.7793    2.8556 O   0  0  0  0  0  0  0  0  0  0  0  0
    1.9288   -0.5463    1.4242 H   0  0  0  0  0  0  0  0  0  0  0  0
   -0.4061    0.8513    1.4923 H   0  0  0  0  0  0  0  0  0  0  0  0
    0.8288    2.6582    0.0983 H   0  0  0  0  0  0  0  0  0  0  0  0
    2.1095    1.4913   -0.1654 H   0  0  0  0  0  0  0  0  0  0  0  0
    1.2323    2.4718    2.5955 H   0  0  0  0  0  0  0  0  0  0  0  0
    2.5288    1.3328    2.2603 H   0  0  0  0  0  0  0  0  0  0  0  0
   -1.3398    1.3953   -0.8735 N   0  0  0  0  0  0  0  0  0  0  0  0
   -2.1617    1.4036   -2.0615 C   0  0  2  0  0  0  0  0  0  0  0  0
   -2.6940    2.8173   -2.2552 C   0  0  0  0  0  0  0  0  0  0  0  0
   -2.7825    3.6322   -1.3391 O   0  0  0  0  0  0  0  0  0  0  0  0
   -3.3021    0.4036   -1.9523 C   0  0  0  0  0  0  0  0  0  0  0  0
   -1.4772    2.1422   -0.1990 H   0  0  0  0  0  0  0  0  0  0  0  0
   -1.5079    1.1408   -2.9002 H   0  0  0  0  0  0  0  0  0  0  0  0
   -3.9680    0.6505   -1.1173 H   0  0  0  0  0  0  0  0  0  0  0  0
   -3.9072    0.3906   -2.8648 H   0  0  0  0  0  0  0  0  0  0  0  0
   -2.9183   -0.6083   -1.7832 H   0  0  0  0  0  0  0  0  0  0  0  0
   -3.0990    3.0479   -3.5624 N   0  0  0  0  0  0  0  0  0  0  0  0
   -3.6524    4.3095   -3.9962 C   0  0  0  0  0  0  0  0  0  0  0  0
   -2.9714    2.3213   -4.2606 H   0  0  0  0  0  0  0  0  0  0  0  0
   -4.7488    4.2773   -3.9138 H   0  0  0  0  0  0  0  0  0  0  0  0
   -3.2608    5.1188   -3.3623 H   0  0  0  0  0  0  0  0  0  0  0  0
   -3.3687    4.4937   -5.0429 H   0  0  0  0  0  0  0  0  0  0  0  0
  1  3  1  0  0  0  0
  1  7  1  0  0  0  0
  1  2  2  0  0  0  0
 33 34  1  0  0  0  0
 34 42  1  0  0  0  0
 34 35  2  0  0  0  0
  8  9  1  0  0  0  0
  9 17  1  0  0  0  0
  9 10  2  0  0  0  0
 18 19  1  0  0  0  0
 19 32  1  0  0  0  0
 19 20  2  0  0  0  0
 22 23  1  0  0  0  0
 23 24  1  0  0  0  0
 23 25  2  0  0  0  0
 33 36  1  0  0  0  0
  8 11  1  0  0  0  0
 42 43  1  0  0  0  0
 21 22  1  0  0  0  0
 18 21  1  0  0  0  0
 32 33  1  0  0  0  0
  7  8  1  0  0  0  0
 17 18  1  0  0  0  0
  3  4  1  0  0  0  0
  3  5  1  0  0  0  0
  3  6  1  0  0  0  0
 36 39  1  0  0  0  0
 36 40  1  0  0  0  0
 36 41  1  0  0  0  0
 11 14  1  0  0  0  0
 11 15  1  0  0  0  0
 11 16  1  0  0  0  0
 43 45  1  0  0  0  0
 43 46  1  0  0  0  0
 43 47  1  0  0  0  0
 22 30  1  0  0  0  0
 22 31  1  0  0  0  0
 21 28  1  0  0  0  0
 21 29  1  0  0  0  0
 33 38  1  0  0  0  0
  8 13  1  0  0  0  0
 18 27  1  0  0  0  0
 42 44  1  0  0  0  0
  7 12  1  0  0  0  0
 32 37  1  0  0  0  0
 17 26  1  0  0  0  0
M  CHG  1  24  -1
M  END
$$$$

  -OEChem-05262214473D

 47 46  0     1  0  0  0  0  0999 V2000
    0.5093   -4.7265    3.0306 C   0  0  0  0  0  0  0  0  0  0  0  0
    1.2735   -4.4402    3.9448 O   0  0  0  0  0  0  0  0  0  0  0  0
   -0.4465   -5.8608    3.1982 C   0  0  0  0  0  0  0  0  0  0  0  0
   -0.0219   -6.8213    2.8645 H   0  0  0  0  0  0  0  0  0  0  0  0
   -0.7314   -6.0185    4.2509 H   0  0  0  0  0  0  0  0  0  0  0  0
   -1.3983   -5.7596    2.6527 H   0  0  0  0  0  0  0  0  0  0  0  0
    0.4252   -4.0886    1.8040 N   0  0  0  0  0  0  0  0  0  0  0  0
    1.2532   -2.9707    1.4349 C   0  0  2  0  0  0  0  0  0  0  0  0
    0.3395   -1.8293    1.0083 C   0  0  0  0  0  0  0  0  0  0  0  0
   -0.8136   -2.0027    0.6194 O   0  0  0  0  0  0  0  0  0  0  0  0
    2.2176   -3.3411    0.3189 C   0  0  0  0  0  0  0  0  0  0  0  0
   -0.2574   -4.4279    1.1287 H   0  0  0  0  0  0  0  0  0  0  0  0
    1.8087   -2.6785    2.3327 H   0  0  0  0  0  0  0  0  0  0  0  0
    1.6793   -3.6366   -0.5890 H   0  0  0  0  0  0  0  0  0  0  0  0
    2.8662   -2.4980    0.0589 H   0  0  0  0  0  0  0  0  0  0  0  0
    2.8538   -4.1816    0.6166 H   0  0  0  0  0  0  0  0  0  0  0  0
    0.9758   -0.5952    1.0708 N   0  0  0  0  0  0  0  0  0  0  0  0
    0.3258    0.6374    0.7059 C   0  0  2  0  0  0  0  0  0  0  0  0
   -0.7057    0.3111   -0.3690 C   0  0  0  0  0  0  0  0  0  0  0  0
   -0.8647   -0.8201   -0.8233 O   0  0  0  0  0  0  0  0  0  0  0  0
    1.3230    1.6813    0.1893 C   0  0  0  0  0  0  0  0  0  0  0  0
    2.2905    2.1819    1.2611 C   0  0  0  0  0  0  0  0  0  0  0  0
    3.3308    3.2107    0.8058 C   0  0  0  0  0  0  0  0  0  0  0  0
    3.3476    3.4162   -0.4420 O   0  5  0  0  0  0  0  0  0  0  0  0
    4.0306    3.7386    1.7135 O   0  0  0  0  0  0  0  0  0  0  0  0
    1.9288   -0.5463    1.4242 H   0  0  0  0  0  0  0  0  0  0  0  0
   -0.1978    0.9930    1.5999 H   0  0  0  0  0  0  0  0  0  0  0  0
    0.7842    2.5337   -0.2428 H   0  0  0  0  0  0  0  0  0  0  0  0
    1.9095    1.2477   -0.6318 H   0  0  0  0  0  0  0  0  0  0  0  0
    1.7297    2.5904    2.1102 H   0  0  0  0  0  0  0  0  0  0  0  0
    2.8557    1.3231    1.6451 H   0  0  0  0  0  0  0  0  0  0  0  0
   -1.3928    1.4402   -0.7925 N   0  0  0  0  0  0  0  0  0  0  0  0
   -2.4126    1.3992   -1.8148 C   0  0  2  0  0  0  0  0  0  0  0  0
   -2.6150    2.8165   -2.3343 C   0  0  0  0  0  0  0  0  0  0  0  0
   -2.3150    3.8174   -1.6869 O   0  0  0  0  0  0  0  0  0  0  0  0
   -3.7142    0.8269   -1.2754 C   0  0  0  0  0  0  0  0  0  0  0  0
   -1.2049    2.3342   -0.3485 H   0  0  0  0  0  0  0  0  0  0  0  0
   -2.0269    0.7657   -2.6210 H   0  0  0  0  0  0  0  0  0  0  0  0
   -4.1158    1.4483   -0.4666 H   0  0  0  0  0  0  0  0  0  0  0  0
   -4.4773    0.7699   -2.0586 H   0  0  0  0  0  0  0  0  0  0  0  0
   -3.5604   -0.1810   -0.8750 H   0  0  0  0  0  0  0  0  0  0  0  0
   -3.2098    2.8328   -3.5881 N   0  0  0  0  0  0  0  0  0  0  0  0
   -3.5179    4.0574   -4.2890 C   0  0  0  0  0  0  0  0  0  0  0  0
   -3.4069    1.9546   -4.0591 H   0  0  0  0  0  0  0  0  0  0  0  0
   -4.5490    4.3632   -4.0582 H   0  0  0  0  0  0  0  0  0  0  0  0
   -2.8214    4.8471   -3.9707 H   0  0  0  0  0  0  0  0  0  0  0  0
   -3.4176    3.8949   -5.3723 H   0  0  0  0  0  0  0  0  0  0  0  0
  1  3  1  0  0  0  0
  1  7  1  0  0  0  0
  1  2  2  0  0  0  0
 33 34  1  0  0  0  0
 34 42  1  0  0  0  0
 34 35  2  0  0  0  0
  8  9  1  0  0  0  0
  9 17  1  0  0  0  0
  9 10  2  0  0  0  0
 18 19  1  0  0  0  0
 19 32  1  0  0  0  0
 19 20  2  0  0  0  0
 22 23  1  0  0  0  0
 23 24  1  0  0  0  0
 23 25  2  0  0  0  0
 33 36  1  0  0  0  0
  8 11  1  0  0  0  0
 42 43  1  0  0  0  0
 21 22  1  0  0  0  0
 18 21  1  0  0  0  0
 32 33  1  0  0  0  0
  7  8  1  0  0  0  0
 17 18  1  0  0  0  0
  3  4  1  0  0  0  0
  3  5  1  0  0  0  0
  3  6  1  0  0  0  0
 36 39  1  0  0  0  0
 36 40  1  0  0  0  0
 36 41  1  0  0  0  0
 11 14  1  0  0  0  0
 11 15  1  0  0  0  0
 11 16  1  0  0  0  0
 43 45  1  0  0  0  0
 43 46  1  0  0  0  0
 43 47  1  0  0  0  0
 22 30  1  0  0  0  0
 22 31  1  0  0  0  0
 21 28  1  0  0  0  0
 21 29  1  0  0  0  0
 33 38  1  0  0  0  0
  8 13  1  0  0  0  0
 18 27  1  0  0  0  0
 42 44  1  0  0  0  0
  7 12  1  0  0  0  0
 32 37  1  0  0  0  0
 17 26  1  0  0  0  0
M  CHG  1  24  -1
M  END
$$$$

  -OEChem-05262214473D

 47 46  0     1  0  0  0  0  0999 V2000
    0.5093   -4.7265    3.0306 C   0  0  0  0  0  0  0  0  0  0  0  0
    1.2735   -4.4402    3.9448 O   0  0  0  0  0  0  0  0  0  0  0  0
   -0.4465   -5.8608    3.1982 C   0  0  0  0  0  0  0  0  0  0  0  0
   -0.0219   -6.8213    2.8645 H   0  0  0  0  0  0  0  0  0  0  0  0
   -0.7314   -6.0185    4.2509 H   0  0  0  0  0  0  0  0  0  0  0  0
   -1.3983   -5.7596    2.6527 H   0  0  0  0  0  0  0  0  0  0  0  0
    0.4252   -4.0886    1.8040 N   0  0  0  0  0  0  0  0  0  0  0  0
    1.2532   -2.9707    1.4349 C   0  0  2  0  0  0  0  0  0  0  0  0
    0.3395   -1.8293    1.0083 C   0  0  0  0  0  0  0  0  0  0  0  0
   -0.8136   -2.0027    0.6194 O   0  0  0  0  0  0  0  0  0  0  0  0
    2.2176   -3.3411    0.3189 C   0  0  0  0  0  0  0  0  0  0  0  0
   -0.2574   -4.4279    1.1287 H   0  0  0  0  0  0  0  0  0  0  0  0
    1.8087   -2.6785    2.3327 H   0  0  0  0  0  0  0  0  0  0  0  0
    1.6793   -3.6366   -0.5890 H   0  0  0  0  0  0  0  0  0  0  0  0
    2.8662   -2.4980    0.0589 H   0  0  0  0  0  0  0  0  0  0  0  0
    2.8538   -4.1816    0.6166 H   0  0  0  0  0  0  0  0  0  0  0  0
    0.9758   -0.5952    1.0708 N   0  0  0  0  0  0  0  0  0  0  0  0
    0.3258    0.6374    0.7059 C   0  0  2  0  0  0  0  0  0  0  0  0
   -0.7057    0.3111   -0.3690 C   0  0  0  0  0  0  0  0  0  0  0  0
   -1.0560   -0.8369   -0.6347 O   0  0  0  0  0  0  0  0  0  0  0  0
    1.3230    1.6813    0.1893 C   0  0  0  0  0  0  0  0  0  0  0  0
    2.2905    2.1819    1.2611 C   0  0  0  0  0  0  0  0  0  0  0  0
    3.3308    3.2107    0.8058 C   0  0  0  0  0  0  0  0  0  0  0  0
    3.3476    3.4162   -0.4420 O   0  5  0  0  0  0  0  0  0  0  0  0
    4.0306    3.7386    1.7135 O   0  0  0  0  0  0  0  0  0  0  0  0
    1.9288   -0.5463    1.4242 H   0  0  0  0  0  0  0  0  0  0  0  0
   -0.1978    0.9930    1.5999 H   0  0  0  0  0  0  0  0  0  0  0  0
    0.7842    2.5337   -0.2428 H   0  0  0  0  0  0  0  0  0  0  0  0
    1.9095    1.2477   -0.6318 H   0  0  0  0  0  0  0  0  0  0  0  0
    1.7297    2.5904    2.1102 H   0  0  0  0  0  0  0  0  0  0  0  0
    2.8557    1.3231    1.6451 H   0  0  0  0  0  0  0  0  0  0  0  0
   -1.1520    1.4492   -1.0263 N   0  0  0  0  0  0  0  0  0  0  0  0
   -2.1206    1.4063   -2.0971 C   0  0  2  0  0  0  0  0  0  0  0  0
   -2.0334    2.7198   -2.8630 C   0  0  0  0  0  0  0  0  0  0  0  0
   -1.5768    3.7516   -2.3753 O   0  0  0  0  0  0  0  0  0  0  0  0
   -3.5264    1.1808   -1.5629 C   0  0  0  0  0  0  0  0  0  0  0  0
   -0.8174    2.3608   -0.7283 H   0  0  0  0  0  0  0  0  0  0  0  0
   -1.8291    0.5797   -2.7543 H   0  0  0  0  0  0  0  0  0  0  0  0
   -3.8359    1.9990   -0.9024 H   0  0  0  0  0  0  0  0  0  0  0  0
   -4.2555    1.1201   -2.3776 H   0  0  0  0  0  0  0  0  0  0  0  0
   -3.5800    0.2505   -0.9872 H   0  0  0  0  0  0  0  0  0  0  0  0
   -2.5651    2.6152   -4.1407 N   0  0  0  0  0  0  0  0  0  0  0  0
   -2.6106    3.7284   -5.0598 C   0  0  0  0  0  0  0  0  0  0  0  0
   -2.9046    1.7158   -4.4686 H   0  0  0  0  0  0  0  0  0  0  0  0
   -3.5744    4.2489   -4.9587 H   0  0  0  0  0  0  0  0  0  0  0  0
   -1.7915    4.4262   -4.8311 H   0  0  0  0  0  0  0  0  0  0  0  0
   -2.5002    3.3582   -6.0897 H   0  0  0  0  0  0  0  0  0  0  0  0
  1  3  1  0  0  0  0
  1  7  1  0  0  0  0
  1  2  2  0  0  0  0
 33 34  1  0  0  0  0
 34 42  1  0  0  0  0
 34 35  2  0  0  0  0
  8  9  1  0  0  0  0
  9 17  1  0  0  0  0
  9 10  2  0  0  0  0
 18 19  1  0  0  0  0
 19 32  1  0  0  0  0
 19 20  2  0  0  0  0
 22 23  1  0  0  0  0
 23 24  1  0  0  0  0
 23 25  2  0  0  0  0
 33 36  1  0  0  0  0
  8 11  1  0  0  0  0
 42 43  1  0  0  0  0
 21 22  1  0  0  0  0
 18 21  1  0  0  0  0
 32 33  1  0  0  0  0
  7  8  1  0  0  0  0
 17 18  1  0  0  0  0
  3  4  1  0  0  0  0
  3  5  1  0  0  0  0
  3  6  1  0  0  0  0
 36 39  1  0  0  0  0
 36 40  1  0  0  0  0
 36 41  1  0  0  0  0
 11 14  1  0  0  0  0
 11 15  1  0  0  0  0
 11 16  1  0  0  0  0
 43 45  1  0  0  0  0
 43 46  1  0  0  0  0
 43 47  1  0  0  0  0
 22 30  1  0  0  0  0
 22 31  1  0  0  0  0
 21 28  1  0  0  0  0
 21 29  1  0  0  0  0
 33 38  1  0  0  0  0
  8 13  1  0  0  0  0
 18 27  1  0  0  0  0
 42 44  1  0  0  0  0
  7 12  1  0  0  0  0
 32 37  1  0  0  0  0
 17 26  1  0  0  0  0
M  CHG  1  24  -1
M  END
$$$$

  -OEChem-05262214473D

 47 46  0     1  0  0  0  0  0999 V2000
    0.5093   -4.7265    3.0306 C   0  0  0  0  0  0  0  0  0  0  0  0
    1.2735   -4.4402    3.9448 O   0  0  0  0  0  0  0  0  0  0  0  0
   -0.4465   -5.8608    3.1982 C   0  0  0  0  0  0  0  0  0  0  0  0
   -0.0219   -6.8213    2.8645 H   0  0  0  0  0  0  0  0  0  0  0  0
   -0.7314   -6.0185    4.2509 H   0  0  0  0  0  0  0  0  0  0  0  0
   -1.3983   -5.7596    2.6527 H   0  0  0  0  0  0  0  0  0  0  0  0
    0.4252   -4.0886    1.8040 N   0  0  0  0  0  0  0  0  0  0  0  0
    1.2532   -2.9707    1.4349 C   0  0  2  0  0  0  0  0  0  0  0  0
    0.3395   -1.8293    1.0083 C   0  0  0  0  0  0  0  0  0  0  0  0
   -0.8136   -2.0027    0.6194 O   0  0  0  0  0  0  0  0  0  0  0  0
    2.2176   -3.3411    0.3189 C   0  0  0  0  0  0  0  0  0  0  0  0
   -0.2574   -4.4279    1.1287 H   0  0  0  0  0  0  0  0  0  0  0  0
    1.8087   -2.6785    2.3327 H   0  0  0  0  0  0  0  0  0  0  0  0
    1.6793   -3.6366   -0.5890 H   0  0  0  0  0  0  0  0  0  0  0  0
    2.8662   -2.4980    0.0589 H   0  0  0  0  0  0  0  0  0  0  0  0
    2.8538   -4.1816    0.6166 H   0  0  0  0  0  0  0  0  0  0  0  0
    0.9758   -0.5952    1.0708 N   0  0  0  0  0  0  0  0  0  0  0  0
    0.3258    0.6374    0.7059 C   0  0  2  0  0  0  0  0  0  0  0  0
   -0.7057    0.3111   -0.3690 C   0  0  0  0  0  0  0  0  0  0  0  0
   -1.2542   -0.7853   -0.4602 O   0  0  0  0  0  0  0  0  0  0  0  0
    1.3230    1.6813    0.1893 C   0  0  0  0  0  0  0  0  0  0  0  0
    2.2905    2.1819    1.2611 C   0  0  0  0  0  0  0  0  0  0  0  0
    3.3308    3.2107    0.8058 C   0  0  0  0  0  0  0  0  0  0  0  0
    3.3476    3.4162   -0.4420 O   0  5  0  0  0  0  0  0  0  0  0  0
    4.0306    3.7386    1.7135 O   0  0  0  0  0  0  0  0  0  0  0  0
    1.9288   -0.5463    1.4242 H   0  0  0  0  0  0  0  0  0  0  0  0
   -0.1978    0.9930    1.5999 H   0  0  0  0  0  0  0  0  0  0  0  0
    0.7842    2.5337   -0.2428 H   0  0  0  0  0  0  0  0  0  0  0  0
    1.9095    1.2477   -0.6318 H   0  0  0  0  0  0  0  0  0  0  0  0
    1.7297    2.5904    2.1102 H   0  0  0  0  0  0  0  0  0  0  0  0
    2.8557    1.3231    1.6451 H   0  0  0  0  0  0  0  0  0  0  0  0
   -0.9048    1.3730   -1.2404 N   0  0  0  0  0  0  0  0  0  0  0  0
   -1.8216    1.3104   -2.3549 C   0  0  2  0  0  0  0  0  0  0  0  0
   -1.4600    2.4278   -3.3246 C   0  0  0  0  0  0  0  0  0  0  0  0
   -0.8376    3.4329   -2.9878 O   0  0  0  0  0  0  0  0  0  0  0  0
   -3.2646    1.4381   -1.8922 C   0  0  0  0  0  0  0  0  0  0  0  0
   -0.4173    2.2492   -1.0784 H   0  0  0  0  0  0  0  0  0  0  0  0
   -1.6647    0.3406   -2.8395 H   0  0  0  0  0  0  0  0  0  0  0  0
   -3.4409    2.4036   -1.4042 H   0  0  0  0  0  0  0  0  0  0  0  0
   -3.9597    1.3619   -2.7349 H   0  0  0  0  0  0  0  0  0  0  0  0
   -3.5141    0.6513   -1.1721 H   0  0  0  0  0  0  0  0  0  0  0  0
   -1.9515    2.1908   -4.6007 N   0  0  0  0  0  0  0  0  0  0  0  0
   -1.7516    3.1103   -5.6964 C   0  0  0  0  0  0  0  0  0  0  0  0
   -2.4404    1.3218   -4.7944 H   0  0  0  0  0  0  0  0  0  0  0  0
   -2.6040    3.8031   -5.7545 H   0  0  0  0  0  0  0  0  0  0  0  0
   -0.8259    3.6811   -5.5316 H   0  0  0  0  0  0  0  0  0  0  0  0
   -1.6723    2.5469   -6.6378 H   0  0  0  0  0  0  0  0  0  0  0  0
  1  3  1  0  0  0  0
  1  7  1  0  0  0  0
  1  2  2  0  0  0  0
 33 34  1  0  0  0  0
 34 42  1  0  0  0  0
 34 35  2  0  0  0  0
  8  9  1  0  0  0  0
  9 17  1  0  0  0  0
  9 10  2  0  0  0  0
 18 19  1  0  0  0  0
 19 32  1  0  0  0  0
 19 20  2  0  0  0  0
 22 23  1  0  0  0  0
 23 24  1  0  0  0  0
 23 25  2  0  0  0  0
 33 36  1  0  0  0  0
  8 11  1  0  0  0  0
 42 43  1  0  0  0  0
 21 22  1  0  0  0  0
 18 21  1  0  0  0  0
 32 33  1  0  0  0  0
  7  8  1  0  0  0  0
 17 18  1  0  0  0  0
  3  4  1  0  0  0  0
  3  5  1  0  0  0  0
  3  6  1  0  0  0  0
 36 39  1  0  0  0  0
 36 40  1  0  0  0  0
 36 41  1  0  0  0  0
 11 14  1  0  0  0  0
 11 15  1  0  0  0  0
 11 16  1  0  0  0  0
 43 45  1  0  0  0  0
 43 46  1  0  0  0  0
 43 47  1  0  0  0  0
 22 30  1  0  0  0  0
 22 31  1  0  0  0  0
 21 28  1  0  0  0  0
 21 29  1  0  0  0  0
 33 38  1  0  0  0  0
  8 13  1  0  0  0  0
 18 27  1  0  0  0  0
 42 44  1  0  0  0  0
  7 12  1  0  0  0  0
 32 37  1  0  0  0  0
 17 26  1  0  0  0  0
M  CHG  1  24  -1
M  END
$$$$

  -OEChem-05262214473D

 47 46  0     1  0  0  0  0  0999 V2000
    0.5093   -4.7265    3.0306 C   0  0  0  0  0  0  0  0  0  0  0  0
    1.2735   -4.4402    3.9448 O   0  0  0  0  0  0  0  0  0  0  0  0
   -0.4465   -5.8608    3.1982 C   0  0  0  0  0  0  0  0  0  0  0  0
   -0.0219   -6.8213    2.8645 H   0  0  0  0  0  0  0  0  0  0  0  0
   -0.7314   -6.0185    4.2509 H   0  0  0  0  0  0  0  0  0  0  0  0
   -1.3983   -5.7596    2.6527 H   0  0  0  0  0  0  0  0  0  0  0  0
    0.4252   -4.0886    1.8040 N   0  0  0  0  0  0  0  0  0  0  0  0
    1.2532   -2.9707    1.4349 C   0  0  2  0  0  0  0  0  0  0  0  0
    0.3395   -1.8293    1.0083 C   0  0  0  0  0  0  0  0  0  0  0  0
   -0.8136   -2.0027    0.6194 O   0  0  0  0  0  0  0  0  0  0  0  0
    2.2176   -3.3411    0.3189 C   0  0  0  0  0  0  0  0  0  0  0  0
   -0.2574   -4.4279    1.1287 H   0  0  0  0  0  0  0  0  0  0  0  0
    1.8087   -2.6785    2.3327 H   0  0  0  0  0  0  0  0  0  0  0  0
    1.6793   -3.6366   -0.5890 H   0  0  0  0  0  0  0  0  0  0  0  0
    2.8662   -2.4980    0.0589 H   0  0  0  0  0  0  0  0  0  0  0  0
    2.8538   -4.1816    0.6166 H   0  0  0  0  0  0  0  0  0  0  0  0
    0.9758   -0.5952    1.0708 N   0  0  0  0  0  0  0  0  0  0  0  0
    0.3258    0.6374    0.7059 C   0  0  2  0  0  0  0  0  0  0  0  0
   -0.7057    0.3111   -0.3690 C   0  0  0  0  0  0  0  0  0  0  0  0
   -1.4459   -0.6687   -0.3116 O   0  0  0  0  0  0  0  0  0  0  0  0
    1.3230    1.6813    0.1893 C   0  0  0  0  0  0  0  0  0  0  0  0
    2.2905    2.1819    1.2611 C   0  0  0  0  0  0  0  0  0  0  0  0
    3.3308    3.2107    0.8058 C   0  0  0  0  0  0  0  0  0  0  0  0
    3.3476    3.4162   -0.4420 O   0  5  0  0  0  0  0  0  0  0  0  0
    4.0306    3.7386    1.7135 O   0  0  0  0  0  0  0  0  0  0  0  0
    1.9288   -0.5463    1.4242 H   0  0  0  0  0  0  0  0  0  0  0  0
   -0.1978    0.9930    1.5999 H   0  0  0  0  0  0  0  0  0  0  0  0
    0.7842    2.5337   -0.2428 H   0  0  0  0  0  0  0  0  0  0  0  0
    1.9095    1.2477   -0.6318 H   0  0  0  0  0  0  0  0  0  0  0  0
    1.7297    2.5904    2.1102 H   0  0  0  0  0  0  0  0  0  0  0  0
    2.8557    1.3231    1.6451 H   0  0  0  0  0  0  0  0  0  0  0  0
   -0.6680    1.2168   -1.4201 N   0  0  0  0  0  0  0  0  0  0  0  0
   -1.5360    1.1182   -2.5706 C   0  0  2  0  0  0  0  0  0  0  0  0
   -0.9338    1.9603   -3.6876 C   0  0  0  0  0  0  0  0  0  0  0  0
   -0.1478    2.8829   -3.4828 O   0  0  0  0  0  0  0  0  0  0  0  0
   -2.9466    1.5812   -2.2408 C   0  0  0  0  0  0  0  0  0  0  0  0
   -0.0317    2.0072   -1.3749 H   0  0  0  0  0  0  0  0  0  0  0  0
   -1.5448    0.0647   -2.8708 H   0  0  0  0  0  0  0  0  0  0  0  0
   -2.9578    2.6346   -1.9379 H   0  0  0  0  0  0  0  0  0  0  0  0
   -3.6101    1.4791   -3.1059 H   0  0  0  0  0  0  0  0  0  0  0  0
   -3.3670    0.9940   -1.4173 H   0  0  0  0  0  0  0  0  0  0  0  0
   -1.4107    1.5883   -4.9367 N   0  0  0  0  0  0  0  0  0  0  0  0
   -0.9994    2.2450   -6.1555 C   0  0  0  0  0  0  0  0  0  0  0  0
   -2.0458    0.7994   -5.0145 H   0  0  0  0  0  0  0  0  0  0  0  0
   -1.7040    3.0561   -6.3914 H   0  0  0  0  0  0  0  0  0  0  0  0
    0.0097    2.6627   -6.0243 H   0  0  0  0  0  0  0  0  0  0  0  0
   -0.9903    1.5163   -6.9795 H   0  0  0  0  0  0  0  0  0  0  0  0
  1  3  1  0  0  0  0
  1  7  1  0  0  0  0
  1  2  2  0  0  0  0
 33 34  1  0  0  0  0
 34 42  1  0  0  0  0
 34 35  2  0  0  0  0
  8  9  1  0  0  0  0
  9 17  1  0  0  0  0
  9 10  2  0  0  0  0
 18 19  1  0  0  0  0
 19 32  1  0  0  0  0
 19 20  2  0  0  0  0
 22 23  1  0  0  0  0
 23 24  1  0  0  0  0
 23 25  2  0  0  0  0
 33 36  1  0  0  0  0
  8 11  1  0  0  0  0
 42 43  1  0  0  0  0
 21 22  1  0  0  0  0
 18 21  1  0  0  0  0
 32 33  1  0  0  0  0
  7  8  1  0  0  0  0
 17 18  1  0  0  0  0
  3  4  1  0  0  0  0
  3  5  1  0  0  0  0
  3  6  1  0  0  0  0
 36 39  1  0  0  0  0
 36 40  1  0  0  0  0
 36 41  1  0  0  0  0
 11 14  1  0  0  0  0
 11 15  1  0  0  0  0
 11 16  1  0  0  0  0
 43 45  1  0  0  0  0
 43 46  1  0  0  0  0
 43 47  1  0  0  0  0
 22 30  1  0  0  0  0
 22 31  1  0  0  0  0
 21 28  1  0  0  0  0
 21 29  1  0  0  0  0
 33 38  1  0  0  0  0
  8 13  1  0  0  0  0
 18 27  1  0  0  0  0
 42 44  1  0  0  0  0
  7 12  1  0  0  0  0
 32 37  1  0  0  0  0
 17 26  1  0  0  0  0
M  CHG  1  24  -1
M  END
$$$$

  -OEChem-05262214473D

 47 46  0     1  0  0  0  0  0999 V2000
    0.5093   -4.7265    3.0306 C   0  0  0  0  0  0  0  0  0  0  0  0
    1.2735   -4.4402    3.9448 O   0  0  0  0  0  0  0  0  0  0  0  0
   -0.4465   -5.8608    3.1982 C   0  0  0  0  0  0  0  0  0  0  0  0
   -0.0219   -6.8213    2.8645 H   0  0  0  0  0  0  0  0  0  0  0  0
   -0.7314   -6.0185    4.2509 H   0  0  0  0  0  0  0  0  0  0  0  0
   -1.3983   -5.7596    2.6527 H   0  0  0  0  0  0  0  0  0  0  0  0
    0.4252   -4.0886    1.8040 N   0  0  0  0  0  0  0  0  0  0  0  0
    1.2532   -2.9707    1.4349 C   0  0  2  0  0  0  0  0  0  0  0  0
    0.3395   -1.8293    1.0083 C   0  0  0  0  0  0  0  0  0  0  0  0
   -0.8136   -2.0027    0.6194 O   0  0  0  0  0  0  0  0  0  0  0  0
    2.2176   -3.3411    0.3189 C   0  0  0  0  0  0  0  0  0  0  0  0
   -0.2574   -4.4279    1.1287 H   0  0  0  0  0  0  0  0  0  0  0  0
    1.8087   -2.6785    2.3327 H   0  0  0  0  0  0  0  0  0  0  0  0
    1.6793   -3.6366   -0.5890 H   0  0  0  0  0  0  0  0  0  0  0  0
    2.8662   -2.4980    0.0589 H   0  0  0  0  0  0  0  0  0  0  0  0
    2.8538   -4.1816    0.6166 H   0  0  0  0  0  0  0  0  0  0  0  0
    0.9758   -0.5952    1.0708 N   0  0  0  0  0  0  0  0  0  0  0  0
    0.3258    0.6374    0.7059 C   0  0  2  0  0  0  0  0  0  0  0  0
   -0.7057    0.3111   -0.3690 C   0  0  0  0  0  0  0  0  0  0  0  0
   -1.6180   -0.4951   -0.1991 O   0  0  0  0  0  0  0  0  0  0  0  0
    1.3230    1.6813    0.1893 C   0  0  0  0  0  0  0  0  0  0  0  0
    2.2905    2.1819    1.2611 C   0  0  0  0  0  0  0  0  0  0  0  0
    3.3308    3.2107    0.8058 C   0  0  0  0  0  0  0  0  0  0  0  0
    3.3476    3.4162   -0.4420 O   0  5  0  0  0  0  0  0  0  0  0  0
    4.0306    3.7386    1.7135 O   0  0  0  0  0  0  0  0  0  0  0  0
    1.9288   -0.5463    1.4242 H   0  0  0  0  0  0  0  0  0  0  0  0
   -0.1978    0.9930    1.5999 H   0  0  0  0  0  0  0  0  0  0  0  0
    0.7842    2.5337   -0.2428 H   0  0  0  0  0  0  0  0  0  0  0  0
    1.9095    1.2477   -0.6318 H   0  0  0  0  0  0  0  0  0  0  0  0
    1.7297    2.5904    2.1102 H   0  0  0  0  0  0  0  0  0  0  0  0
    2.8557    1.3231    1.6451 H   0  0  0  0  0  0  0  0  0  0  0  0
   -0.4579    0.9913   -1.5533 N   0  0  0  0  0  0  0  0  0  0  0  0
   -1.2833    0.8427   -2.7294 C   0  0  2  0  0  0  0  0  0  0  0  0
   -0.4908    1.3492   -3.9272 C   0  0  0  0  0  0  0  0  0  0  0  0
    0.4456    2.1392   -3.8264 O   0  0  0  0  0  0  0  0  0  0  0  0
   -2.5939    1.6004   -2.5850 C   0  0  0  0  0  0  0  0  0  0  0  0
    0.3129    1.6512   -1.5976 H   0  0  0  0  0  0  0  0  0  0  0  0
   -1.4776   -0.2291   -2.8461 H   0  0  0  0  0  0  0  0  0  0  0  0
   -2.4195    2.6761   -2.4670 H   0  0  0  0  0  0  0  0  0  0  0  0
   -3.2305    1.4635   -3.4654 H   0  0  0  0  0  0  0  0  0  0  0  0
   -3.1488    1.2553   -1.7059 H   0  0  0  0  0  0  0  0  0  0  0  0
   -0.9797    0.8489   -5.1259 N   0  0  0  0  0  0  0  0  0  0  0  0
   -0.4052    1.1916   -6.4059 C   0  0  0  0  0  0  0  0  0  0  0  0
   -1.7478    0.1844   -5.1138 H   0  0  0  0  0  0  0  0  0  0  0  0
   -0.9356    2.0589   -6.8261 H   0  0  0  0  0  0  0  0  0  0  0  0
    0.6584    1.4403   -6.2756 H   0  0  0  0  0  0  0  0  0  0  0  0
   -0.5006    0.3365   -7.0913 H   0  0  0  0  0  0  0  0  0  0  0  0
  1  3  1  0  0  0  0
  1  7  1  0  0  0  0
  1  2  2  0  0  0  0
 33 34  1  0  0  0  0
 34 42  1  0  0  0  0
 34 35  2  0  0  0  0
  8  9  1  0  0  0  0
  9 17  1  0  0  0  0
  9 10  2  0  0  0  0
 18 19  1  0  0  0  0
 19 32  1  0  0  0  0
 19 20  2  0  0  0  0
 22 23  1  0  0  0  0
 23 24  1  0  0  0  0
 23 25  2  0  0  0  0
 33 36  1  0  0  0  0
  8 11  1  0  0  0  0
 42 43  1  0  0  0  0
 21 22  1  0  0  0  0
 18 21  1  0  0  0  0
 32 33  1  0  0  0  0
  7  8  1  0  0  0  0
 17 18  1  0  0  0  0
  3  4  1  0  0  0  0
  3  5  1  0  0  0  0
  3  6  1  0  0  0  0
 36 39  1  0  0  0  0
 36 40  1  0  0  0  0
 36 41  1  0  0  0  0
 11 14  1  0  0  0  0
 11 15  1  0  0  0  0
 11 16  1  0  0  0  0
 43 45  1  0  0  0  0
 43 46  1  0  0  0  0
 43 47  1  0  0  0  0
 22 30  1  0  0  0  0
 22 31  1  0  0  0  0
 21 28  1  0  0  0  0
 21 29  1  0  0  0  0
 33 38  1  0  0  0  0
  8 13  1  0  0  0  0
 18 27  1  0  0  0  0
 42 44  1  0  0  0  0
  7 12  1  0  0  0  0
 32 37  1  0  0  0  0
 17 26  1  0  0  0  0
M  CHG  1  24  -1
M  END
$$$$

  -OEChem-05262214473D

 47 46  0     1  0  0  0  0  0999 V2000
    0.5093   -4.7265    3.0306 C   0  0  0  0  0  0  0  0  0  0  0  0
    1.2735   -4.4402    3.9448 O   0  0  0  0  0  0  0  0  0  0  0  0
   -0.4465   -5.8608    3.1982 C   0  0  0  0  0  0  0  0  0  0  0  0
   -0.0219   -6.8213    2.8645 H   0  0  0  0  0  0  0  0  0  0  0  0
   -0.7314   -6.0185    4.2509 H   0  0  0  0  0  0  0  0  0  0  0  0
   -1.3983   -5.7596    2.6527 H   0  0  0  0  0  0  0  0  0  0  0  0
    0.4252   -4.0886    1.8040 N   0  0  0  0  0  0  0  0  0  0  0  0
    1.2532   -2.9707    1.4349 C   0  0  2  0  0  0  0  0  0  0  0  0
    0.3395   -1.8293    1.0083 C   0  0  0  0  0  0  0  0  0  0  0  0
   -0.8136   -2.0027    0.6194 O   0  0  0  0  0  0  0  0  0  0  0  0
    2.2176   -3.3411    0.3189 C   0  0  0  0  0  0  0  0  0  0  0  0
   -0.2574   -4.4279    1.1287 H   0  0  0  0  0  0  0  0  0  0  0  0
    1.8087   -2.6785    2.3327 H   0  0  0  0  0  0  0  0  0  0  0  0
    1.6793   -3.6366   -0.5890 H   0  0  0  0  0  0  0  0  0  0  0  0
    2.8662   -2.4980    0.0589 H   0  0  0  0  0  0  0  0  0  0  0  0
    2.8538   -4.1816    0.6166 H   0  0  0  0  0  0  0  0  0  0  0  0
    0.9758   -0.5952    1.0708 N   0  0  0  0  0  0  0  0  0  0  0  0
    0.3258    0.6374    0.7059 C   0  0  2  0  0  0  0  0  0  0  0  0
   -0.7057    0.3111   -0.3690 C   0  0  0  0  0  0  0  0  0  0  0  0
   -1.7589   -0.2763   -0.1304 O   0  0  0  0  0  0  0  0  0  0  0  0
    1.3230    1.6813    0.1893 C   0  0  0  0  0  0  0  0  0  0  0  0
    2.2905    2.1819    1.2611 C   0  0  0  0  0  0  0  0  0  0  0  0
    3.3308    3.2107    0.8058 C   0  0  0  0  0  0  0  0  0  0  0  0
    3.3476    3.4162   -0.4420 O   0  5  0  0  0  0  0  0  0  0  0  0
    4.0306    3.7386    1.7135 O   0  0  0  0  0  0  0  0  0  0  0  0
    1.9288   -0.5463    1.4242 H   0  0  0  0  0  0  0  0  0  0  0  0
   -0.1978    0.9930    1.5999 H   0  0  0  0  0  0  0  0  0  0  0  0
    0.7842    2.5337   -0.2428 H   0  0  0  0  0  0  0  0  0  0  0  0
    1.9095    1.2477   -0.6318 H   0  0  0  0  0  0  0  0  0  0  0  0
    1.7297    2.5904    2.1102 H   0  0  0  0  0  0  0  0  0  0  0  0
    2.8557    1.3231    1.6451 H   0  0  0  0  0  0  0  0  0  0  0  0
   -0.2887    0.7118   -1.6308 N   0  0  0  0  0  0  0  0  0  0  0  0
   -1.0807    0.5026   -2.8206 C   0  0  2  0  0  0  0  0  0  0  0  0
   -0.1610    0.6362   -4.0272 C   0  0  0  0  0  0  0  0  0  0  0  0
    0.9021    1.2525   -3.9953 O   0  0  0  0  0  0  0  0  0  0  0  0
   -2.2307    1.4944   -2.9013 C   0  0  0  0  0  0  0  0  0  0  0  0
    0.5933    1.2054   -1.7312 H   0  0  0  0  0  0  0  0  0  0  0  0
   -1.4676   -0.5208   -2.7672 H   0  0  0  0  0  0  0  0  0  0  0  0
   -1.8626    2.5254   -2.9556 H   0  0  0  0  0  0  0  0  0  0  0  0
   -2.8468    1.3163   -3.7889 H   0  0  0  0  0  0  0  0  0  0  0  0
   -2.8744    1.4174   -2.0184 H   0  0  0  0  0  0  0  0  0  0  0  0
   -0.6877    0.0230   -5.1553 N   0  0  0  0  0  0  0  0  0  0  0  0
   -0.0096    0.0219   -6.4305 C   0  0  0  0  0  0  0  0  0  0  0  0
   -1.5666   -0.4814   -5.0855 H   0  0  0  0  0  0  0  0  0  0  0  0
   -0.3512    0.8795   -7.0288 H   0  0  0  0  0  0  0  0  0  0  0  0
    1.0758    0.0972   -6.2685 H   0  0  0  0  0  0  0  0  0  0  0  0
   -0.2366   -0.9120   -6.9656 H   0  0  0  0  0  0  0  0  0  0  0  0
  1  3  1  0  0  0  0
  1  7  1  0  0  0  0
  1  2  2  0  0  0  0
 33 34  1  0  0  0  0
 34 42  1  0  0  0  0
 34 35  2  0  0  0  0
  8  9  1  0  0  0  0
  9 17  1  0  0  0  0
  9 10  2  0  0  0  0
 18 19  1  0  0  0  0
 19 32  1  0  0  0  0
 19 20  2  0  0  0  0
 22 23  1  0  0  0  0
 23 24  1  0  0  0  0
 23 25  2  0  0  0  0
 33 36  1  0  0  0  0
  8 11  1  0  0  0  0
 42 43  1  0  0  0  0
 21 22  1  0  0  0  0
 18 21  1  0  0  0  0
 32 33  1  0  0  0  0
  7  8  1  0  0  0  0
 17 18  1  0  0  0  0
  3  4  1  0  0  0  0
  3  5  1  0  0  0  0
  3  6  1  0  0  0  0
 36 39  1  0  0  0  0
 36 40  1  0  0  0  0
 36 41  1  0  0  0  0
 11 14  1  0  0  0  0
 11 15  1  0  0  0  0
 11 16  1  0  0  0  0
 43 45  1  0  0  0  0
 43 46  1  0  0  0  0
 43 47  1  0  0  0  0
 22 30  1  0  0  0  0
 22 31  1  0  0  0  0
 21 28  1  0  0  0  0
 21 29  1  0  0  0  0
 33 38  1  0  0  0  0
  8 13  1  0  0  0  0
 18 27  1  0  0  0  0
 42 44  1  0  0  0  0
  7 12  1  0  0  0  0
 32 37  1  0  0  0  0
 17 26  1  0  0  0  0
M  CHG  1  24  -1
M  END
$$$$

  -OEChem-05262214473D

 47 46  0     1  0  0  0  0  0999 V2000
    0.5093   -4.7265    3.0306 C   0  0  0  0  0  0  0  0  0  0  0  0
    1.2735   -4.4402    3.9448 O   0  0  0  0  0  0  0  0  0  0  0  0
   -0.4465   -5.8608    3.1982 C   0  0  0  0  0  0  0  0  0  0  0  0
   -0.0219   -6.8213    2.8645 H   0  0  0  0  0  0  0  0  0  0  0  0
   -0.7314   -6.0185    4.2509 H   0  0  0  0  0  0  0  0  0  0  0  0
   -1.3983   -5.7596    2.6527 H   0  0  0  0  0  0  0  0  0  0  0  0
    0.4252   -4.0886    1.8040 N   0  0  0  0  0  0  0  0  0  0  0  0
    1.2532   -2.9707    1.4349 C   0  0  2  0  0  0  0  0  0  0  0  0
    0.3395   -1.8293    1.0083 C   0  0  0  0  0  0  0  0  0  0  0  0
   -0.8136   -2.0027    0.6194 O   0  0  0  0  0  0  0  0  0  0  0  0
    2.2176   -3.3411    0.3189 C   0  0  0  0  0  0  0  0  0  0  0  0
   -0.2574   -4.4279    1.1287 H   0  0  0  0  0  0  0  0  0  0  0  0
    1.8087   -2.6785    2.3327 H   0  0  0  0  0  0  0  0  0  0  0  0
    1.6793   -3.6366   -0.5890 H   0  0  0  0  0  0  0  0  0  0  0  0
    2.8662   -2.4980    0.0589 H   0  0  0  0  0  0  0  0  0  0  0  0
    2.8538   -4.1816    0.6166 H   0  0  0  0  0  0  0  0  0  0  0  0
    0.9758   -0.5952    1.0708 N   0  0  0  0  0  0  0  0  0  0  0  0
    0.3258    0.6374    0.7059 C   0  0  2  0  0  0  0  0  0  0  0  0
   -0.7057    0.3111   -0.3690 C   0  0  0  0  0  0  0  0  0  0  0  0
   -1.8588   -0.0273   -0.1101 O   0  0  0  0  0  0  0  0  0  0  0  0
    1.3230    1.6813    0.1893 C   0  0  0  0  0  0  0  0  0  0  0  0
    2.2905    2.1819    1.2611 C   0  0  0  0  0  0  0  0  0  0  0  0
    3.3308    3.2107    0.8058 C   0  0  0  0  0  0  0  0  0  0  0  0
    3.3476    3.4162   -0.4420 O   0  5  0  0  0  0  0  0  0  0  0  0
    4.0306    3.7386    1.7135 O   0  0  0  0  0  0  0  0  0  0  0  0
    1.9288   -0.5463    1.4242 H   0  0  0  0  0  0  0  0  0  0  0  0
   -0.1978    0.9930    1.5999 H   0  0  0  0  0  0  0  0  0  0  0  0
    0.7842    2.5337   -0.2428 H   0  0  0  0  0  0  0  0  0  0  0  0
    1.9095    1.2477   -0.6318 H   0  0  0  0  0  0  0  0  0  0  0  0
    1.7297    2.5904    2.1102 H   0  0  0  0  0  0  0  0  0  0  0  0
    2.8557    1.3231    1.6451 H   0  0  0  0  0  0  0  0  0  0  0  0
   -0.1720    0.3974   -1.6474 N   0  0  0  0  0  0  0  0  0  0  0  0
   -0.9420    0.1212   -2.8380 C   0  0  2  0  0  0  0  0  0  0  0  0
    0.0329   -0.1302   -3.9807 C   0  0  0  0  0  0  0  0  0  0  0  0
    1.1906    0.2831   -3.9780 O   0  0  0  0  0  0  0  0  0  0  0  0
   -1.8818    1.2703   -3.1682 C   0  0  0  0  0  0  0  0  0  0  0  0
    0.7901    0.7003   -1.7668 H   0  0  0  0  0  0  0  0  0  0  0  0
   -1.5156   -0.7907   -2.6392 H   0  0  0  0  0  0  0  0  0  0  0  0
   -1.3251    2.1927   -3.3703 H   0  0  0  0  0  0  0  0  0  0  0  0
   -2.4850    1.0474   -4.0544 H   0  0  0  0  0  0  0  0  0  0  0  0
   -2.5625    1.4692   -2.3334 H   0  0  0  0  0  0  0  0  0  0  0  0
   -0.5548   -0.8333   -5.0230 N   0  0  0  0  0  0  0  0  0  0  0  0
    0.1605   -1.1844   -6.2276 C   0  0  0  0  0  0  0  0  0  0  0  0
   -1.5147   -1.1527   -4.9317 H   0  0  0  0  0  0  0  0  0  0  0  0
    0.0093   -0.4019   -6.9858 H   0  0  0  0  0  0  0  0  0  0  0  0
    1.2336   -1.2751   -6.0035 H   0  0  0  0  0  0  0  0  0  0  0  0
   -0.2163   -2.1441   -6.6111 H   0  0  0  0  0  0  0  0  0  0  0  0
  1  3  1  0  0  0  0
  1  7  1  0  0  0  0
  1  2  2  0  0  0  0
 33 34  1  0  0  0  0
 34 42  1  0  0  0  0
 34 35  2  0  0  0  0
  8  9  1  0  0  0  0
  9 17  1  0  0  0  0
  9 10  2  0  0  0  0
 18 19  1  0  0  0  0
 19 32  1  0  0  0  0
 19 20  2  0  0  0  0
 22 23  1  0  0  0  0
 23 24  1  0  0  0  0
 23 25  2  0  0  0  0
 33 36  1  0  0  0  0
  8 11  1  0  0  0  0
 42 43  1  0  0  0  0
 21 22  1  0  0  0  0
 18 21  1  0  0  0  0
 32 33  1  0  0  0  0
  7  8  1  0  0  0  0
 17 18  1  0  0  0  0
  3  4  1  0  0  0  0
  3  5  1  0  0  0  0
  3  6  1  0  0  0  0
 36 39  1  0  0  0  0
 36 40  1  0  0  0  0
 36 41  1  0  0  0  0
 11 14  1  0  0  0  0
 11 15  1  0  0  0  0
 11 16  1  0  0  0  0
 43 45  1  0  0  0  0
 43 46  1  0  0  0  0
 43 47  1  0  0  0  0
 22 30  1  0  0  0  0
 22 31  1  0  0  0  0
 21 28  1  0  0  0  0
 21 29  1  0  0  0  0
 33 38  1  0  0  0  0
  8 13  1  0  0  0  0
 18 27  1  0  0  0  0
 42 44  1  0  0  0  0
  7 12  1  0  0  0  0
 32 37  1  0  0  0  0
 17 26  1  0  0  0  0
M  CHG  1  24  -1
M  END
$$$$

  -OEChem-05262214473D

 47 46  0     1  0  0  0  0  0999 V2000
    0.5093   -4.7265    3.0306 C   0  0  0  0  0  0  0  0  0  0  0  0
    1.2735   -4.4402    3.9448 O   0  0  0  0  0  0  0  0  0  0  0  0
   -0.4465   -5.8608    3.1982 C   0  0  0  0  0  0  0  0  0  0  0  0
   -0.0219   -6.8213    2.8645 H   0  0  0  0  0  0  0  0  0  0  0  0
   -0.7314   -6.0185    4.2509 H   0  0  0  0  0  0  0  0  0  0  0  0
   -1.3983   -5.7596    2.6527 H   0  0  0  0  0  0  0  0  0  0  0  0
    0.4252   -4.0886    1.8040 N   0  0  0  0  0  0  0  0  0  0  0  0
    1.2532   -2.9707    1.4349 C   0  0  2  0  0  0  0  0  0  0  0  0
    0.3395   -1.8293    1.0083 C   0  0  0  0  0  0  0  0  0  0  0  0
   -0.8136   -2.0027    0.6194 O   0  0  0  0  0  0  0  0  0  0  0  0
    2.2176   -3.3411    0.3189 C   0  0  0  0  0  0  0  0  0  0  0  0
   -0.2574   -4.4279    1.1287 H   0  0  0  0  0  0  0  0  0  0  0  0
    1.8087   -2.6785    2.3327 H   0  0  0  0  0  0  0  0  0  0  0  0
    1.6793   -3.6366   -0.5890 H   0  0  0  0  0  0  0  0  0  0  0  0
    2.8662   -2.4980    0.0589 H   0  0  0  0  0  0  0  0  0  0  0  0
    2.8538   -4.1816    0.6166 H   0  0  0  0  0  0  0  0  0  0  0  0
    0.9758   -0.5952    1.0708 N   0  0  0  0  0  0  0  0  0  0  0  0
    0.3258    0.6374    0.7059 C   0  0  2  0  0  0  0  0  0  0  0  0
   -0.7057    0.3111   -0.3690 C   0  0  0  0  0  0  0  0  0  0  0  0
   -1.9110    0.2351   -0.1396 O   0  0  0  0  0  0  0  0  0  0  0  0
    1.3230    1.6813    0.1893 C   0  0  0  0  0  0  0  0  0  0  0  0
    2.2905    2.1819    1.2611 C   0  0  0  0  0  0  0  0  0  0  0  0
    3.3308    3.2107    0.8058 C   0  0  0  0  0  0  0  0  0  0  0  0
    3.3476    3.4162   -0.4420 O   0  5  0  0  0  0  0  0  0  0  0  0
    4.0306    3.7386    1.7135 O   0  0  0  0  0  0  0  0  0  0  0  0
    1.9288   -0.5463    1.4242 H   0  0  0  0  0  0  0  0  0  0  0  0
   -0.1978    0.9930    1.5999 H   0  0  0  0  0  0  0  0  0  0  0  0
    0.7842    2.5337   -0.2428 H   0  0  0  0  0  0  0  0  0  0  0  0
    1.9095    1.2477   -0.6318 H   0  0  0  0  0  0  0  0  0  0  0  0
    1.7297    2.5904    2.1102 H   0  0  0  0  0  0  0  0  0  0  0  0
    2.8557    1.3231    1.6451 H   0  0  0  0  0  0  0  0  0  0  0  0
   -0.1157    0.0696   -1.6019 N   0  0  0  0  0  0  0  0  0  0  0  0
   -0.8766   -0.2755   -2.7803 C   0  0  2  0  0  0  0  0  0  0  0  0
    0.0779   -0.8977   -3.7909 C   0  0  0  0  0  0  0  0  0  0  0  0
    1.2915   -0.7029   -3.7755 O   0  0  0  0  0  0  0  0  0  0  0  0
   -1.5708    0.9436   -3.3674 C   0  0  0  0  0  0  0  0  0  0  0  0
    0.8901    0.1703   -1.7019 H   0  0  0  0  0  0  0  0  0  0  0  0
   -1.6182   -1.0201   -2.4711 H   0  0  0  0  0  0  0  0  0  0  0  0
   -0.8437    1.7007   -3.6829 H   0  0  0  0  0  0  0  0  0  0  0  0
   -2.1700    0.6753   -4.2437 H   0  0  0  0  0  0  0  0  0  0  0  0
   -2.2344    1.4072   -2.6295 H   0  0  0  0  0  0  0  0  0  0  0  0
   -0.5899   -1.6614   -4.7380 N   0  0  0  0  0  0  0  0  0  0  0  0
    0.0935   -2.3452   -5.8110 C   0  0  0  0  0  0  0  0  0  0  0  0
   -1.5955   -1.7836   -4.6627 H   0  0  0  0  0  0  0  0  0  0  0  0
    0.1214   -1.6978   -6.7000 H   0  0  0  0  0  0  0  0  0  0  0  0
    1.1210   -2.5830   -5.4985 H   0  0  0  0  0  0  0  0  0  0  0  0
   -0.4411   -3.2758   -6.0519 H   0  0  0  0  0  0  0  0  0  0  0  0
  1  3  1  0  0  0  0
  1  7  1  0  0  0  0
  1  2  2  0  0  0  0
 33 34  1  0  0  0  0
 34 42  1  0  0  0  0
 34 35  2  0  0  0  0
  8  9  1  0  0  0  0
  9 17  1  0  0  0  0
  9 10  2  0  0  0  0
 18 19  1  0  0  0  0
 19 32  1  0  0  0  0
 19 20  2  0  0  0  0
 22 23  1  0  0  0  0
 23 24  1  0  0  0  0
 23 25  2  0  0  0  0
 33 36  1  0  0  0  0
  8 11  1  0  0  0  0
 42 43  1  0  0  0  0
 21 22  1  0  0  0  0
 18 21  1  0  0  0  0
 32 33  1  0  0  0  0
  7  8  1  0  0  0  0
 17 18  1  0  0  0  0
  3  4  1  0  0  0  0
  3  5  1  0  0  0  0
  3  6  1  0  0  0  0
 36 39  1  0  0  0  0
 36 40  1  0  0  0  0
 36 41  1  0  0  0  0
 11 14  1  0  0  0  0
 11 15  1  0  0  0  0
 11 16  1  0  0  0  0
 43 45  1  0  0  0  0
 43 46  1  0  0  0  0
 43 47  1  0  0  0  0
 22 30  1  0  0  0  0
 22 31  1  0  0  0  0
 21 28  1  0  0  0  0
 21 29  1  0  0  0  0
 33 38  1  0  0  0  0
  8 13  1  0  0  0  0
 18 27  1  0  0  0  0
 42 44  1  0  0  0  0
  7 12  1  0  0  0  0
 32 37  1  0  0  0  0
 17 26  1  0  0  0  0
M  CHG  1  24  -1
M  END
$$$$

  -OEChem-05262214473D

 47 46  0     1  0  0  0  0  0999 V2000
    0.5093   -4.7265    3.0306 C   0  0  0  0  0  0  0  0  0  0  0  0
    1.2735   -4.4402    3.9448 O   0  0  0  0  0  0  0  0  0  0  0  0
   -0.4465   -5.8608    3.1982 C   0  0  0  0  0  0  0  0  0  0  0  0
   -0.0219   -6.8213    2.8645 H   0  0  0  0  0  0  0  0  0  0  0  0
   -0.7314   -6.0185    4.2509 H   0  0  0  0  0  0  0  0  0  0  0  0
   -1.3983   -5.7596    2.6527 H   0  0  0  0  0  0  0  0  0  0  0  0
    0.4252   -4.0886    1.8040 N   0  0  0  0  0  0  0  0  0  0  0  0
    1.2532   -2.9707    1.4349 C   0  0  2  0  0  0  0  0  0  0  0  0
    0.3395   -1.8293    1.0083 C   0  0  0  0  0  0  0  0  0  0  0  0
   -0.8136   -2.0027    0.6194 O   0  0  0  0  0  0  0  0  0  0  0  0
    2.2176   -3.3411    0.3189 C   0  0  0  0  0  0  0  0  0  0  0  0
   -0.2574   -4.4279    1.1287 H   0  0  0  0  0  0  0  0  0  0  0  0
    1.8087   -2.6785    2.3327 H   0  0  0  0  0  0  0  0  0  0  0  0
    1.6793   -3.6366   -0.5890 H   0  0  0  0  0  0  0  0  0  0  0  0
    2.8662   -2.4980    0.0589 H   0  0  0  0  0  0  0  0  0  0  0  0
    2.8538   -4.1816    0.6166 H   0  0  0  0  0  0  0  0  0  0  0  0
    0.9758   -0.5952    1.0708 N   0  0  0  0  0  0  0  0  0  0  0  0
    0.3258    0.6374    0.7059 C   0  0  2  0  0  0  0  0  0  0  0  0
   -0.7057    0.3111   -0.3690 C   0  0  0  0  0  0  0  0  0  0  0  0
   -1.9119    0.4928   -0.2169 O   0  0  0  0  0  0  0  0  0  0  0  0
    1.3230    1.6813    0.1893 C   0  0  0  0  0  0  0  0  0  0  0  0
    2.2905    2.1819    1.2611 C   0  0  0  0  0  0  0  0  0  0  0  0
    3.3308    3.2107    0.8058 C   0  0  0  0  0  0  0  0  0  0  0  0
    3.3476    3.4162   -0.4420 O   0  5  0  0  0  0  0  0  0  0  0  0
    4.0306    3.7386    1.7135 O   0  0  0  0  0  0  0  0  0  0  0  0
    1.9288   -0.5463    1.4242 H   0  0  0  0  0  0  0  0  0  0  0  0
   -0.1978    0.9930    1.5999 H   0  0  0  0  0  0  0  0  0  0  0  0
    0.7842    2.5337   -0.2428 H   0  0  0  0  0  0  0  0  0  0  0  0
    1.9095    1.2477   -0.6318 H   0  0  0  0  0  0  0  0  0  0  0  0
    1.7297    2.5904    2.1102 H   0  0  0  0  0  0  0  0  0  0  0  0
    2.8557    1.3231    1.6451 H   0  0  0  0  0  0  0  0  0  0  0  0
   -0.1236   -0.2495   -1.4975 N   0  0  0  0  0  0  0  0  0  0  0  0
   -0.8890   -0.6606   -2.6516 C   0  0  2  0  0  0  0  0  0  0  0  0
   -0.0292   -1.6141   -3.4708 C   0  0  0  0  0  0  0  0  0  0  0  0
    1.1979   -1.6382   -3.4018 O   0  0  0  0  0  0  0  0  0  0  0  0
   -1.3190    0.5363   -3.4854 C   0  0  0  0  0  0  0  0  0  0  0  0
    0.8863   -0.3485   -1.5408 H   0  0  0  0  0  0  0  0  0  0  0  0
   -1.7685   -1.1936   -2.2742 H   0  0  0  0  0  0  0  0  0  0  0  0
   -0.4511    1.0829   -3.8721 H   0  0  0  0  0  0  0  0  0  0  0  0
   -1.9231    0.2252   -4.3440 H   0  0  0  0  0  0  0  0  0  0  0  0
   -1.9123    1.2356   -2.8864 H   0  0  0  0  0  0  0  0  0  0  0  0
   -0.7907   -2.4050   -4.3196 N   0  0  0  0  0  0  0  0  0  0  0  0
   -0.2060   -3.3812   -5.2092 C   0  0  0  0  0  0  0  0  0  0  0  0
   -1.8035   -2.3312   -4.2969 H   0  0  0  0  0  0  0  0  0  0  0  0
   -0.0226   -2.9201   -6.1909 H   0  0  0  0  0  0  0  0  0  0  0  0
    0.7457   -3.7373   -4.7880 H   0  0  0  0  0  0  0  0  0  0  0  0
   -0.8957   -4.2301   -5.3261 H   0  0  0  0  0  0  0  0  0  0  0  0
  1  3  1  0  0  0  0
  1  7  1  0  0  0  0
  1  2  2  0  0  0  0
 33 34  1  0  0  0  0
 34 42  1  0  0  0  0
 34 35  2  0  0  0  0
  8  9  1  0  0  0  0
  9 17  1  0  0  0  0
  9 10  2  0  0  0  0
 18 19  1  0  0  0  0
 19 32  1  0  0  0  0
 19 20  2  0  0  0  0
 22 23  1  0  0  0  0
 23 24  1  0  0  0  0
 23 25  2  0  0  0  0
 33 36  1  0  0  0  0
  8 11  1  0  0  0  0
 42 43  1  0  0  0  0
 21 22  1  0  0  0  0
 18 21  1  0  0  0  0
 32 33  1  0  0  0  0
  7  8  1  0  0  0  0
 17 18  1  0  0  0  0
  3  4  1  0  0  0  0
  3  5  1  0  0  0  0
  3  6  1  0  0  0  0
 36 39  1  0  0  0  0
 36 40  1  0  0  0  0
 36 41  1  0  0  0  0
 11 14  1  0  0  0  0
 11 15  1  0  0  0  0
 11 16  1  0  0  0  0
 43 45  1  0  0  0  0
 43 46  1  0  0  0  0
 43 47  1  0  0  0  0
 22 30  1  0  0  0  0
 22 31  1  0  0  0  0
 21 28  1  0  0  0  0
 21 29  1  0  0  0  0
 33 38  1  0  0  0  0
  8 13  1  0  0  0  0
 18 27  1  0  0  0  0
 42 44  1  0  0  0  0
  7 12  1  0  0  0  0
 32 37  1  0  0  0  0
 17 26  1  0  0  0  0
M  CHG  1  24  -1
M  END
$$$$

  -OEChem-05262214473D

 47 46  0     1  0  0  0  0  0999 V2000
    0.5093   -4.7265    3.0306 C   0  0  0  0  0  0  0  0  0  0  0  0
    1.2735   -4.4402    3.9448 O   0  0  0  0  0  0  0  0  0  0  0  0
   -0.4465   -5.8608    3.1982 C   0  0  0  0  0  0  0  0  0  0  0  0
   -0.0219   -6.8213    2.8645 H   0  0  0  0  0  0  0  0  0  0  0  0
   -0.7314   -6.0185    4.2509 H   0  0  0  0  0  0  0  0  0  0  0  0
   -1.3983   -5.7596    2.6527 H   0  0  0  0  0  0  0  0  0  0  0  0
    0.4252   -4.0886    1.8040 N   0  0  0  0  0  0  0  0  0  0  0  0
    1.2532   -2.9707    1.4349 C   0  0  2  0  0  0  0  0  0  0  0  0
    0.3395   -1.8293    1.0083 C   0  0  0  0  0  0  0  0  0  0  0  0
   -0.8136   -2.0027    0.6194 O   0  0  0  0  0  0  0  0  0  0  0  0
    2.2176   -3.3411    0.3189 C   0  0  0  0  0  0  0  0  0  0  0  0
   -0.2574   -4.4279    1.1287 H   0  0  0  0  0  0  0  0  0  0  0  0
    1.8087   -2.6785    2.3327 H   0  0  0  0  0  0  0  0  0  0  0  0
    1.6793   -3.6366   -0.5890 H   0  0  0  0  0  0  0  0  0  0  0  0
    2.8662   -2.4980    0.0589 H   0  0  0  0  0  0  0  0  0  0  0  0
    2.8538   -4.1816    0.6166 H   0  0  0  0  0  0  0  0  0  0  0  0
    0.9758   -0.5952    1.0708 N   0  0  0  0  0  0  0  0  0  0  0  0
    0.3258    0.6374    0.7059 C   0  0  2  0  0  0  0  0  0  0  0  0
   -0.7057    0.3111   -0.3690 C   0  0  0  0  0  0  0  0  0  0  0  0
   -1.8615    0.7284   -0.3368 O   0  0  0  0  0  0  0  0  0  0  0  0
    1.3230    1.6813    0.1893 C   0  0  0  0  0  0  0  0  0  0  0  0
    2.2905    2.1819    1.2611 C   0  0  0  0  0  0  0  0  0  0  0  0
    3.3308    3.2107    0.8058 C   0  0  0  0  0  0  0  0  0  0  0  0
    3.3476    3.4162   -0.4420 O   0  5  0  0  0  0  0  0  0  0  0  0
    4.0306    3.7386    1.7135 O   0  0  0  0  0  0  0  0  0  0  0  0
    1.9288   -0.5463    1.4242 H   0  0  0  0  0  0  0  0  0  0  0  0
   -0.1978    0.9930    1.5999 H   0  0  0  0  0  0  0  0  0  0  0  0
    0.7842    2.5337   -0.2428 H   0  0  0  0  0  0  0  0  0  0  0  0
    1.9095    1.2477   -0.6318 H   0  0  0  0  0  0  0  0  0  0  0  0
    1.7297    2.5904    2.1102 H   0  0  0  0  0  0  0  0  0  0  0  0
    2.8557    1.3231    1.6451 H   0  0  0  0  0  0  0  0  0  0  0  0
   -0.1953   -0.5379   -1.3412 N   0  0  0  0  0  0  0  0  0  0  0  0
   -0.9783   -1.0077   -2.4604 C   0  0  2  0  0  0  0  0  0  0  0  0
   -0.2810   -2.2304   -3.0420 C   0  0  0  0  0  0  0  0  0  0  0  0
    0.9162   -2.4591   -2.8823 O   0  0  0  0  0  0  0  0  0  0  0  0
   -1.1435    0.0763   -3.5141 C   0  0  0  0  0  0  0  0  0  0  0  0
    0.7792   -0.8208   -1.2947 H   0  0  0  0  0  0  0  0  0  0  0  0
   -1.9562   -1.2993   -2.0620 H   0  0  0  0  0  0  0  0  0  0  0  0
   -0.1742    0.3814   -3.9249 H   0  0  0  0  0  0  0  0  0  0  0  0
   -1.7612   -0.2721   -4.3485 H   0  0  0  0  0  0  0  0  0  0  0  0
   -1.6183    0.9661   -3.0867 H   0  0  0  0  0  0  0  0  0  0  0  0
   -1.1434   -3.0135   -3.7965 N   0  0  0  0  0  0  0  0  0  0  0  0
   -0.7177   -4.2220   -4.4631 C   0  0  0  0  0  0  0  0  0  0  0  0
   -2.1246   -2.7581   -3.8592 H   0  0  0  0  0  0  0  0  0  0  0  0
   -0.4129   -3.9852   -5.4931 H   0  0  0  0  0  0  0  0  0  0  0  0
    0.1332   -4.6595   -3.9204 H   0  0  0  0  0  0  0  0  0  0  0  0
   -1.5491   -4.9419   -4.4831 H   0  0  0  0  0  0  0  0  0  0  0  0
  1  3  1  0  0  0  0
  1  7  1  0  0  0  0
  1  2  2  0  0  0  0
 33 34  1  0  0  0  0
 34 42  1  0  0  0  0
 34 35  2  0  0  0  0
  8  9  1  0  0  0  0
  9 17  1  0  0  0  0
  9 10  2  0  0  0  0
 18 19  1  0  0  0  0
 19 32  1  0  0  0  0
 19 20  2  0  0  0  0
 22 23  1  0  0  0  0
 23 24  1  0  0  0  0
 23 25  2  0  0  0  0
 33 36  1  0  0  0  0
  8 11  1  0  0  0  0
 42 43  1  0  0  0  0
 21 22  1  0  0  0  0
 18 21  1  0  0  0  0
 32 33  1  0  0  0  0
  7  8  1  0  0  0  0
 17 18  1  0  0  0  0
  3  4  1  0  0  0  0
  3  5  1  0  0  0  0
  3  6  1  0  0  0  0
 36 39  1  0  0  0  0
 36 40  1  0  0  0  0
 36 41  1  0  0  0  0
 11 14  1  0  0  0  0
 11 15  1  0  0  0  0
 11 16  1  0  0  0  0
 43 45  1  0  0  0  0
 43 46  1  0  0  0  0
 43 47  1  0  0  0  0
 22 30  1  0  0  0  0
 22 31  1  0  0  0  0
 21 28  1  0  0  0  0
 21 29  1  0  0  0  0
 33 38  1  0  0  0  0
  8 13  1  0  0  0  0
 18 27  1  0  0  0  0
 42 44  1  0  0  0  0
  7 12  1  0  0  0  0
 32 37  1  0  0  0  0
 17 26  1  0  0  0  0
M  CHG  1  24  -1
M  END
$$$$

  -OEChem-05262214473D

 47 46  0     1  0  0  0  0  0999 V2000
    0.5093   -4.7265    3.0306 C   0  0  0  0  0  0  0  0  0  0  0  0
    1.2735   -4.4402    3.9448 O   0  0  0  0  0  0  0  0  0  0  0  0
   -0.4465   -5.8608    3.1982 C   0  0  0  0  0  0  0  0  0  0  0  0
   -0.0219   -6.8213    2.8645 H   0  0  0  0  0  0  0  0  0  0  0  0
   -0.7314   -6.0185    4.2509 H   0  0  0  0  0  0  0  0  0  0  0  0
   -1.3983   -5.7596    2.6527 H   0  0  0  0  0  0  0  0  0  0  0  0
    0.4252   -4.0886    1.8040 N   0  0  0  0  0  0  0  0  0  0  0  0
    1.2532   -2.9707    1.4349 C   0  0  2  0  0  0  0  0  0  0  0  0
    0.3395   -1.8293    1.0083 C   0  0  0  0  0  0  0  0  0  0  0  0
   -0.8136   -2.0027    0.6194 O   0  0  0  0  0  0  0  0  0  0  0  0
    2.2176   -3.3411    0.3189 C   0  0  0  0  0  0  0  0  0  0  0  0
   -0.2574   -4.4279    1.1287 H   0  0  0  0  0  0  0  0  0  0  0  0
    1.8087   -2.6785    2.3327 H   0  0  0  0  0  0  0  0  0  0  0  0
    1.6793   -3.6366   -0.5890 H   0  0  0  0  0  0  0  0  0  0  0  0
    2.8662   -2.4980    0.0589 H   0  0  0  0  0  0  0  0  0  0  0  0
    2.8538   -4.1816    0.6166 H   0  0  0  0  0  0  0  0  0  0  0  0
    0.9758   -0.5952    1.0708 N   0  0  0  0  0  0  0  0  0  0  0  0
    0.3258    0.6374    0.7059 C   0  0  2  0  0  0  0  0  0  0  0  0
   -0.7057    0.3111   -0.3690 C   0  0  0  0  0  0  0  0  0  0  0  0
   -1.7633    0.9258   -0.4910 O   0  0  0  0  0  0  0  0  0  0  0  0
    1.3230    1.6813    0.1893 C   0  0  0  0  0  0  0  0  0  0  0  0
    2.2905    2.1819    1.2611 C   0  0  0  0  0  0  0  0  0  0  0  0
    3.3308    3.2107    0.8058 C   0  0  0  0  0  0  0  0  0  0  0  0
    3.3476    3.4162   -0.4420 O   0  5  0  0  0  0  0  0  0  0  0  0
    4.0306    3.7386    1.7135 O   0  0  0  0  0  0  0  0  0  0  0  0
    1.9288   -0.5463    1.4242 H   0  0  0  0  0  0  0  0  0  0  0  0
   -0.1978    0.9930    1.5999 H   0  0  0  0  0  0  0  0  0  0  0  0
    0.7842    2.5337   -0.2428 H   0  0  0  0  0  0  0  0  0  0  0  0
    1.9095    1.2477   -0.6318 H   0  0  0  0  0  0  0  0  0  0  0  0
    1.7297    2.5904    2.1102 H   0  0  0  0  0  0  0  0  0  0  0  0
    2.8557    1.3231    1.6451 H   0  0  0  0  0  0  0  0  0  0  0  0
   -0.3257   -0.7760   -1.1437 N   0  0  0  0  0  0  0  0  0  0  0  0
   -1.1386   -1.2933   -2.2200 C   0  0  2  0  0  0  0  0  0  0  0  0
   -0.6605   -2.7048   -2.5340 C   0  0  0  0  0  0  0  0  0  0  0  0
    0.4655   -3.1098   -2.2524 O   0  0  0  0  0  0  0  0  0  0  0  0
   -1.0564   -0.4050   -3.4517 C   0  0  0  0  0  0  0  0  0  0  0  0
    0.5759   -1.2143   -0.9801 H   0  0  0  0  0  0  0  0  0  0  0  0
   -2.1686   -1.3301   -1.8489 H   0  0  0  0  0  0  0  0  0  0  0  0
   -0.0317   -0.3559   -3.8379 H   0  0  0  0  0  0  0  0  0  0  0  0
   -1.6952   -0.7829   -4.2567 H   0  0  0  0  0  0  0  0  0  0  0  0
   -1.3723    0.6171   -3.2168 H   0  0  0  0  0  0  0  0  0  0  0  0
   -1.6241   -3.4453   -3.2042 N   0  0  0  0  0  0  0  0  0  0  0  0
   -1.4066   -4.8101   -3.6235 C   0  0  0  0  0  0  0  0  0  0  0  0
   -2.5368   -3.0353   -3.3795 H   0  0  0  0  0  0  0  0  0  0  0  0
   -1.0228   -4.8208   -4.6543 H   0  0  0  0  0  0  0  0  0  0  0  0
   -0.6746   -5.2867   -2.9549 H   0  0  0  0  0  0  0  0  0  0  0  0
   -2.3568   -5.3627   -3.5805 H   0  0  0  0  0  0  0  0  0  0  0  0
  1  3  1  0  0  0  0
  1  7  1  0  0  0  0
  1  2  2  0  0  0  0
 33 34  1  0  0  0  0
 34 42  1  0  0  0  0
 34 35  2  0  0  0  0
  8  9  1  0  0  0  0
  9 17  1  0  0  0  0
  9 10  2  0  0  0  0
 18 19  1  0  0  0  0
 19 32  1  0  0  0  0
 19 20  2  0  0  0  0
 22 23  1  0  0  0  0
 23 24  1  0  0  0  0
 23 25  2  0  0  0  0
 33 36  1  0  0  0  0
  8 11  1  0  0  0  0
 42 43  1  0  0  0  0
 21 22  1  0  0  0  0
 18 21  1  0  0  0  0
 32 33  1  0  0  0  0
  7  8  1  0  0  0  0
 17 18  1  0  0  0  0
  3  4  1  0  0  0  0
  3  5  1  0  0  0  0
  3  6  1  0  0  0  0
 36 39  1  0  0  0  0
 36 40  1  0  0  0  0
 36 41  1  0  0  0  0
 11 14  1  0  0  0  0
 11 15  1  0  0  0  0
 11 16  1  0  0  0  0
 43 45  1  0  0  0  0
 43 46  1  0  0  0  0
 43 47  1  0  0  0  0
 22 30  1  0  0  0  0
 22 31  1  0  0  0  0
 21 28  1  0  0  0  0
 21 29  1  0  0  0  0
 33 38  1  0  0  0  0
  8 13  1  0  0  0  0
 18 27  1  0  0  0  0
 42 44  1  0  0  0  0
  7 12  1  0  0  0  0
 32 37  1  0  0  0  0
 17 26  1  0  0  0  0
M  CHG  1  24  -1
M  END
$$$$

  -OEChem-05262214473D

 47 46  0     1  0  0  0  0  0999 V2000
    0.5093   -4.7265    3.0306 C   0  0  0  0  0  0  0  0  0  0  0  0
    1.2735   -4.4402    3.9448 O   0  0  0  0  0  0  0  0  0  0  0  0
   -0.4465   -5.8608    3.1982 C   0  0  0  0  0  0  0  0  0  0  0  0
   -0.0219   -6.8213    2.8645 H   0  0  0  0  0  0  0  0  0  0  0  0
   -0.7314   -6.0185    4.2509 H   0  0  0  0  0  0  0  0  0  0  0  0
   -1.3983   -5.7596    2.6527 H   0  0  0  0  0  0  0  0  0  0  0  0
    0.4252   -4.0886    1.8040 N   0  0  0  0  0  0  0  0  0  0  0  0
    1.2532   -2.9707    1.4349 C   0  0  2  0  0  0  0  0  0  0  0  0
    0.3395   -1.8293    1.0083 C   0  0  0  0  0  0  0  0  0  0  0  0
   -0.8136   -2.0027    0.6194 O   0  0  0  0  0  0  0  0  0  0  0  0
    2.2176   -3.3411    0.3189 C   0  0  0  0  0  0  0  0  0  0  0  0
   -0.2574   -4.4279    1.1287 H   0  0  0  0  0  0  0  0  0  0  0  0
    1.8087   -2.6785    2.3327 H   0  0  0  0  0  0  0  0  0  0  0  0
    1.6793   -3.6366   -0.5890 H   0  0  0  0  0  0  0  0  0  0  0  0
    2.8662   -2.4980    0.0589 H   0  0  0  0  0  0  0  0  0  0  0  0
    2.8538   -4.1816    0.6166 H   0  0  0  0  0  0  0  0  0  0  0  0
    0.9758   -0.5952    1.0708 N   0  0  0  0  0  0  0  0  0  0  0  0
    0.3258    0.6374    0.7059 C   0  0  2  0  0  0  0  0  0  0  0  0
   -0.7057    0.3111   -0.3690 C   0  0  0  0  0  0  0  0  0  0  0  0
   -1.6238    1.0716   -0.6691 O   0  0  0  0  0  0  0  0  0  0  0  0
    1.3230    1.6813    0.1893 C   0  0  0  0  0  0  0  0  0  0  0  0
    2.2905    2.1819    1.2611 C   0  0  0  0  0  0  0  0  0  0  0  0
    3.3308    3.2107    0.8058 C   0  0  0  0  0  0  0  0  0  0  0  0
    3.3476    3.4162   -0.4420 O   0  5  0  0  0  0  0  0  0  0  0  0
    4.0306    3.7386    1.7135 O   0  0  0  0  0  0  0  0  0  0  0  0
    1.9288   -0.5463    1.4242 H   0  0  0  0  0  0  0  0  0  0  0  0
   -0.1978    0.9930    1.5999 H   0  0  0  0  0  0  0  0  0  0  0  0
    0.7842    2.5337   -0.2428 H   0  0  0  0  0  0  0  0  0  0  0  0
    1.9095    1.2477   -0.6318 H   0  0  0  0  0  0  0  0  0  0  0  0
    1.7297    2.5904    2.1102 H   0  0  0  0  0  0  0  0  0  0  0  0
    2.8557    1.3231    1.6451 H   0  0  0  0  0  0  0  0  0  0  0  0
   -0.5061   -0.9477   -0.9185 N   0  0  0  0  0  0  0  0  0  0  0  0
   -1.3588   -1.4978   -1.9467 C   0  0  2  0  0  0  0  0  0  0  0  0
   -1.1416   -3.0048   -1.9812 C   0  0  0  0  0  0  0  0  0  0  0  0
   -0.1234   -3.5458   -1.5550 O   0  0  0  0  0  0  0  0  0  0  0  0
   -1.0634   -0.8749   -3.3022 C   0  0  0  0  0  0  0  0  0  0  0  0
    0.2903   -1.5023   -0.6187 H   0  0  0  0  0  0  0  0  0  0  0  0
   -2.3911   -1.2837   -1.6495 H   0  0  0  0  0  0  0  0  0  0  0  0
   -0.0334   -1.0789   -3.6168 H   0  0  0  0  0  0  0  0  0  0  0  0
   -1.7298   -1.2721   -4.0751 H   0  0  0  0  0  0  0  0  0  0  0  0
   -1.1913    0.2124   -3.2677 H   0  0  0  0  0  0  0  0  0  0  0  0
   -2.2000   -3.6709   -2.5831 N   0  0  0  0  0  0  0  0  0  0  0  0
   -2.2258   -5.1056   -2.7478 C   0  0  0  0  0  0  0  0  0  0  0  0
   -3.0122   -3.1439   -2.8904 H   0  0  0  0  0  0  0  0  0  0  0  0
   -1.8107   -5.3698   -3.7316 H   0  0  0  0  0  0  0  0  0  0  0  0
   -1.6228   -5.5762   -1.9572 H   0  0  0  0  0  0  0  0  0  0  0  0
   -3.2636   -5.4638   -2.6796 H   0  0  0  0  0  0  0  0  0  0  0  0
  1  3  1  0  0  0  0
  1  7  1  0  0  0  0
  1  2  2  0  0  0  0
 33 34  1  0  0  0  0
 34 42  1  0  0  0  0
 34 35  2  0  0  0  0
  8  9  1  0  0  0  0
  9 17  1  0  0  0  0
  9 10  2  0  0  0  0
 18 19  1  0  0  0  0
 19 32  1  0  0  0  0
 19 20  2  0  0  0  0
 22 23  1  0  0  0  0
 23 24  1  0  0  0  0
 23 25  2  0  0  0  0
 33 36  1  0  0  0  0
  8 11  1  0  0  0  0
 42 43  1  0  0  0  0
 21 22  1  0  0  0  0
 18 21  1  0  0  0  0
 32 33  1  0  0  0  0
  7  8  1  0  0  0  0
 17 18  1  0  0  0  0
  3  4  1  0  0  0  0
  3  5  1  0  0  0  0
  3  6  1  0  0  0  0
 36 39  1  0  0  0  0
 36 40  1  0  0  0  0
 36 41  1  0  0  0  0
 11 14  1  0  0  0  0
 11 15  1  0  0  0  0
 11 16  1  0  0  0  0
 43 45  1  0  0  0  0
 43 46  1  0  0  0  0
 43 47  1  0  0  0  0
 22 30  1  0  0  0  0
 22 31  1  0  0  0  0
 21 28  1  0  0  0  0
 21 29  1  0  0  0  0
 33 38  1  0  0  0  0
  8 13  1  0  0  0  0
 18 27  1  0  0  0  0
 42 44  1  0  0  0  0
  7 12  1  0  0  0  0
 32 37  1  0  0  0  0
 17 26  1  0  0  0  0
M  CHG  1  24  -1
M  END
$$$$

  -OEChem-05262214473D

 47 46  0     1  0  0  0  0  0999 V2000
    0.5093   -4.7265    3.0306 C   0  0  0  0  0  0  0  0  0  0  0  0
    1.2735   -4.4402    3.9448 O   0  0  0  0  0  0  0  0  0  0  0  0
   -0.4465   -5.8608    3.1982 C   0  0  0  0  0  0  0  0  0  0  0  0
   -0.0219   -6.8213    2.8645 H   0  0  0  0  0  0  0  0  0  0  0  0
   -0.7314   -6.0185    4.2509 H   0  0  0  0  0  0  0  0  0  0  0  0
   -1.3983   -5.7596    2.6527 H   0  0  0  0  0  0  0  0  0  0  0  0
    0.4252   -4.0886    1.8040 N   0  0  0  0  0  0  0  0  0  0  0  0
    1.2532   -2.9707    1.4349 C   0  0  2  0  0  0  0  0  0  0  0  0
    0.3395   -1.8293    1.0083 C   0  0  0  0  0  0  0  0  0  0  0  0
   -0.8136   -2.0027    0.6194 O   0  0  0  0  0  0  0  0  0  0  0  0
    2.2176   -3.3411    0.3189 C   0  0  0  0  0  0  0  0  0  0  0  0
   -0.2574   -4.4279    1.1287 H   0  0  0  0  0  0  0  0  0  0  0  0
    1.8087   -2.6785    2.3327 H   0  0  0  0  0  0  0  0  0  0  0  0
    1.6793   -3.6366   -0.5890 H   0  0  0  0  0  0  0  0  0  0  0  0
    2.8662   -2.4980    0.0589 H   0  0  0  0  0  0  0  0  0  0  0  0
    2.8538   -4.1816    0.6166 H   0  0  0  0  0  0  0  0  0  0  0  0
    0.9758   -0.5952    1.0708 N   0  0  0  0  0  0  0  0  0  0  0  0
    0.3258    0.6374    0.7059 C   0  0  2  0  0  0  0  0  0  0  0  0
   -0.7057    0.3111   -0.3690 C   0  0  0  0  0  0  0  0  0  0  0  0
   -1.4526    1.1557   -0.8589 O   0  0  0  0  0  0  0  0  0  0  0  0
    1.3230    1.6813    0.1893 C   0  0  0  0  0  0  0  0  0  0  0  0
    2.2905    2.1819    1.2611 C   0  0  0  0  0  0  0  0  0  0  0  0
    3.3308    3.2107    0.8058 C   0  0  0  0  0  0  0  0  0  0  0  0
    3.3476    3.4162   -0.4420 O   0  5  0  0  0  0  0  0  0  0  0  0
    4.0306    3.7386    1.7135 O   0  0  0  0  0  0  0  0  0  0  0  0
    1.9288   -0.5463    1.4242 H   0  0  0  0  0  0  0  0  0  0  0  0
   -0.1978    0.9930    1.5999 H   0  0  0  0  0  0  0  0  0  0  0  0
    0.7842    2.5337   -0.2428 H   0  0  0  0  0  0  0  0  0  0  0  0
    1.9095    1.2477   -0.6318 H   0  0  0  0  0  0  0  0  0  0  0  0
    1.7297    2.5904    2.1102 H   0  0  0  0  0  0  0  0  0  0  0  0
    2.8557    1.3231    1.6451 H   0  0  0  0  0  0  0  0  0  0  0  0
   -0.7242   -1.0412   -0.6809 N   0  0  0  0  0  0  0  0  0  0  0  0
   -1.6239   -1.6073   -1.6591 C   0  0  2  0  0  0  0  0  0  0  0  0
   -1.6918   -3.1101   -1.4214 C   0  0  0  0  0  0  0  0  0  0  0  0
   -0.8104   -3.7374   -0.8376 O   0  0  0  0  0  0  0  0  0  0  0  0
   -1.1643   -1.3014   -3.0761 C   0  0  0  0  0  0  0  0  0  0  0  0
   -0.0581   -1.6651   -0.2350 H   0  0  0  0  0  0  0  0  0  0  0  0
   -2.6087   -1.1634   -1.4772 H   0  0  0  0  0  0  0  0  0  0  0  0
   -0.1792   -1.7382   -3.2768 H   0  0  0  0  0  0  0  0  0  0  0  0
   -1.8625   -1.7066   -3.8159 H   0  0  0  0  0  0  0  0  0  0  0  0
   -1.0874   -0.2205   -3.2360 H   0  0  0  0  0  0  0  0  0  0  0  0
   -2.8318   -3.6752   -1.9756 N   0  0  0  0  0  0  0  0  0  0  0  0
   -3.1195   -5.0883   -1.8955 C   0  0  0  0  0  0  0  0  0  0  0  0
   -3.5182   -3.0765   -2.4253 H   0  0  0  0  0  0  0  0  0  0  0  0
   -2.7231   -5.5948   -2.7879 H   0  0  0  0  0  0  0  0  0  0  0  0
   -2.6468   -5.5081   -0.9954 H   0  0  0  0  0  0  0  0  0  0  0  0
   -4.2079   -5.2383   -1.8420 H   0  0  0  0  0  0  0  0  0  0  0  0
  1  3  1  0  0  0  0
  1  7  1  0  0  0  0
  1  2  2  0  0  0  0
 33 34  1  0  0  0  0
 34 42  1  0  0  0  0
 34 35  2  0  0  0  0
  8  9  1  0  0  0  0
  9 17  1  0  0  0  0
  9 10  2  0  0  0  0
 18 19  1  0  0  0  0
 19 32  1  0  0  0  0
 19 20  2  0  0  0  0
 22 23  1  0  0  0  0
 23 24  1  0  0  0  0
 23 25  2  0  0  0  0
 33 36  1  0  0  0  0
  8 11  1  0  0  0  0
 42 43  1  0  0  0  0
 21 22  1  0  0  0  0
 18 21  1  0  0  0  0
 32 33  1  0  0  0  0
  7  8  1  0  0  0  0
 17 18  1  0  0  0  0
  3  4  1  0  0  0  0
  3  5  1  0  0  0  0
  3  6  1  0  0  0  0
 36 39  1  0  0  0  0
 36 40  1  0  0  0  0
 36 41  1  0  0  0  0
 11 14  1  0  0  0  0
 11 15  1  0  0  0  0
 11 16  1  0  0  0  0
 43 45  1  0  0  0  0
 43 46  1  0  0  0  0
 43 47  1  0  0  0  0
 22 30  1  0  0  0  0
 22 31  1  0  0  0  0
 21 28  1  0  0  0  0
 21 29  1  0  0  0  0
 33 38  1  0  0  0  0
  8 13  1  0  0  0  0
 18 27  1  0  0  0  0
 42 44  1  0  0  0  0
  7 12  1  0  0  0  0
 32 37  1  0  0  0  0
 17 26  1  0  0  0  0
M  CHG  1  24  -1
M  END
$$$$

  -OEChem-05262214473D

 47 46  0     1  0  0  0  0  0999 V2000
    0.5093   -4.7265    3.0306 C   0  0  0  0  0  0  0  0  0  0  0  0
    1.2735   -4.4402    3.9448 O   0  0  0  0  0  0  0  0  0  0  0  0
   -0.4465   -5.8608    3.1982 C   0  0  0  0  0  0  0  0  0  0  0  0
   -0.0219   -6.8213    2.8645 H   0  0  0  0  0  0  0  0  0  0  0  0
   -0.7314   -6.0185    4.2509 H   0  0  0  0  0  0  0  0  0  0  0  0
   -1.3983   -5.7596    2.6527 H   0  0  0  0  0  0  0  0  0  0  0  0
    0.4252   -4.0886    1.8040 N   0  0  0  0  0  0  0  0  0  0  0  0
    1.2532   -2.9707    1.4349 C   0  0  2  0  0  0  0  0  0  0  0  0
    0.3395   -1.8293    1.0083 C   0  0  0  0  0  0  0  0  0  0  0  0
   -0.8136   -2.0027    0.6194 O   0  0  0  0  0  0  0  0  0  0  0  0
    2.2176   -3.3411    0.3189 C   0  0  0  0  0  0  0  0  0  0  0  0
   -0.2574   -4.4279    1.1287 H   0  0  0  0  0  0  0  0  0  0  0  0
    1.8087   -2.6785    2.3327 H   0  0  0  0  0  0  0  0  0  0  0  0
    1.6793   -3.6366   -0.5890 H   0  0  0  0  0  0  0  0  0  0  0  0
    2.8662   -2.4980    0.0589 H   0  0  0  0  0  0  0  0  0  0  0  0
    2.8538   -4.1816    0.6166 H   0  0  0  0  0  0  0  0  0  0  0  0
    0.9758   -0.5952    1.0708 N   0  0  0  0  0  0  0  0  0  0  0  0
    0.3258    0.6374    0.7059 C   0  0  2  0  0  0  0  0  0  0  0  0
   -0.7057    0.3111   -0.3690 C   0  0  0  0  0  0  0  0  0  0  0  0
   -1.2613    1.1726   -1.0475 O   0  0  0  0  0  0  0  0  0  0  0  0
    1.3230    1.6813    0.1893 C   0  0  0  0  0  0  0  0  0  0  0  0
    2.2905    2.1819    1.2611 C   0  0  0  0  0  0  0  0  0  0  0  0
    3.3308    3.2107    0.8058 C   0  0  0  0  0  0  0  0  0  0  0  0
    3.3476    3.4162   -0.4420 O   0  5  0  0  0  0  0  0  0  0  0  0
    4.0306    3.7386    1.7135 O   0  0  0  0  0  0  0  0  0  0  0  0
    1.9288   -0.5463    1.4242 H   0  0  0  0  0  0  0  0  0  0  0  0
   -0.1978    0.9930    1.5999 H   0  0  0  0  0  0  0  0  0  0  0  0
    0.7842    2.5337   -0.2428 H   0  0  0  0  0  0  0  0  0  0  0  0
    1.9095    1.2477   -0.6318 H   0  0  0  0  0  0  0  0  0  0  0  0
    1.7297    2.5904    2.1102 H   0  0  0  0  0  0  0  0  0  0  0  0
    2.8557    1.3231    1.6451 H   0  0  0  0  0  0  0  0  0  0  0  0
   -0.9650   -1.0502   -0.4471 N   0  0  0  0  0  0  0  0  0  0  0  0
   -1.9159   -1.6144   -1.3767 C   0  0  2  0  0  0  0  0  0  0  0  0
   -2.2734   -3.0135   -0.8927 C   0  0  0  0  0  0  0  0  0  0  0  0
   -1.5487   -3.6716   -0.1492 O   0  0  0  0  0  0  0  0  0  0  0  0
   -1.3520   -1.6553   -2.7885 C   0  0  0  0  0  0  0  0  0  0  0  0
   -0.4456   -1.6916    0.1448 H   0  0  0  0  0  0  0  0  0  0  0  0
   -2.8064   -0.9773   -1.3440 H   0  0  0  0  0  0  0  0  0  0  0  0
   -0.4591   -2.2889   -2.8410 H   0  0  0  0  0  0  0  0  0  0  0  0
   -2.0843   -2.0568   -3.4968 H   0  0  0  0  0  0  0  0  0  0  0  0
   -1.0677   -0.6520   -3.1239 H   0  0  0  0  0  0  0  0  0  0  0  0
   -3.4765   -3.4576   -1.4230 N   0  0  0  0  0  0  0  0  0  0  0  0
   -4.0268   -4.7593   -1.1248 C   0  0  0  0  0  0  0  0  0  0  0  0
   -4.0205   -2.8376   -2.0159 H   0  0  0  0  0  0  0  0  0  0  0  0
   -3.6977   -5.4805   -1.8874 H   0  0  0  0  0  0  0  0  0  0  0  0
   -3.6767   -5.0872   -0.1349 H   0  0  0  0  0  0  0  0  0  0  0  0
   -5.1252   -4.7016   -1.1247 H   0  0  0  0  0  0  0  0  0  0  0  0
  1  3  1  0  0  0  0
  1  7  1  0  0  0  0
  1  2  2  0  0  0  0
 33 34  1  0  0  0  0
 34 42  1  0  0  0  0
 34 35  2  0  0  0  0
  8  9  1  0  0  0  0
  9 17  1  0  0  0  0
  9 10  2  0  0  0  0
 18 19  1  0  0  0  0
 19 32  1  0  0  0  0
 19 20  2  0  0  0  0
 22 23  1  0  0  0  0
 23 24  1  0  0  0  0
 23 25  2  0  0  0  0
 33 36  1  0  0  0  0
  8 11  1  0  0  0  0
 42 43  1  0  0  0  0
 21 22  1  0  0  0  0
 18 21  1  0  0  0  0
 32 33  1  0  0  0  0
  7  8  1  0  0  0  0
 17 18  1  0  0  0  0
  3  4  1  0  0  0  0
  3  5  1  0  0  0  0
  3  6  1  0  0  0  0
 36 39  1  0  0  0  0
 36 40  1  0  0  0  0
 36 41  1  0  0  0  0
 11 14  1  0  0  0  0
 11 15  1  0  0  0  0
 11 16  1  0  0  0  0
 43 45  1  0  0  0  0
 43 46  1  0  0  0  0
 43 47  1  0  0  0  0
 22 30  1  0  0  0  0
 22 31  1  0  0  0  0
 21 28  1  0  0  0  0
 21 29  1  0  0  0  0
 33 38  1  0  0  0  0
  8 13  1  0  0  0  0
 18 27  1  0  0  0  0
 42 44  1  0  0  0  0
  7 12  1  0  0  0  0
 32 37  1  0  0  0  0
 17 26  1  0  0  0  0
M  CHG  1  24  -1
M  END
$$$$

  -OEChem-05262214473D

 47 46  0     1  0  0  0  0  0999 V2000
    0.5093   -4.7265    3.0306 C   0  0  0  0  0  0  0  0  0  0  0  0
    1.2735   -4.4402    3.9448 O   0  0  0  0  0  0  0  0  0  0  0  0
   -0.4465   -5.8608    3.1982 C   0  0  0  0  0  0  0  0  0  0  0  0
   -0.0219   -6.8213    2.8645 H   0  0  0  0  0  0  0  0  0  0  0  0
   -0.7314   -6.0185    4.2509 H   0  0  0  0  0  0  0  0  0  0  0  0
   -1.3983   -5.7596    2.6527 H   0  0  0  0  0  0  0  0  0  0  0  0
    0.4252   -4.0886    1.8040 N   0  0  0  0  0  0  0  0  0  0  0  0
    1.2532   -2.9707    1.4349 C   0  0  2  0  0  0  0  0  0  0  0  0
    0.3395   -1.8293    1.0083 C   0  0  0  0  0  0  0  0  0  0  0  0
   -0.8136   -2.0027    0.6194 O   0  0  0  0  0  0  0  0  0  0  0  0
    2.2176   -3.3411    0.3189 C   0  0  0  0  0  0  0  0  0  0  0  0
   -0.2574   -4.4279    1.1287 H   0  0  0  0  0  0  0  0  0  0  0  0
    1.8087   -2.6785    2.3327 H   0  0  0  0  0  0  0  0  0  0  0  0
    1.6793   -3.6366   -0.5890 H   0  0  0  0  0  0  0  0  0  0  0  0
    2.8662   -2.4980    0.0589 H   0  0  0  0  0  0  0  0  0  0  0  0
    2.8538   -4.1816    0.6166 H   0  0  0  0  0  0  0  0  0  0  0  0
    0.9758   -0.5952    1.0708 N   0  0  0  0  0  0  0  0  0  0  0  0
    0.3258    0.6374    0.7059 C   0  0  2  0  0  0  0  0  0  0  0  0
   -0.7057    0.3111   -0.3690 C   0  0  0  0  0  0  0  0  0  0  0  0
   -1.0631    1.1209   -1.2221 O   0  0  0  0  0  0  0  0  0  0  0  0
    1.3230    1.6813    0.1893 C   0  0  0  0  0  0  0  0  0  0  0  0
    2.2905    2.1819    1.2611 C   0  0  0  0  0  0  0  0  0  0  0  0
    3.3308    3.2107    0.8058 C   0  0  0  0  0  0  0  0  0  0  0  0
    3.3476    3.4162   -0.4420 O   0  5  0  0  0  0  0  0  0  0  0  0
    4.0306    3.7386    1.7135 O   0  0  0  0  0  0  0  0  0  0  0  0
    1.9288   -0.5463    1.4242 H   0  0  0  0  0  0  0  0  0  0  0  0
   -0.1978    0.9930    1.5999 H   0  0  0  0  0  0  0  0  0  0  0  0
    0.7842    2.5337   -0.2428 H   0  0  0  0  0  0  0  0  0  0  0  0
    1.9095    1.2477   -0.6318 H   0  0  0  0  0  0  0  0  0  0  0  0
    1.7297    2.5904    2.1102 H   0  0  0  0  0  0  0  0  0  0  0  0
    2.8557    1.3231    1.6451 H   0  0  0  0  0  0  0  0  0  0  0  0
   -1.2122   -0.9739   -0.2331 N   0  0  0  0  0  0  0  0  0  0  0  0
   -2.2148   -1.5186   -1.1190 C   0  0  2  0  0  0  0  0  0  0  0  0
   -2.8468   -2.7214   -0.4311 C   0  0  0  0  0  0  0  0  0  0  0  0
   -2.2879   -3.3529    0.4633 O   0  0  0  0  0  0  0  0  0  0  0  0
   -1.6138   -1.9126   -2.4592 C   0  0  0  0  0  0  0  0  0  0  0  0
   -0.8457   -1.5801    0.4949 H   0  0  0  0  0  0  0  0  0  0  0  0
   -2.9708   -0.7382   -1.2588 H   0  0  0  0  0  0  0  0  0  0  0  0
   -0.8541   -2.6936   -2.3392 H   0  0  0  0  0  0  0  0  0  0  0  0
   -2.3801   -2.2986   -3.1395 H   0  0  0  0  0  0  0  0  0  0  0  0
   -1.1337   -1.0528   -2.9389 H   0  0  0  0  0  0  0  0  0  0  0  0
   -4.0902   -3.0332   -0.9630 N   0  0  0  0  0  0  0  0  0  0  0  0
   -4.8858   -4.1411   -0.4882 C   0  0  0  0  0  0  0  0  0  0  0  0
   -4.4847   -2.4436   -1.6900 H   0  0  0  0  0  0  0  0  0  0  0  0
   -4.6681   -5.0347   -1.0916 H   0  0  0  0  0  0  0  0  0  0  0  0
   -4.6423   -4.3422    0.5655 H   0  0  0  0  0  0  0  0  0  0  0  0
   -5.9532   -3.8903   -0.5765 H   0  0  0  0  0  0  0  0  0  0  0  0
  1  3  1  0  0  0  0
  1  7  1  0  0  0  0
  1  2  2  0  0  0  0
 33 34  1  0  0  0  0
 34 42  1  0  0  0  0
 34 35  2  0  0  0  0
  8  9  1  0  0  0  0
  9 17  1  0  0  0  0
  9 10  2  0  0  0  0
 18 19  1  0  0  0  0
 19 32  1  0  0  0  0
 19 20  2  0  0  0  0
 22 23  1  0  0  0  0
 23 24  1  0  0  0  0
 23 25  2  0  0  0  0
 33 36  1  0  0  0  0
  8 11  1  0  0  0  0
 42 43  1  0  0  0  0
 21 22  1  0  0  0  0
 18 21  1  0  0  0  0
 32 33  1  0  0  0  0
  7  8  1  0  0  0  0
 17 18  1  0  0  0  0
  3  4  1  0  0  0  0
  3  5  1  0  0  0  0
  3  6  1  0  0  0  0
 36 39  1  0  0  0  0
 36 40  1  0  0  0  0
 36 41  1  0  0  0  0
 11 14  1  0  0  0  0
 11 15  1  0  0  0  0
 11 16  1  0  0  0  0
 43 45  1  0  0  0  0
 43 46  1  0  0  0  0
 43 47  1  0  0  0  0
 22 30  1  0  0  0  0
 22 31  1  0  0  0  0
 21 28  1  0  0  0  0
 21 29  1  0  0  0  0
 33 38  1  0  0  0  0
  8 13  1  0  0  0  0
 18 27  1  0  0  0  0
 42 44  1  0  0  0  0
  7 12  1  0  0  0  0
 32 37  1  0  0  0  0
 17 26  1  0  0  0  0
M  CHG  1  24  -1
M  END
$$$$

  -OEChem-05262214473D

 47 46  0     1  0  0  0  0  0999 V2000
    0.5093   -4.7265    3.0306 C   0  0  0  0  0  0  0  0  0  0  0  0
    1.2735   -4.4402    3.9448 O   0  0  0  0  0  0  0  0  0  0  0  0
   -0.4465   -5.8608    3.1982 C   0  0  0  0  0  0  0  0  0  0  0  0
   -0.0219   -6.8213    2.8645 H   0  0  0  0  0  0  0  0  0  0  0  0
   -0.7314   -6.0185    4.2509 H   0  0  0  0  0  0  0  0  0  0  0  0
   -1.3983   -5.7596    2.6527 H   0  0  0  0  0  0  0  0  0  0  0  0
    0.4252   -4.0886    1.8040 N   0  0  0  0  0  0  0  0  0  0  0  0
    1.2532   -2.9707    1.4349 C   0  0  2  0  0  0  0  0  0  0  0  0
    0.3395   -1.8293    1.0083 C   0  0  0  0  0  0  0  0  0  0  0  0
   -0.8136   -2.0027    0.6194 O   0  0  0  0  0  0  0  0  0  0  0  0
    2.2176   -3.3411    0.3189 C   0  0  0  0  0  0  0  0  0  0  0  0
   -0.2574   -4.4279    1.1287 H   0  0  0  0  0  0  0  0  0  0  0  0
    1.8087   -2.6785    2.3327 H   0  0  0  0  0  0  0  0  0  0  0  0
    1.6793   -3.6366   -0.5890 H   0  0  0  0  0  0  0  0  0  0  0  0
    2.8662   -2.4980    0.0589 H   0  0  0  0  0  0  0  0  0  0  0  0
    2.8538   -4.1816    0.6166 H   0  0  0  0  0  0  0  0  0  0  0  0
    0.9758   -0.5952    1.0708 N   0  0  0  0  0  0  0  0  0  0  0  0
    0.3258    0.6374    0.7059 C   0  0  2  0  0  0  0  0  0  0  0  0
   -0.7057    0.3111   -0.3690 C   0  0  0  0  0  0  0  0  0  0  0  0
   -0.8714    1.0044   -1.3706 O   0  0  0  0  0  0  0  0  0  0  0  0
    1.3230    1.6813    0.1893 C   0  0  0  0  0  0  0  0  0  0  0  0
    2.2905    2.1819    1.2611 C   0  0  0  0  0  0  0  0  0  0  0  0
    3.3308    3.2107    0.8058 C   0  0  0  0  0  0  0  0  0  0  0  0
    3.3476    3.4162   -0.4420 O   0  5  0  0  0  0  0  0  0  0  0  0
    4.0306    3.7386    1.7135 O   0  0  0  0  0  0  0  0  0  0  0  0
    1.9288   -0.5463    1.4242 H   0  0  0  0  0  0  0  0  0  0  0  0
   -0.1978    0.9930    1.5999 H   0  0  0  0  0  0  0  0  0  0  0  0
    0.7842    2.5337   -0.2428 H   0  0  0  0  0  0  0  0  0  0  0  0
    1.9095    1.2477   -0.6318 H   0  0  0  0  0  0  0  0  0  0  0  0
    1.7297    2.5904    2.1102 H   0  0  0  0  0  0  0  0  0  0  0  0
    2.8557    1.3231    1.6451 H   0  0  0  0  0  0  0  0  0  0  0  0
   -1.4489   -0.8178   -0.0533 N   0  0  0  0  0  0  0  0  0  0  0  0
   -2.5004   -1.3263   -0.9033 C   0  0  2  0  0  0  0  0  0  0  0  0
   -3.3730   -2.2540   -0.0681 C   0  0  0  0  0  0  0  0  0  0  0  0
   -2.9777   -2.8029    0.9583 O   0  0  0  0  0  0  0  0  0  0  0  0
   -1.9319   -2.0557   -2.1106 C   0  0  0  0  0  0  0  0  0  0  0  0
   -1.2313   -1.3380    0.7914 H   0  0  0  0  0  0  0  0  0  0  0  0
   -3.0907   -0.4624   -1.2275 H   0  0  0  0  0  0  0  0  0  0  0  0
   -1.3372   -2.9245   -1.8056 H   0  0  0  0  0  0  0  0  0  0  0  0
   -2.7297   -2.4158   -2.7685 H   0  0  0  0  0  0  0  0  0  0  0  0
   -1.2808   -1.3956   -2.6938 H   0  0  0  0  0  0  0  0  0  0  0  0
   -4.6309   -2.4307   -0.6270 N   0  0  0  0  0  0  0  0  0  0  0  0
   -5.6380   -3.2759   -0.0290 C   0  0  0  0  0  0  0  0  0  0  0  0
   -4.8793   -1.9213   -1.4700 H   0  0  0  0  0  0  0  0  0  0  0  0
   -5.5682   -4.2878   -0.4547 H   0  0  0  0  0  0  0  0  0  0  0  0
   -5.4779   -3.3237    1.0582 H   0  0  0  0  0  0  0  0  0  0  0  0
   -6.6352   -2.8596   -0.2349 H   0  0  0  0  0  0  0  0  0  0  0  0
  1  3  1  0  0  0  0
  1  7  1  0  0  0  0
  1  2  2  0  0  0  0
 33 34  1  0  0  0  0
 34 42  1  0  0  0  0
 34 35  2  0  0  0  0
  8  9  1  0  0  0  0
  9 17  1  0  0  0  0
  9 10  2  0  0  0  0
 18 19  1  0  0  0  0
 19 32  1  0  0  0  0
 19 20  2  0  0  0  0
 22 23  1  0  0  0  0
 23 24  1  0  0  0  0
 23 25  2  0  0  0  0
 33 36  1  0  0  0  0
  8 11  1  0  0  0  0
 42 43  1  0  0  0  0
 21 22  1  0  0  0  0
 18 21  1  0  0  0  0
 32 33  1  0  0  0  0
  7  8  1  0  0  0  0
 17 18  1  0  0  0  0
  3  4  1  0  0  0  0
  3  5  1  0  0  0  0
  3  6  1  0  0  0  0
 36 39  1  0  0  0  0
 36 40  1  0  0  0  0
 36 41  1  0  0  0  0
 11 14  1  0  0  0  0
 11 15  1  0  0  0  0
 11 16  1  0  0  0  0
 43 45  1  0  0  0  0
 43 46  1  0  0  0  0
 43 47  1  0  0  0  0
 22 30  1  0  0  0  0
 22 31  1  0  0  0  0
 21 28  1  0  0  0  0
 21 29  1  0  0  0  0
 33 38  1  0  0  0  0
  8 13  1  0  0  0  0
 18 27  1  0  0  0  0
 42 44  1  0  0  0  0
  7 12  1  0  0  0  0
 32 37  1  0  0  0  0
 17 26  1  0  0  0  0
M  CHG  1  24  -1
M  END
$$$$

  -OEChem-05262214473D

 47 46  0     1  0  0  0  0  0999 V2000
    0.5093   -4.7265    3.0306 C   0  0  0  0  0  0  0  0  0  0  0  0
    1.2735   -4.4402    3.9448 O   0  0  0  0  0  0  0  0  0  0  0  0
   -0.4465   -5.8608    3.1982 C   0  0  0  0  0  0  0  0  0  0  0  0
   -0.0219   -6.8213    2.8645 H   0  0  0  0  0  0  0  0  0  0  0  0
   -0.7314   -6.0185    4.2509 H   0  0  0  0  0  0  0  0  0  0  0  0
   -1.3983   -5.7596    2.6527 H   0  0  0  0  0  0  0  0  0  0  0  0
    0.4252   -4.0886    1.8040 N   0  0  0  0  0  0  0  0  0  0  0  0
    1.2532   -2.9707    1.4349 C   0  0  2  0  0  0  0  0  0  0  0  0
    0.3395   -1.8293    1.0083 C   0  0  0  0  0  0  0  0  0  0  0  0
   -0.8136   -2.0027    0.6194 O   0  0  0  0  0  0  0  0  0  0  0  0
    2.2176   -3.3411    0.3189 C   0  0  0  0  0  0  0  0  0  0  0  0
   -0.2574   -4.4279    1.1287 H   0  0  0  0  0  0  0  0  0  0  0  0
    1.8087   -2.6785    2.3327 H   0  0  0  0  0  0  0  0  0  0  0  0
    1.6793   -3.6366   -0.5890 H   0  0  0  0  0  0  0  0  0  0  0  0
    2.8662   -2.4980    0.0589 H   0  0  0  0  0  0  0  0  0  0  0  0
    2.8538   -4.1816    0.6166 H   0  0  0  0  0  0  0  0  0  0  0  0
    0.9758   -0.5952    1.0708 N   0  0  0  0  0  0  0  0  0  0  0  0
    0.3258    0.6374    0.7059 C   0  0  2  0  0  0  0  0  0  0  0  0
   -0.7057    0.3111   -0.3690 C   0  0  0  0  0  0  0  0  0  0  0  0
   -0.6993    0.8308   -1.4831 O   0  0  0  0  0  0  0  0  0  0  0  0
    1.3230    1.6813    0.1893 C   0  0  0  0  0  0  0  0  0  0  0  0
    2.2905    2.1819    1.2611 C   0  0  0  0  0  0  0  0  0  0  0  0
    3.3308    3.2107    0.8058 C   0  0  0  0  0  0  0  0  0  0  0  0
    3.3476    3.4162   -0.4420 O   0  5  0  0  0  0  0  0  0  0  0  0
    4.0306    3.7386    1.7135 O   0  0  0  0  0  0  0  0  0  0  0  0
    1.9288   -0.5463    1.4242 H   0  0  0  0  0  0  0  0  0  0  0  0
   -0.1978    0.9930    1.5999 H   0  0  0  0  0  0  0  0  0  0  0  0
    0.7842    2.5337   -0.2428 H   0  0  0  0  0  0  0  0  0  0  0  0
    1.9095    1.2477   -0.6318 H   0  0  0  0  0  0  0  0  0  0  0  0
    1.7297    2.5904    2.1102 H   0  0  0  0  0  0  0  0  0  0  0  0
    2.8557    1.3231    1.6451 H   0  0  0  0  0  0  0  0  0  0  0  0
   -1.6590   -0.5922    0.0798 N   0  0  0  0  0  0  0  0  0  0  0  0
   -2.7531   -1.0508   -0.7445 C   0  0  2  0  0  0  0  0  0  0  0  0
   -3.8160   -1.6429    0.1716 C   0  0  0  0  0  0  0  0  0  0  0  0
   -3.5711   -2.0592    1.3019 O   0  0  0  0  0  0  0  0  0  0  0  0
   -2.2845   -2.0749   -1.7664 C   0  0  0  0  0  0  0  0  0  0  0  0
   -1.5760   -0.9820    1.0141 H   0  0  0  0  0  0  0  0  0  0  0  0
   -3.1580   -0.1685   -1.2521 H   0  0  0  0  0  0  0  0  0  0  0  0
   -1.8756   -2.9661   -1.2764 H   0  0  0  0  0  0  0  0  0  0  0  0
   -3.1093   -2.4002   -2.4090 H   0  0  0  0  0  0  0  0  0  0  0  0
   -1.4990   -1.6569   -2.4051 H   0  0  0  0  0  0  0  0  0  0  0  0
   -5.0620   -1.6913   -0.4378 N   0  0  0  0  0  0  0  0  0  0  0  0
   -6.2322   -2.2225    0.2214 C   0  0  0  0  0  0  0  0  0  0  0  0
   -5.1773   -1.3063   -1.3707 H   0  0  0  0  0  0  0  0  0  0  0  0
   -6.3366   -3.2906   -0.0201 H   0  0  0  0  0  0  0  0  0  0  0  0
   -6.1266   -2.1013    1.3096 H   0  0  0  0  0  0  0  0  0  0  0  0
   -7.1249   -1.6799   -0.1231 H   0  0  0  0  0  0  0  0  0  0  0  0
  1  3  1  0  0  0  0
  1  7  1  0  0  0  0
  1  2  2  0  0  0  0
 33 34  1  0  0  0  0
 34 42  1  0  0  0  0
 34 35  2  0  0  0  0
  8  9  1  0  0  0  0
  9 17  1  0  0  0  0
  9 10  2  0  0  0  0
 18 19  1  0  0  0  0
 19 32  1  0  0  0  0
 19 20  2  0  0  0  0
 22 23  1  0  0  0  0
 23 24  1  0  0  0  0
 23 25  2  0  0  0  0
 33 36  1  0  0  0  0
  8 11  1  0  0  0  0
 42 43  1  0  0  0  0
 21 22  1  0  0  0  0
 18 21  1  0  0  0  0
 32 33  1  0  0  0  0
  7  8  1  0  0  0  0
 17 18  1  0  0  0  0
  3  4  1  0  0  0  0
  3  5  1  0  0  0  0
  3  6  1  0  0  0  0
 36 39  1  0  0  0  0
 36 40  1  0  0  0  0
 36 41  1  0  0  0  0
 11 14  1  0  0  0  0
 11 15  1  0  0  0  0
 11 16  1  0  0  0  0
 43 45  1  0  0  0  0
 43 46  1  0  0  0  0
 43 47  1  0  0  0  0
 22 30  1  0  0  0  0
 22 31  1  0  0  0  0
 21 28  1  0  0  0  0
 21 29  1  0  0  0  0
 33 38  1  0  0  0  0
  8 13  1  0  0  0  0
 18 27  1  0  0  0  0
 42 44  1  0  0  0  0
  7 12  1  0  0  0  0
 32 37  1  0  0  0  0
 17 26  1  0  0  0  0
M  CHG  1  24  -1
M  END
$$$$

  -OEChem-05262214473D

 47 46  0     1  0  0  0  0  0999 V2000
    0.5093   -4.7265    3.0306 C   0  0  0  0  0  0  0  0  0  0  0  0
    1.2735   -4.4402    3.9448 O   0  0  0  0  0  0  0  0  0  0  0  0
   -0.4465   -5.8608    3.1982 C   0  0  0  0  0  0  0  0  0  0  0  0
   -0.0219   -6.8213    2.8645 H   0  0  0  0  0  0  0  0  0  0  0  0
   -0.7314   -6.0185    4.2509 H   0  0  0  0  0  0  0  0  0  0  0  0
   -1.3983   -5.7596    2.6527 H   0  0  0  0  0  0  0  0  0  0  0  0
    0.4252   -4.0886    1.8040 N   0  0  0  0  0  0  0  0  0  0  0  0
    1.2532   -2.9707    1.4349 C   0  0  2  0  0  0  0  0  0  0  0  0
    0.3395   -1.8293    1.0083 C   0  0  0  0  0  0  0  0  0  0  0  0
   -0.8136   -2.0027    0.6194 O   0  0  0  0  0  0  0  0  0  0  0  0
    2.2176   -3.3411    0.3189 C   0  0  0  0  0  0  0  0  0  0  0  0
   -0.2574   -4.4279    1.1287 H   0  0  0  0  0  0  0  0  0  0  0  0
    1.8087   -2.6785    2.3327 H   0  0  0  0  0  0  0  0  0  0  0  0
    1.6793   -3.6366   -0.5890 H   0  0  0  0  0  0  0  0  0  0  0  0
    2.8662   -2.4980    0.0589 H   0  0  0  0  0  0  0  0  0  0  0  0
    2.8538   -4.1816    0.6166 H   0  0  0  0  0  0  0  0  0  0  0  0
    0.9758   -0.5952    1.0708 N   0  0  0  0  0  0  0  0  0  0  0  0
    0.3258    0.6374    0.7059 C   0  0  2  0  0  0  0  0  0  0  0  0
   -0.7057    0.3111   -0.3690 C   0  0  0  0  0  0  0  0  0  0  0  0
   -0.5584    0.6120   -1.5518 O   0  0  0  0  0  0  0  0  0  0  0  0
    1.3230    1.6813    0.1893 C   0  0  0  0  0  0  0  0  0  0  0  0
    2.2905    2.1819    1.2611 C   0  0  0  0  0  0  0  0  0  0  0  0
    3.3308    3.2107    0.8058 C   0  0  0  0  0  0  0  0  0  0  0  0
    3.3476    3.4162   -0.4420 O   0  5  0  0  0  0  0  0  0  0  0  0
    4.0306    3.7386    1.7135 O   0  0  0  0  0  0  0  0  0  0  0  0
    1.9288   -0.5463    1.4242 H   0  0  0  0  0  0  0  0  0  0  0  0
   -0.1978    0.9930    1.5999 H   0  0  0  0  0  0  0  0  0  0  0  0
    0.7842    2.5337   -0.2428 H   0  0  0  0  0  0  0  0  0  0  0  0
    1.9095    1.2477   -0.6318 H   0  0  0  0  0  0  0  0  0  0  0  0
    1.7297    2.5904    2.1102 H   0  0  0  0  0  0  0  0  0  0  0  0
    2.8557    1.3231    1.6451 H   0  0  0  0  0  0  0  0  0  0  0  0
   -1.8282   -0.3128    0.1573 N   0  0  0  0  0  0  0  0  0  0  0  0
   -2.9557   -0.7107   -0.6533 C   0  0  2  0  0  0  0  0  0  0  0  0
   -4.1458   -0.9299    0.2716 C   0  0  0  0  0  0  0  0  0  0  0  0
   -4.0276   -1.1725    1.4708 O   0  0  0  0  0  0  0  0  0  0  0  0
   -2.6477   -1.9689   -1.4501 C   0  0  0  0  0  0  0  0  0  0  0  0
   -1.8563   -0.5363    1.1478 H   0  0  0  0  0  0  0  0  0  0  0  0
   -3.1679    0.1232   -1.3311 H   0  0  0  0  0  0  0  0  0  0  0  0
   -2.4325   -2.8153   -0.7878 H   0  0  0  0  0  0  0  0  0  0  0  0
   -3.4930   -2.2530   -2.0855 H   0  0  0  0  0  0  0  0  0  0  0  0
   -1.7734   -1.8189   -2.0926 H   0  0  0  0  0  0  0  0  0  0  0  0
   -5.3539   -0.8654   -0.4084 N   0  0  0  0  0  0  0  0  0  0  0  0
   -6.6278   -1.0528    0.2460 C   0  0  0  0  0  0  0  0  0  0  0  0
   -5.3585   -0.6404   -1.3989 H   0  0  0  0  0  0  0  0  0  0  0  0
   -6.9209   -2.1111    0.1827 H   0  0  0  0  0  0  0  0  0  0  0  0
   -6.5440   -0.7582    1.3025 H   0  0  0  0  0  0  0  0  0  0  0  0
   -7.3889   -0.4314   -0.2487 H   0  0  0  0  0  0  0  0  0  0  0  0
  1  3  1  0  0  0  0
  1  7  1  0  0  0  0
  1  2  2  0  0  0  0
 33 34  1  0  0  0  0
 34 42  1  0  0  0  0
 34 35  2  0  0  0  0
  8  9  1  0  0  0  0
  9 17  1  0  0  0  0
  9 10  2  0  0  0  0
 18 19  1  0  0  0  0
 19 32  1  0  0  0  0
 19 20  2  0  0  0  0
 22 23  1  0  0  0  0
 23 24  1  0  0  0  0
 23 25  2  0  0  0  0
 33 36  1  0  0  0  0
  8 11  1  0  0  0  0
 42 43  1  0  0  0  0
 21 22  1  0  0  0  0
 18 21  1  0  0  0  0
 32 33  1  0  0  0  0
  7  8  1  0  0  0  0
 17 18  1  0  0  0  0
  3  4  1  0  0  0  0
  3  5  1  0  0  0  0
  3  6  1  0  0  0  0
 36 39  1  0  0  0  0
 36 40  1  0  0  0  0
 36 41  1  0  0  0  0
 11 14  1  0  0  0  0
 11 15  1  0  0  0  0
 11 16  1  0  0  0  0
 43 45  1  0  0  0  0
 43 46  1  0  0  0  0
 43 47  1  0  0  0  0
 22 30  1  0  0  0  0
 22 31  1  0  0  0  0
 21 28  1  0  0  0  0
 21 29  1  0  0  0  0
 33 38  1  0  0  0  0
  8 13  1  0  0  0  0
 18 27  1  0  0  0  0
 42 44  1  0  0  0  0
  7 12  1  0  0  0  0
 32 37  1  0  0  0  0
 17 26  1  0  0  0  0
M  CHG  1  24  -1
M  END
$$$$

  -OEChem-05262214473D

 47 46  0     1  0  0  0  0  0999 V2000
    0.5093   -4.7265    3.0306 C   0  0  0  0  0  0  0  0  0  0  0  0
    1.2735   -4.4402    3.9448 O   0  0  0  0  0  0  0  0  0  0  0  0
   -0.4465   -5.8608    3.1982 C   0  0  0  0  0  0  0  0  0  0  0  0
   -0.0219   -6.8213    2.8645 H   0  0  0  0  0  0  0  0  0  0  0  0
   -0.7314   -6.0185    4.2509 H   0  0  0  0  0  0  0  0  0  0  0  0
   -1.3983   -5.7596    2.6527 H   0  0  0  0  0  0  0  0  0  0  0  0
    0.4252   -4.0886    1.8040 N   0  0  0  0  0  0  0  0  0  0  0  0
    1.2532   -2.9707    1.4349 C   0  0  2  0  0  0  0  0  0  0  0  0
    0.3395   -1.8293    1.0083 C   0  0  0  0  0  0  0  0  0  0  0  0
   -0.8136   -2.0027    0.6194 O   0  0  0  0  0  0  0  0  0  0  0  0
    2.2176   -3.3411    0.3189 C   0  0  0  0  0  0  0  0  0  0  0  0
   -0.2574   -4.4279    1.1287 H   0  0  0  0  0  0  0  0  0  0  0  0
    1.8087   -2.6785    2.3327 H   0  0  0  0  0  0  0  0  0  0  0  0
    1.6793   -3.6366   -0.5890 H   0  0  0  0  0  0  0  0  0  0  0  0
    2.8662   -2.4980    0.0589 H   0  0  0  0  0  0  0  0  0  0  0  0
    2.8538   -4.1816    0.6166 H   0  0  0  0  0  0  0  0  0  0  0  0
    0.9758   -0.5952    1.0708 N   0  0  0  0  0  0  0  0  0  0  0  0
    0.3258    0.6374    0.7059 C   0  0  2  0  0  0  0  0  0  0  0  0
   -0.7057    0.3111   -0.3690 C   0  0  0  0  0  0  0  0  0  0  0  0
   -0.4585    0.3629   -1.5721 O   0  0  0  0  0  0  0  0  0  0  0  0
    1.3230    1.6813    0.1893 C   0  0  0  0  0  0  0  0  0  0  0  0
    2.2905    2.1819    1.2611 C   0  0  0  0  0  0  0  0  0  0  0  0
    3.3308    3.2107    0.8058 C   0  0  0  0  0  0  0  0  0  0  0  0
    3.3476    3.4162   -0.4420 O   0  5  0  0  0  0  0  0  0  0  0  0
    4.0306    3.7386    1.7135 O   0  0  0  0  0  0  0  0  0  0  0  0
    1.9288   -0.5463    1.4242 H   0  0  0  0  0  0  0  0  0  0  0  0
   -0.1978    0.9930    1.5999 H   0  0  0  0  0  0  0  0  0  0  0  0
    0.7842    2.5337   -0.2428 H   0  0  0  0  0  0  0  0  0  0  0  0
    1.9095    1.2477   -0.6318 H   0  0  0  0  0  0  0  0  0  0  0  0
    1.7297    2.5904    2.1102 H   0  0  0  0  0  0  0  0  0  0  0  0
    2.8557    1.3231    1.6451 H   0  0  0  0  0  0  0  0  0  0  0  0
   -1.9449    0.0016    0.1739 N   0  0  0  0  0  0  0  0  0  0  0  0
   -3.0945   -0.3294   -0.6359 C   0  0  2  0  0  0  0  0  0  0  0  0
   -4.3397   -0.1635    0.2251 C   0  0  0  0  0  0  0  0  0  0  0  0
   -4.3161   -0.2031    1.4535 O   0  0  0  0  0  0  0  0  0  0  0  0
   -2.9967   -1.7448   -1.1833 C   0  0  0  0  0  0  0  0  0  0  0  0
   -2.0531   -0.0312    1.1833 H   0  0  0  0  0  0  0  0  0  0  0  0
   -3.1200    0.3930   -1.4590 H   0  0  0  0  0  0  0  0  0  0  0  0
   -2.9699   -2.4826   -0.3731 H   0  0  0  0  0  0  0  0  0  0  0  0
   -3.8547   -1.9841   -1.8200 H   0  0  0  0  0  0  0  0  0  0  0  0
   -2.0853   -1.8707   -1.7776 H   0  0  0  0  0  0  0  0  0  0  0  0
   -5.4869   -0.0091   -0.5407 N   0  0  0  0  0  0  0  0  0  0  0  0
   -6.7979    0.1536    0.0430 C   0  0  0  0  0  0  0  0  0  0  0  0
   -5.4104    0.0308   -1.5528 H   0  0  0  0  0  0  0  0  0  0  0  0
   -7.2814   -0.8297    0.1397 H   0  0  0  0  0  0  0  0  0  0  0  0
   -6.7018    0.6141    1.0374 H   0  0  0  0  0  0  0  0  0  0  0  0
   -7.4091    0.8007   -0.6032 H   0  0  0  0  0  0  0  0  0  0  0  0
  1  3  1  0  0  0  0
  1  7  1  0  0  0  0
  1  2  2  0  0  0  0
 33 34  1  0  0  0  0
 34 42  1  0  0  0  0
 34 35  2  0  0  0  0
  8  9  1  0  0  0  0
  9 17  1  0  0  0  0
  9 10  2  0  0  0  0
 18 19  1  0  0  0  0
 19 32  1  0  0  0  0
 19 20  2  0  0  0  0
 22 23  1  0  0  0  0
 23 24  1  0  0  0  0
 23 25  2  0  0  0  0
 33 36  1  0  0  0  0
  8 11  1  0  0  0  0
 42 43  1  0  0  0  0
 21 22  1  0  0  0  0
 18 21  1  0  0  0  0
 32 33  1  0  0  0  0
  7  8  1  0  0  0  0
 17 18  1  0  0  0  0
  3  4  1  0  0  0  0
  3  5  1  0  0  0  0
  3  6  1  0  0  0  0
 36 39  1  0  0  0  0
 36 40  1  0  0  0  0
 36 41  1  0  0  0  0
 11 14  1  0  0  0  0
 11 15  1  0  0  0  0
 11 16  1  0  0  0  0
 43 45  1  0  0  0  0
 43 46  1  0  0  0  0
 43 47  1  0  0  0  0
 22 30  1  0  0  0  0
 22 31  1  0  0  0  0
 21 28  1  0  0  0  0
 21 29  1  0  0  0  0
 33 38  1  0  0  0  0
  8 13  1  0  0  0  0
 18 27  1  0  0  0  0
 42 44  1  0  0  0  0
  7 12  1  0  0  0  0
 32 37  1  0  0  0  0
 17 26  1  0  0  0  0
M  CHG  1  24  -1
M  END
$$$$

  -OEChem-05262214473D

 47 46  0     1  0  0  0  0  0999 V2000
    0.5093   -4.7265    3.0306 C   0  0  0  0  0  0  0  0  0  0  0  0
    1.2735   -4.4402    3.9448 O   0  0  0  0  0  0  0  0  0  0  0  0
   -0.4465   -5.8608    3.1982 C   0  0  0  0  0  0  0  0  0  0  0  0
   -0.0219   -6.8213    2.8645 H   0  0  0  0  0  0  0  0  0  0  0  0
   -0.7314   -6.0185    4.2509 H   0  0  0  0  0  0  0  0  0  0  0  0
   -1.3983   -5.7596    2.6527 H   0  0  0  0  0  0  0  0  0  0  0  0
    0.4252   -4.0886    1.8040 N   0  0  0  0  0  0  0  0  0  0  0  0
    1.2532   -2.9707    1.4349 C   0  0  2  0  0  0  0  0  0  0  0  0
    0.3395   -1.8293    1.0083 C   0  0  0  0  0  0  0  0  0  0  0  0
   -0.8136   -2.0027    0.6194 O   0  0  0  0  0  0  0  0  0  0  0  0
    2.2176   -3.3411    0.3189 C   0  0  0  0  0  0  0  0  0  0  0  0
   -0.2574   -4.4279    1.1287 H   0  0  0  0  0  0  0  0  0  0  0  0
    1.8087   -2.6785    2.3327 H   0  0  0  0  0  0  0  0  0  0  0  0
    1.6793   -3.6366   -0.5890 H   0  0  0  0  0  0  0  0  0  0  0  0
    2.8662   -2.4980    0.0589 H   0  0  0  0  0  0  0  0  0  0  0  0
    2.8538   -4.1816    0.6166 H   0  0  0  0  0  0  0  0  0  0  0  0
    0.9758   -0.5952    1.0708 N   0  0  0  0  0  0  0  0  0  0  0  0
    0.3258    0.6374    0.7059 C   0  0  2  0  0  0  0  0  0  0  0  0
   -0.7057    0.3111   -0.3690 C   0  0  0  0  0  0  0  0  0  0  0  0
   -0.4063    0.1006   -1.5426 O   0  0  0  0  0  0  0  0  0  0  0  0
    1.3230    1.6813    0.1893 C   0  0  0  0  0  0  0  0  0  0  0  0
    2.2905    2.1819    1.2611 C   0  0  0  0  0  0  0  0  0  0  0  0
    3.3308    3.2107    0.8058 C   0  0  0  0  0  0  0  0  0  0  0  0
    3.3476    3.4162   -0.4420 O   0  5  0  0  0  0  0  0  0  0  0  0
    4.0306    3.7386    1.7135 O   0  0  0  0  0  0  0  0  0  0  0  0
    1.9288   -0.5463    1.4242 H   0  0  0  0  0  0  0  0  0  0  0  0
   -0.1978    0.9930    1.5999 H   0  0  0  0  0  0  0  0  0  0  0  0
    0.7842    2.5337   -0.2428 H   0  0  0  0  0  0  0  0  0  0  0  0
    1.9095    1.2477   -0.6318 H   0  0  0  0  0  0  0  0  0  0  0  0
    1.7297    2.5904    2.1102 H   0  0  0  0  0  0  0  0  0  0  0  0
    2.8557    1.3231    1.6451 H   0  0  0  0  0  0  0  0  0  0  0  0
   -2.0013    0.3295    0.1285 N   0  0  0  0  0  0  0  0  0  0  0  0
   -3.1598    0.0674   -0.6936 C   0  0  2  0  0  0  0  0  0  0  0  0
   -4.3847    0.6040    0.0353 C   0  0  0  0  0  0  0  0  0  0  0  0
   -4.4170    0.7829    1.2510 O   0  0  0  0  0  0  0  0  0  0  0  0
   -3.3076   -1.4180   -0.9840 C   0  0  0  0  0  0  0  0  0  0  0  0
   -2.1531    0.4988    1.1184 H   0  0  0  0  0  0  0  0  0  0  0  0
   -3.0173    0.6225   -1.6272 H   0  0  0  0  0  0  0  0  0  0  0  0
   -3.4513   -1.9906   -0.0605 H   0  0  0  0  0  0  0  0  0  0  0  0
   -4.1698   -1.6120   -1.6307 H   0  0  0  0  0  0  0  0  0  0  0  0
   -2.4134   -1.8087   -1.4816 H   0  0  0  0  0  0  0  0  0  0  0  0
   -5.4518    0.8190   -0.8257 N   0  0  0  0  0  0  0  0  0  0  0  0
   -6.7309    1.3143   -0.3735 C   0  0  0  0  0  0  0  0  0  0  0  0
   -5.3297    0.6617   -1.8218 H   0  0  0  0  0  0  0  0  0  0  0  0
   -7.3935    0.4662   -0.1461 H   0  0  0  0  0  0  0  0  0  0  0  0
   -6.5892    1.9219    0.5324 H   0  0  0  0  0  0  0  0  0  0  0  0
   -7.1843    1.9324   -1.1624 H   0  0  0  0  0  0  0  0  0  0  0  0
  1  3  1  0  0  0  0
  1  7  1  0  0  0  0
  1  2  2  0  0  0  0
 33 34  1  0  0  0  0
 34 42  1  0  0  0  0
 34 35  2  0  0  0  0
  8  9  1  0  0  0  0
  9 17  1  0  0  0  0
  9 10  2  0  0  0  0
 18 19  1  0  0  0  0
 19 32  1  0  0  0  0
 19 20  2  0  0  0  0
 22 23  1  0  0  0  0
 23 24  1  0  0  0  0
 23 25  2  0  0  0  0
 33 36  1  0  0  0  0
  8 11  1  0  0  0  0
 42 43  1  0  0  0  0
 21 22  1  0  0  0  0
 18 21  1  0  0  0  0
 32 33  1  0  0  0  0
  7  8  1  0  0  0  0
 17 18  1  0  0  0  0
  3  4  1  0  0  0  0
  3  5  1  0  0  0  0
  3  6  1  0  0  0  0
 36 39  1  0  0  0  0
 36 40  1  0  0  0  0
 36 41  1  0  0  0  0
 11 14  1  0  0  0  0
 11 15  1  0  0  0  0
 11 16  1  0  0  0  0
 43 45  1  0  0  0  0
 43 46  1  0  0  0  0
 43 47  1  0  0  0  0
 22 30  1  0  0  0  0
 22 31  1  0  0  0  0
 21 28  1  0  0  0  0
 21 29  1  0  0  0  0
 33 38  1  0  0  0  0
  8 13  1  0  0  0  0
 18 27  1  0  0  0  0
 42 44  1  0  0  0  0
  7 12  1  0  0  0  0
 32 37  1  0  0  0  0
 17 26  1  0  0  0  0
M  CHG  1  24  -1
M  END
$$$$

  -OEChem-05262214473D

 47 46  0     1  0  0  0  0  0999 V2000
    0.5093   -4.7265    3.0306 C   0  0  0  0  0  0  0  0  0  0  0  0
    1.2735   -4.4402    3.9448 O   0  0  0  0  0  0  0  0  0  0  0  0
   -0.4465   -5.8608    3.1982 C   0  0  0  0  0  0  0  0  0  0  0  0
   -0.0219   -6.8213    2.8645 H   0  0  0  0  0  0  0  0  0  0  0  0
   -0.7314   -6.0185    4.2509 H   0  0  0  0  0  0  0  0  0  0  0  0
   -1.3983   -5.7596    2.6527 H   0  0  0  0  0  0  0  0  0  0  0  0
    0.4252   -4.0886    1.8040 N   0  0  0  0  0  0  0  0  0  0  0  0
    1.2532   -2.9707    1.4349 C   0  0  2  0  0  0  0  0  0  0  0  0
    0.3395   -1.8293    1.0083 C   0  0  0  0  0  0  0  0  0  0  0  0
   -0.8136   -2.0027    0.6194 O   0  0  0  0  0  0  0  0  0  0  0  0
    2.2176   -3.3411    0.3189 C   0  0  0  0  0  0  0  0  0  0  0  0
   -0.2574   -4.4279    1.1287 H   0  0  0  0  0  0  0  0  0  0  0  0
    1.8087   -2.6785    2.3327 H   0  0  0  0  0  0  0  0  0  0  0  0
    1.6793   -3.6366   -0.5890 H   0  0  0  0  0  0  0  0  0  0  0  0
    2.8662   -2.4980    0.0589 H   0  0  0  0  0  0  0  0  0  0  0  0
    2.8538   -4.1816    0.6166 H   0  0  0  0  0  0  0  0  0  0  0  0
    0.9758   -0.5952    1.0708 N   0  0  0  0  0  0  0  0  0  0  0  0
    0.3258    0.6374    0.7059 C   0  0  2  0  0  0  0  0  0  0  0  0
   -0.7057    0.3111   -0.3690 C   0  0  0  0  0  0  0  0  0  0  0  0
   -0.4053   -0.1572   -1.4653 O   0  0  0  0  0  0  0  0  0  0  0  0
    1.3230    1.6813    0.1893 C   0  0  0  0  0  0  0  0  0  0  0  0
    2.2905    2.1819    1.2611 C   0  0  0  0  0  0  0  0  0  0  0  0
    3.3308    3.2107    0.8058 C   0  0  0  0  0  0  0  0  0  0  0  0
    3.3476    3.4162   -0.4420 O   0  5  0  0  0  0  0  0  0  0  0  0
    4.0306    3.7386    1.7135 O   0  0  0  0  0  0  0  0  0  0  0  0
    1.9288   -0.5463    1.4242 H   0  0  0  0  0  0  0  0  0  0  0  0
   -0.1978    0.9930    1.5999 H   0  0  0  0  0  0  0  0  0  0  0  0
    0.7842    2.5337   -0.2428 H   0  0  0  0  0  0  0  0  0  0  0  0
    1.9095    1.2477   -0.6318 H   0  0  0  0  0  0  0  0  0  0  0  0
    1.7297    2.5904    2.1102 H   0  0  0  0  0  0  0  0  0  0  0  0
    2.8557    1.3231    1.6451 H   0  0  0  0  0  0  0  0  0  0  0  0
   -1.9933    0.6485    0.0240 N   0  0  0  0  0  0  0  0  0  0  0  0
   -3.1474    0.4525   -0.8223 C   0  0  2  0  0  0  0  0  0  0  0  0
   -4.2776    1.3204   -0.2849 C   0  0  0  0  0  0  0  0  0  0  0  0
   -4.3234    1.7182    0.8773 O   0  0  0  0  0  0  0  0  0  0  0  0
   -3.5595   -1.0108   -0.8660 C   0  0  0  0  0  0  0  0  0  0  0  0
   -2.1493    1.0176    0.9573 H   0  0  0  0  0  0  0  0  0  0  0  0
   -2.8670    0.7960   -1.8240 H   0  0  0  0  0  0  0  0  0  0  0  0
   -3.8439   -1.3728    0.1287 H   0  0  0  0  0  0  0  0  0  0  0  0
   -4.4167   -1.1619   -1.5304 H   0  0  0  0  0  0  0  0  0  0  0  0
   -2.7355   -1.6371   -1.2246 H   0  0  0  0  0  0  0  0  0  0  0  0
   -5.2510    1.5626   -1.2441 N   0  0  0  0  0  0  0  0  0  0  0  0
   -6.4314    2.3504   -0.9754 C   0  0  0  0  0  0  0  0  0  0  0  0
   -5.1216    1.2093   -2.1876 H   0  0  0  0  0  0  0  0  0  0  0  0
   -7.2495    1.6884   -0.6552 H   0  0  0  0  0  0  0  0  0  0  0  0
   -6.2139    3.0763   -0.1781 H   0  0  0  0  0  0  0  0  0  0  0  0
   -6.7297    2.8867   -1.8883 H   0  0  0  0  0  0  0  0  0  0  0  0
  1  3  1  0  0  0  0
  1  7  1  0  0  0  0
  1  2  2  0  0  0  0
 33 34  1  0  0  0  0
 34 42  1  0  0  0  0
 34 35  2  0  0  0  0
  8  9  1  0  0  0  0
  9 17  1  0  0  0  0
  9 10  2  0  0  0  0
 18 19  1  0  0  0  0
 19 32  1  0  0  0  0
 19 20  2  0  0  0  0
 22 23  1  0  0  0  0
 23 24  1  0  0  0  0
 23 25  2  0  0  0  0
 33 36  1  0  0  0  0
  8 11  1  0  0  0  0
 42 43  1  0  0  0  0
 21 22  1  0  0  0  0
 18 21  1  0  0  0  0
 32 33  1  0  0  0  0
  7  8  1  0  0  0  0
 17 18  1  0  0  0  0
  3  4  1  0  0  0  0
  3  5  1  0  0  0  0
  3  6  1  0  0  0  0
 36 39  1  0  0  0  0
 36 40  1  0  0  0  0
 36 41  1  0  0  0  0
 11 14  1  0  0  0  0
 11 15  1  0  0  0  0
 11 16  1  0  0  0  0
 43 45  1  0  0  0  0
 43 46  1  0  0  0  0
 43 47  1  0  0  0  0
 22 30  1  0  0  0  0
 22 31  1  0  0  0  0
 21 28  1  0  0  0  0
 21 29  1  0  0  0  0
 33 38  1  0  0  0  0
  8 13  1  0  0  0  0
 18 27  1  0  0  0  0
 42 44  1  0  0  0  0
  7 12  1  0  0  0  0
 32 37  1  0  0  0  0
 17 26  1  0  0  0  0
M  CHG  1  24  -1
M  END
$$$$

  -OEChem-05262214473D

 47 46  0     1  0  0  0  0  0999 V2000
    0.5093   -4.7265    3.0306 C   0  0  0  0  0  0  0  0  0  0  0  0
    1.2735   -4.4402    3.9448 O   0  0  0  0  0  0  0  0  0  0  0  0
   -0.4465   -5.8608    3.1982 C   0  0  0  0  0  0  0  0  0  0  0  0
   -0.0219   -6.8213    2.8645 H   0  0  0  0  0  0  0  0  0  0  0  0
   -0.7314   -6.0185    4.2509 H   0  0  0  0  0  0  0  0  0  0  0  0
   -1.3983   -5.7596    2.6527 H   0  0  0  0  0  0  0  0  0  0  0  0
    0.4252   -4.0886    1.8040 N   0  0  0  0  0  0  0  0  0  0  0  0
    1.2532   -2.9707    1.4349 C   0  0  2  0  0  0  0  0  0  0  0  0
    0.3395   -1.8293    1.0083 C   0  0  0  0  0  0  0  0  0  0  0  0
   -0.8136   -2.0027    0.6194 O   0  0  0  0  0  0  0  0  0  0  0  0
    2.2176   -3.3411    0.3189 C   0  0  0  0  0  0  0  0  0  0  0  0
   -0.2574   -4.4279    1.1287 H   0  0  0  0  0  0  0  0  0  0  0  0
    1.8087   -2.6785    2.3327 H   0  0  0  0  0  0  0  0  0  0  0  0
    1.6793   -3.6366   -0.5890 H   0  0  0  0  0  0  0  0  0  0  0  0
    2.8662   -2.4980    0.0589 H   0  0  0  0  0  0  0  0  0  0  0  0
    2.8538   -4.1816    0.6166 H   0  0  0  0  0  0  0  0  0  0  0  0
    0.9758   -0.5952    1.0708 N   0  0  0  0  0  0  0  0  0  0  0  0
    0.3258    0.6374    0.7059 C   0  0  2  0  0  0  0  0  0  0  0  0
   -0.7057    0.3111   -0.3690 C   0  0  0  0  0  0  0  0  0  0  0  0
   -0.4557   -0.3928   -1.3454 O   0  0  0  0  0  0  0  0  0  0  0  0
    1.3230    1.6813    0.1893 C   0  0  0  0  0  0  0  0  0  0  0  0
    2.2905    2.1819    1.2611 C   0  0  0  0  0  0  0  0  0  0  0  0
    3.3308    3.2107    0.8058 C   0  0  0  0  0  0  0  0  0  0  0  0
    3.3476    3.4162   -0.4420 O   0  5  0  0  0  0  0  0  0  0  0  0
    4.0306    3.7386    1.7135 O   0  0  0  0  0  0  0  0  0  0  0  0
    1.9288   -0.5463    1.4242 H   0  0  0  0  0  0  0  0  0  0  0  0
   -0.1978    0.9930    1.5999 H   0  0  0  0  0  0  0  0  0  0  0  0
    0.7842    2.5337   -0.2428 H   0  0  0  0  0  0  0  0  0  0  0  0
    1.9095    1.2477   -0.6318 H   0  0  0  0  0  0  0  0  0  0  0  0
    1.7297    2.5904    2.1102 H   0  0  0  0  0  0  0  0  0  0  0  0
    2.8557    1.3231    1.6451 H   0  0  0  0  0  0  0  0  0  0  0  0
   -1.9217    0.9369   -0.1322 N   0  0  0  0  0  0  0  0  0  0  0  0
   -3.0581    0.7996   -1.0134 C   0  0  2  0  0  0  0  0  0  0  0  0
   -4.0258    1.9368   -0.7136 C   0  0  0  0  0  0  0  0  0  0  0  0
   -4.0416    2.5392    0.3578 O   0  0  0  0  0  0  0  0  0  0  0  0
   -3.7349   -0.5508   -0.8373 C   0  0  0  0  0  0  0  0  0  0  0  0
   -2.0422    1.4899    0.7112 H   0  0  0  0  0  0  0  0  0  0  0  0
   -2.6793    0.9017   -2.0363 H   0  0  0  0  0  0  0  0  0  0  0  0
   -4.1209   -0.6714    0.1815 H   0  0  0  0  0  0  0  0  0  0  0  0
   -4.5786   -0.6646   -1.5259 H   0  0  0  0  0  0  0  0  0  0  0  0
   -3.0295   -1.3676   -1.0243 H   0  0  0  0  0  0  0  0  0  0  0  0
   -4.8982    2.1711   -1.7672 N   0  0  0  0  0  0  0  0  0  0  0  0
   -5.9197    3.1911   -1.7215 C   0  0  0  0  0  0  0  0  0  0  0  0
   -4.8006    1.6363   -2.6252 H   0  0  0  0  0  0  0  0  0  0  0  0
   -6.8593    2.7536   -1.3530 H   0  0  0  0  0  0  0  0  0  0  0  0
   -5.6014    3.9985   -1.0457 H   0  0  0  0  0  0  0  0  0  0  0  0
   -6.0764    3.5985   -2.7312 H   0  0  0  0  0  0  0  0  0  0  0  0
  1  3  1  0  0  0  0
  1  7  1  0  0  0  0
  1  2  2  0  0  0  0
 33 34  1  0  0  0  0
 34 42  1  0  0  0  0
 34 35  2  0  0  0  0
  8  9  1  0  0  0  0
  9 17  1  0  0  0  0
  9 10  2  0  0  0  0
 18 19  1  0  0  0  0
 19 32  1  0  0  0  0
 19 20  2  0  0  0  0
 22 23  1  0  0  0  0
 23 24  1  0  0  0  0
 23 25  2  0  0  0  0
 33 36  1  0  0  0  0
  8 11  1  0  0  0  0
 42 43  1  0  0  0  0
 21 22  1  0  0  0  0
 18 21  1  0  0  0  0
 32 33  1  0  0  0  0
  7  8  1  0  0  0  0
 17 18  1  0  0  0  0
  3  4  1  0  0  0  0
  3  5  1  0  0  0  0
  3  6  1  0  0  0  0
 36 39  1  0  0  0  0
 36 40  1  0  0  0  0
 36 41  1  0  0  0  0
 11 14  1  0  0  0  0
 11 15  1  0  0  0  0
 11 16  1  0  0  0  0
 43 45  1  0  0  0  0
 43 46  1  0  0  0  0
 43 47  1  0  0  0  0
 22 30  1  0  0  0  0
 22 31  1  0  0  0  0
 21 28  1  0  0  0  0
 21 29  1  0  0  0  0
 33 38  1  0  0  0  0
  8 13  1  0  0  0  0
 18 27  1  0  0  0  0
 42 44  1  0  0  0  0
  7 12  1  0  0  0  0
 32 37  1  0  0  0  0
 17 26  1  0  0  0  0
M  CHG  1  24  -1
M  END
$$$$

  -OEChem-05262214473D

 47 46  0     1  0  0  0  0  0999 V2000
    0.5093   -4.7265    3.0306 C   0  0  0  0  0  0  0  0  0  0  0  0
    1.2735   -4.4402    3.9448 O   0  0  0  0  0  0  0  0  0  0  0  0
   -0.4465   -5.8608    3.1982 C   0  0  0  0  0  0  0  0  0  0  0  0
   -0.0219   -6.8213    2.8645 H   0  0  0  0  0  0  0  0  0  0  0  0
   -0.7314   -6.0185    4.2509 H   0  0  0  0  0  0  0  0  0  0  0  0
   -1.3983   -5.7596    2.6527 H   0  0  0  0  0  0  0  0  0  0  0  0
    0.4252   -4.0886    1.8040 N   0  0  0  0  0  0  0  0  0  0  0  0
    1.2532   -2.9707    1.4349 C   0  0  2  0  0  0  0  0  0  0  0  0
    0.3395   -1.8293    1.0083 C   0  0  0  0  0  0  0  0  0  0  0  0
   -0.8136   -2.0027    0.6194 O   0  0  0  0  0  0  0  0  0  0  0  0
    2.2176   -3.3411    0.3189 C   0  0  0  0  0  0  0  0  0  0  0  0
   -0.2574   -4.4279    1.1287 H   0  0  0  0  0  0  0  0  0  0  0  0
    1.8087   -2.6785    2.3327 H   0  0  0  0  0  0  0  0  0  0  0  0
    1.6793   -3.6366   -0.5890 H   0  0  0  0  0  0  0  0  0  0  0  0
    2.8662   -2.4980    0.0589 H   0  0  0  0  0  0  0  0  0  0  0  0
    2.8538   -4.1816    0.6166 H   0  0  0  0  0  0  0  0  0  0  0  0
    0.9758   -0.5952    1.0708 N   0  0  0  0  0  0  0  0  0  0  0  0
    0.3258    0.6374    0.7059 C   0  0  2  0  0  0  0  0  0  0  0  0
   -0.7057    0.3111   -0.3690 C   0  0  0  0  0  0  0  0  0  0  0  0
   -0.5540   -0.5902   -1.1912 O   0  0  0  0  0  0  0  0  0  0  0  0
    1.3230    1.6813    0.1893 C   0  0  0  0  0  0  0  0  0  0  0  0
    2.2905    2.1819    1.2611 C   0  0  0  0  0  0  0  0  0  0  0  0
    3.3308    3.2107    0.8058 C   0  0  0  0  0  0  0  0  0  0  0  0
    3.3476    3.4162   -0.4420 O   0  5  0  0  0  0  0  0  0  0  0  0
    4.0306    3.7386    1.7135 O   0  0  0  0  0  0  0  0  0  0  0  0
    1.9288   -0.5463    1.4242 H   0  0  0  0  0  0  0  0  0  0  0  0
   -0.1978    0.9930    1.5999 H   0  0  0  0  0  0  0  0  0  0  0  0
    0.7842    2.5337   -0.2428 H   0  0  0  0  0  0  0  0  0  0  0  0
    1.9095    1.2477   -0.6318 H   0  0  0  0  0  0  0  0  0  0  0  0
    1.7297    2.5904    2.1102 H   0  0  0  0  0  0  0  0  0  0  0  0
    2.8557    1.3231    1.6451 H   0  0  0  0  0  0  0  0  0  0  0  0
   -1.7912    1.1751   -0.3297 N   0  0  0  0  0  0  0  0  0  0  0  0
   -2.8978    1.0852   -1.2539 C   0  0  2  0  0  0  0  0  0  0  0  0
   -3.6463    2.4111   -1.2217 C   0  0  0  0  0  0  0  0  0  0  0  0
   -3.5909    3.1898   -0.2721 O   0  0  0  0  0  0  0  0  0  0  0  0
   -3.8221   -0.0694   -0.8998 C   0  0  0  0  0  0  0  0  0  0  0  0
   -1.8389    1.8834    0.3967 H   0  0  0  0  0  0  0  0  0  0  0  0
   -2.4669    0.9324   -2.2494 H   0  0  0  0  0  0  0  0  0  0  0  0
   -4.2633    0.0660    0.0944 H   0  0  0  0  0  0  0  0  0  0  0  0
   -4.6446   -0.1539   -1.6177 H   0  0  0  0  0  0  0  0  0  0  0  0
   -3.2754   -1.0186   -0.8943 H   0  0  0  0  0  0  0  0  0  0  0  0
   -4.4175    2.6028   -2.3595 N   0  0  0  0  0  0  0  0  0  0  0  0
   -5.2308    3.7793   -2.5610 C   0  0  0  0  0  0  0  0  0  0  0  0
   -4.3883    1.9135   -3.1050 H   0  0  0  0  0  0  0  0  0  0  0  0
   -6.2494    3.5892   -2.1918 H   0  0  0  0  0  0  0  0  0  0  0  0
   -4.7936    4.6257   -2.0112 H   0  0  0  0  0  0  0  0  0  0  0  0
   -5.2687    4.0193   -3.6339 H   0  0  0  0  0  0  0  0  0  0  0  0
  1  3  1  0  0  0  0
  1  7  1  0  0  0  0
  1  2  2  0  0  0  0
 33 34  1  0  0  0  0
 34 42  1  0  0  0  0
 34 35  2  0  0  0  0
  8  9  1  0  0  0  0
  9 17  1  0  0  0  0
  9 10  2  0  0  0  0
 18 19  1  0  0  0  0
 19 32  1  0  0  0  0
 19 20  2  0  0  0  0
 22 23  1  0  0  0  0
 23 24  1  0  0  0  0
 23 25  2  0  0  0  0
 33 36  1  0  0  0  0
  8 11  1  0  0  0  0
 42 43  1  0  0  0  0
 21 22  1  0  0  0  0
 18 21  1  0  0  0  0
 32 33  1  0  0  0  0
  7  8  1  0  0  0  0
 17 18  1  0  0  0  0
  3  4  1  0  0  0  0
  3  5  1  0  0  0  0
  3  6  1  0  0  0  0
 36 39  1  0  0  0  0
 36 40  1  0  0  0  0
 36 41  1  0  0  0  0
 11 14  1  0  0  0  0
 11 15  1  0  0  0  0
 11 16  1  0  0  0  0
 43 45  1  0  0  0  0
 43 46  1  0  0  0  0
 43 47  1  0  0  0  0
 22 30  1  0  0  0  0
 22 31  1  0  0  0  0
 21 28  1  0  0  0  0
 21 29  1  0  0  0  0
 33 38  1  0  0  0  0
  8 13  1  0  0  0  0
 18 27  1  0  0  0  0
 42 44  1  0  0  0  0
  7 12  1  0  0  0  0
 32 37  1  0  0  0  0
 17 26  1  0  0  0  0
M  CHG  1  24  -1
M  END
$$$$

  -OEChem-05262214473D

 47 46  0     1  0  0  0  0  0999 V2000
    0.5093   -4.7265    3.0306 C   0  0  0  0  0  0  0  0  0  0  0  0
    1.2735   -4.4402    3.9448 O   0  0  0  0  0  0  0  0  0  0  0  0
   -0.4465   -5.8608    3.1982 C   0  0  0  0  0  0  0  0  0  0  0  0
   -0.0219   -6.8213    2.8645 H   0  0  0  0  0  0  0  0  0  0  0  0
   -0.7314   -6.0185    4.2509 H   0  0  0  0  0  0  0  0  0  0  0  0
   -1.3983   -5.7596    2.6527 H   0  0  0  0  0  0  0  0  0  0  0  0
    0.4252   -4.0886    1.8040 N   0  0  0  0  0  0  0  0  0  0  0  0
    1.2532   -2.9707    1.4349 C   0  0  2  0  0  0  0  0  0  0  0  0
    0.3395   -1.8293    1.0083 C   0  0  0  0  0  0  0  0  0  0  0  0
   -0.8136   -2.0027    0.6194 O   0  0  0  0  0  0  0  0  0  0  0  0
    2.2176   -3.3411    0.3189 C   0  0  0  0  0  0  0  0  0  0  0  0
   -0.2574   -4.4279    1.1287 H   0  0  0  0  0  0  0  0  0  0  0  0
    1.8087   -2.6785    2.3327 H   0  0  0  0  0  0  0  0  0  0  0  0
    1.6793   -3.6366   -0.5890 H   0  0  0  0  0  0  0  0  0  0  0  0
    2.8662   -2.4980    0.0589 H   0  0  0  0  0  0  0  0  0  0  0  0
    2.8538   -4.1816    0.6166 H   0  0  0  0  0  0  0  0  0  0  0  0
    0.9758   -0.5952    1.0708 N   0  0  0  0  0  0  0  0  0  0  0  0
    0.3258    0.6374    0.7059 C   0  0  2  0  0  0  0  0  0  0  0  0
   -0.7057    0.3111   -0.3690 C   0  0  0  0  0  0  0  0  0  0  0  0
   -0.6935   -0.7359   -1.0131 O   0  0  0  0  0  0  0  0  0  0  0  0
    1.3230    1.6813    0.1893 C   0  0  0  0  0  0  0  0  0  0  0  0
    2.2905    2.1819    1.2611 C   0  0  0  0  0  0  0  0  0  0  0  0
    3.3308    3.2107    0.8058 C   0  0  0  0  0  0  0  0  0  0  0  0
    3.3476    3.4162   -0.4420 O   0  5  0  0  0  0  0  0  0  0  0  0
    4.0306    3.7386    1.7135 O   0  0  0  0  0  0  0  0  0  0  0  0
    1.9288   -0.5463    1.4242 H   0  0  0  0  0  0  0  0  0  0  0  0
   -0.1978    0.9930    1.5999 H   0  0  0  0  0  0  0  0  0  0  0  0
    0.7842    2.5337   -0.2428 H   0  0  0  0  0  0  0  0  0  0  0  0
    1.9095    1.2477   -0.6318 H   0  0  0  0  0  0  0  0  0  0  0  0
    1.7297    2.5904    2.1102 H   0  0  0  0  0  0  0  0  0  0  0  0
    2.8557    1.3231    1.6451 H   0  0  0  0  0  0  0  0  0  0  0  0
   -1.6108    1.3467   -0.5549 N   0  0  0  0  0  0  0  0  0  0  0  0
   -2.6777    1.2897   -1.5272 C   0  0  2  0  0  0  0  0  0  0  0  0
   -3.1651    2.7112   -1.7745 C   0  0  0  0  0  0  0  0  0  0  0  0
   -3.0020    3.6258   -0.9695 O   0  0  0  0  0  0  0  0  0  0  0  0
   -3.8150    0.4005   -1.0492 C   0  0  0  0  0  0  0  0  0  0  0  0
   -1.5533    2.1714    0.0352 H   0  0  0  0  0  0  0  0  0  0  0  0
   -2.2444    0.8860   -2.4488 H   0  0  0  0  0  0  0  0  0  0  0  0
   -4.2616    0.7889   -0.1266 H   0  0  0  0  0  0  0  0  0  0  0  0
   -4.6100    0.3354   -1.7993 H   0  0  0  0  0  0  0  0  0  0  0  0
   -3.4565   -0.6139   -0.8433 H   0  0  0  0  0  0  0  0  0  0  0  0
   -3.8417    2.8285   -2.9806 N   0  0  0  0  0  0  0  0  0  0  0  0
   -4.4116    4.0747   -3.4368 C   0  0  0  0  0  0  0  0  0  0  0  0
   -3.9129    2.0221   -3.5940 H   0  0  0  0  0  0  0  0  0  0  0  0
   -5.4614    4.1382   -3.1145 H   0  0  0  0  0  0  0  0  0  0  0  0
   -3.8454    4.9151   -3.0088 H   0  0  0  0  0  0  0  0  0  0  0  0
   -4.3619    4.1204   -4.5347 H   0  0  0  0  0  0  0  0  0  0  0  0
  1  3  1  0  0  0  0
  1  7  1  0  0  0  0
  1  2  2  0  0  0  0
 33 34  1  0  0  0  0
 34 42  1  0  0  0  0
 34 35  2  0  0  0  0
  8  9  1  0  0  0  0
  9 17  1  0  0  0  0
  9 10  2  0  0  0  0
 18 19  1  0  0  0  0
 19 32  1  0  0  0  0
 19 20  2  0  0  0  0
 22 23  1  0  0  0  0
 23 24  1  0  0  0  0
 23 25  2  0  0  0  0
 33 36  1  0  0  0  0
  8 11  1  0  0  0  0
 42 43  1  0  0  0  0
 21 22  1  0  0  0  0
 18 21  1  0  0  0  0
 32 33  1  0  0  0  0
  7  8  1  0  0  0  0
 17 18  1  0  0  0  0
  3  4  1  0  0  0  0
  3  5  1  0  0  0  0
  3  6  1  0  0  0  0
 36 39  1  0  0  0  0
 36 40  1  0  0  0  0
 36 41  1  0  0  0  0
 11 14  1  0  0  0  0
 11 15  1  0  0  0  0
 11 16  1  0  0  0  0
 43 45  1  0  0  0  0
 43 46  1  0  0  0  0
 43 47  1  0  0  0  0
 22 30  1  0  0  0  0
 22 31  1  0  0  0  0
 21 28  1  0  0  0  0
 21 29  1  0  0  0  0
 33 38  1  0  0  0  0
  8 13  1  0  0  0  0
 18 27  1  0  0  0  0
 42 44  1  0  0  0  0
  7 12  1  0  0  0  0
 32 37  1  0  0  0  0
 17 26  1  0  0  0  0
M  CHG  1  24  -1
M  END
$$$$

  -OEChem-05262214473D

 47 46  0     1  0  0  0  0  0999 V2000
    0.5093   -4.7265    3.0306 C   0  0  0  0  0  0  0  0  0  0  0  0
    1.2735   -4.4402    3.9448 O   0  0  0  0  0  0  0  0  0  0  0  0
   -0.4465   -5.8608    3.1982 C   0  0  0  0  0  0  0  0  0  0  0  0
   -0.0219   -6.8213    2.8645 H   0  0  0  0  0  0  0  0  0  0  0  0
   -0.7314   -6.0185    4.2509 H   0  0  0  0  0  0  0  0  0  0  0  0
   -1.3983   -5.7596    2.6527 H   0  0  0  0  0  0  0  0  0  0  0  0
    0.4252   -4.0886    1.8040 N   0  0  0  0  0  0  0  0  0  0  0  0
    1.2532   -2.9707    1.4349 C   0  0  2  0  0  0  0  0  0  0  0  0
    0.3395   -1.8293    1.0083 C   0  0  0  0  0  0  0  0  0  0  0  0
   -0.8136   -2.0027    0.6194 O   0  0  0  0  0  0  0  0  0  0  0  0
    2.2176   -3.3411    0.3189 C   0  0  0  0  0  0  0  0  0  0  0  0
   -0.2574   -4.4279    1.1287 H   0  0  0  0  0  0  0  0  0  0  0  0
    1.8087   -2.6785    2.3327 H   0  0  0  0  0  0  0  0  0  0  0  0
    1.6793   -3.6366   -0.5890 H   0  0  0  0  0  0  0  0  0  0  0  0
    2.8662   -2.4980    0.0589 H   0  0  0  0  0  0  0  0  0  0  0  0
    2.8538   -4.1816    0.6166 H   0  0  0  0  0  0  0  0  0  0  0  0
    0.9758   -0.5952    1.0708 N   0  0  0  0  0  0  0  0  0  0  0  0
    0.3258    0.6374    0.7059 C   0  0  2  0  0  0  0  0  0  0  0  0
   -0.9370    0.2777   -0.0698 C   0  0  0  0  0  0  0  0  0  0  0  0
   -1.2534   -0.8804   -0.3345 O   0  0  0  0  0  0  0  0  0  0  0  0
    1.2343    1.5368   -0.1408 C   0  0  0  0  0  0  0  0  0  0  0  0
    2.4433    2.0739    0.6241 C   0  0  0  0  0  0  0  0  0  0  0  0
    3.4066    2.9616   -0.1708 C   0  0  0  0  0  0  0  0  0  0  0  0
    3.1526    3.0273   -1.4080 O   0  5  0  0  0  0  0  0  0  0  0  0
    4.3197    3.5289    0.4902 O   0  0  0  0  0  0  0  0  0  0  0  0
    1.9288   -0.5463    1.4242 H   0  0  0  0  0  0  0  0  0  0  0  0
    0.0365    1.1288    1.6411 H   0  0  0  0  0  0  0  0  0  0  0  0
    0.6573    2.3765   -0.5478 H   0  0  0  0  0  0  0  0  0  0  0  0
    1.5971    0.9711   -1.0095 H   0  0  0  0  0  0  0  0  0  0  0  0
    2.1104    2.6157    1.5174 H   0  0  0  0  0  0  0  0  0  0  0  0
    3.0347    1.2204    0.9796 H   0  0  0  0  0  0  0  0  0  0  0  0
   -1.6418    1.4043   -0.4705 N   0  0  0  0  0  0  0  0  0  0  0  0
   -2.8664    1.3320   -1.2333 C   0  0  2  0  0  0  0  0  0  0  0  0
   -3.1061    2.6955   -1.8682 C   0  0  0  0  0  0  0  0  0  0  0  0
   -2.6159    3.7345   -1.4310 O   0  0  0  0  0  0  0  0  0  0  0  0
   -4.0411    0.9265   -0.3568 C   0  0  0  0  0  0  0  0  0  0  0  0
   -1.3120    2.3239   -0.1926 H   0  0  0  0  0  0  0  0  0  0  0  0
   -2.7060    0.5858   -2.0190 H   0  0  0  0  0  0  0  0  0  0  0  0
   -4.2171    1.6622    0.4364 H   0  0  0  0  0  0  0  0  0  0  0  0
   -4.9630    0.8444   -0.9419 H   0  0  0  0  0  0  0  0  0  0  0  0
   -3.8541   -0.0406    0.1225 H   0  0  0  0  0  0  0  0  0  0  0  0
   -3.9665    2.6212   -2.9546 N   0  0  0  0  0  0  0  0  0  0  0  0
   -4.3600    3.7823   -3.7183 C   0  0  0  0  0  0  0  0  0  0  0  0
   -4.3104    1.7151   -3.2587 H   0  0  0  0  0  0  0  0  0  0  0  0
   -5.2951    4.1917   -3.3084 H   0  0  0  0  0  0  0  0  0  0  0  0
   -3.5693    4.5447   -3.6596 H   0  0  0  0  0  0  0  0  0  0  0  0
   -4.5150    3.4948   -4.7687 H   0  0  0  0  0  0  0  0  0  0  0  0
  1  3  1  0  0  0  0
  1  7  1  0  0  0  0
  1  2  2  0  0  0  0
 33 34  1  0  0  0  0
 34 42  1  0  0  0  0
 34 35  2  0  0  0  0
  8  9  1  0  0  0  0
  9 17  1  0  0  0  0
  9 10  2  0  0  0  0
 18 19  1  0  0  0  0
 19 32  1  0  0  0  0
 19 20  2  0  0  0  0
 22 23  1  0  0  0  0
 23 24  1  0  0  0  0
 23 25  2  0  0  0  0
 33 36  1  0  0  0  0
  8 11  1  0  0  0  0
 42 43  1  0  0  0  0
 21 22  1  0  0  0  0
 18 21  1  0  0  0  0
 32 33  1  0  0  0  0
  7  8  1  0  0  0  0
 17 18  1  0  0  0  0
  3  4  1  0  0  0  0
  3  5  1  0  0  0  0
  3  6  1  0  0  0  0
 36 39  1  0  0  0  0
 36 40  1  0  0  0  0
 36 41  1  0  0  0  0
 11 14  1  0  0  0  0
 11 15  1  0  0  0  0
 11 16  1  0  0  0  0
 43 45  1  0  0  0  0
 43 46  1  0  0  0  0
 43 47  1  0  0  0  0
 22 30  1  0  0  0  0
 22 31  1  0  0  0  0
 21 28  1  0  0  0  0
 21 29  1  0  0  0  0
 33 38  1  0  0  0  0
  8 13  1  0  0  0  0
 18 27  1  0  0  0  0
 42 44  1  0  0  0  0
  7 12  1  0  0  0  0
 32 37  1  0  0  0  0
 17 26  1  0  0  0  0
M  CHG  1  24  -1
M  END
$$$$

  -OEChem-05262214473D

 47 46  0     1  0  0  0  0  0999 V2000
    0.5093   -4.7265    3.0306 C   0  0  0  0  0  0  0  0  0  0  0  0
    1.2735   -4.4402    3.9448 O   0  0  0  0  0  0  0  0  0  0  0  0
   -0.4465   -5.8608    3.1982 C   0  0  0  0  0  0  0  0  0  0  0  0
   -0.0219   -6.8213    2.8645 H   0  0  0  0  0  0  0  0  0  0  0  0
   -0.7314   -6.0185    4.2509 H   0  0  0  0  0  0  0  0  0  0  0  0
   -1.3983   -5.7596    2.6527 H   0  0  0  0  0  0  0  0  0  0  0  0
    0.4252   -4.0886    1.8040 N   0  0  0  0  0  0  0  0  0  0  0  0
    1.2532   -2.9707    1.4349 C   0  0  2  0  0  0  0  0  0  0  0  0
    0.3395   -1.8293    1.0083 C   0  0  0  0  0  0  0  0  0  0  0  0
   -0.8136   -2.0027    0.6194 O   0  0  0  0  0  0  0  0  0  0  0  0
    2.2176   -3.3411    0.3189 C   0  0  0  0  0  0  0  0  0  0  0  0
   -0.2574   -4.4279    1.1287 H   0  0  0  0  0  0  0  0  0  0  0  0
    1.8087   -2.6785    2.3327 H   0  0  0  0  0  0  0  0  0  0  0  0
    1.6793   -3.6366   -0.5890 H   0  0  0  0  0  0  0  0  0  0  0  0
    2.8662   -2.4980    0.0589 H   0  0  0  0  0  0  0  0  0  0  0  0
    2.8538   -4.1816    0.6166 H   0  0  0  0  0  0  0  0  0  0  0  0
    0.9758   -0.5952    1.0708 N   0  0  0  0  0  0  0  0  0  0  0  0
    0.3258    0.6374    0.7059 C   0  0  2  0  0  0  0  0  0  0  0  0
   -0.9370    0.2777   -0.0698 C   0  0  0  0  0  0  0  0  0  0  0  0
   -1.3978   -0.8614   -0.1082 O   0  0  0  0  0  0  0  0  0  0  0  0
    1.2343    1.5368   -0.1408 C   0  0  0  0  0  0  0  0  0  0  0  0
    2.4433    2.0739    0.6241 C   0  0  0  0  0  0  0  0  0  0  0  0
    3.4066    2.9616   -0.1708 C   0  0  0  0  0  0  0  0  0  0  0  0
    3.1526    3.0273   -1.4080 O   0  5  0  0  0  0  0  0  0  0  0  0
    4.3197    3.5289    0.4902 O   0  0  0  0  0  0  0  0  0  0  0  0
    1.9288   -0.5463    1.4242 H   0  0  0  0  0  0  0  0  0  0  0  0
    0.0365    1.1288    1.6411 H   0  0  0  0  0  0  0  0  0  0  0  0
    0.6573    2.3765   -0.5478 H   0  0  0  0  0  0  0  0  0  0  0  0
    1.5971    0.9711   -1.0095 H   0  0  0  0  0  0  0  0  0  0  0  0
    2.1104    2.6157    1.5174 H   0  0  0  0  0  0  0  0  0  0  0  0
    3.0347    1.2204    0.9796 H   0  0  0  0  0  0  0  0  0  0  0  0
   -1.4597    1.3686   -0.7504 N   0  0  0  0  0  0  0  0  0  0  0  0
   -2.6456    1.2852   -1.5710 C   0  0  2  0  0  0  0  0  0  0  0  0
   -2.6645    2.4960   -2.4946 C   0  0  0  0  0  0  0  0  0  0  0  0
   -2.0563    3.5359   -2.2499 O   0  0  0  0  0  0  0  0  0  0  0  0
   -3.9047    1.2309   -0.7199 C   0  0  0  0  0  0  0  0  0  0  0  0
   -1.0193    2.2781   -0.6479 H   0  0  0  0  0  0  0  0  0  0  0  0
   -2.5535    0.3713   -2.1679 H   0  0  0  0  0  0  0  0  0  0  0  0
   -4.0141    2.1383   -0.1148 H   0  0  0  0  0  0  0  0  0  0  0  0
   -4.8008    1.1389   -1.3425 H   0  0  0  0  0  0  0  0  0  0  0  0
   -3.8759    0.3763   -0.0354 H   0  0  0  0  0  0  0  0  0  0  0  0
   -3.4752    2.2945   -3.6028 N   0  0  0  0  0  0  0  0  0  0  0  0
   -3.6683    3.3006   -4.6209 C   0  0  0  0  0  0  0  0  0  0  0  0
   -3.9266    1.3941   -3.7347 H   0  0  0  0  0  0  0  0  0  0  0  0
   -4.5559    3.9032   -4.3780 H   0  0  0  0  0  0  0  0  0  0  0  0
   -2.7833    3.9525   -4.6645 H   0  0  0  0  0  0  0  0  0  0  0  0
   -3.8124    2.8123   -5.5961 H   0  0  0  0  0  0  0  0  0  0  0  0
  1  3  1  0  0  0  0
  1  7  1  0  0  0  0
  1  2  2  0  0  0  0
 33 34  1  0  0  0  0
 34 42  1  0  0  0  0
 34 35  2  0  0  0  0
  8  9  1  0  0  0  0
  9 17  1  0  0  0  0
  9 10  2  0  0  0  0
 18 19  1  0  0  0  0
 19 32  1  0  0  0  0
 19 20  2  0  0  0  0
 22 23  1  0  0  0  0
 23 24  1  0  0  0  0
 23 25  2  0  0  0  0
 33 36  1  0  0  0  0
  8 11  1  0  0  0  0
 42 43  1  0  0  0  0
 21 22  1  0  0  0  0
 18 21  1  0  0  0  0
 32 33  1  0  0  0  0
  7  8  1  0  0  0  0
 17 18  1  0  0  0  0
  3  4  1  0  0  0  0
  3  5  1  0  0  0  0
  3  6  1  0  0  0  0
 36 39  1  0  0  0  0
 36 40  1  0  0  0  0
 36 41  1  0  0  0  0
 11 14  1  0  0  0  0
 11 15  1  0  0  0  0
 11 16  1  0  0  0  0
 43 45  1  0  0  0  0
 43 46  1  0  0  0  0
 43 47  1  0  0  0  0
 22 30  1  0  0  0  0
 22 31  1  0  0  0  0
 21 28  1  0  0  0  0
 21 29  1  0  0  0  0
 33 38  1  0  0  0  0
  8 13  1  0  0  0  0
 18 27  1  0  0  0  0
 42 44  1  0  0  0  0
  7 12  1  0  0  0  0
 32 37  1  0  0  0  0
 17 26  1  0  0  0  0
M  CHG  1  24  -1
M  END
$$$$

  -OEChem-05262214473D

 47 46  0     1  0  0  0  0  0999 V2000
    0.5093   -4.7265    3.0306 C   0  0  0  0  0  0  0  0  0  0  0  0
    1.2735   -4.4402    3.9448 O   0  0  0  0  0  0  0  0  0  0  0  0
   -0.4465   -5.8608    3.1982 C   0  0  0  0  0  0  0  0  0  0  0  0
   -0.0219   -6.8213    2.8645 H   0  0  0  0  0  0  0  0  0  0  0  0
   -0.7314   -6.0185    4.2509 H   0  0  0  0  0  0  0  0  0  0  0  0
   -1.3983   -5.7596    2.6527 H   0  0  0  0  0  0  0  0  0  0  0  0
    0.4252   -4.0886    1.8040 N   0  0  0  0  0  0  0  0  0  0  0  0
    1.2532   -2.9707    1.4349 C   0  0  2  0  0  0  0  0  0  0  0  0
    0.3395   -1.8293    1.0083 C   0  0  0  0  0  0  0  0  0  0  0  0
   -0.8136   -2.0027    0.6194 O   0  0  0  0  0  0  0  0  0  0  0  0
    2.2176   -3.3411    0.3189 C   0  0  0  0  0  0  0  0  0  0  0  0
   -0.2574   -4.4279    1.1287 H   0  0  0  0  0  0  0  0  0  0  0  0
    1.8087   -2.6785    2.3327 H   0  0  0  0  0  0  0  0  0  0  0  0
    1.6793   -3.6366   -0.5890 H   0  0  0  0  0  0  0  0  0  0  0  0
    2.8662   -2.4980    0.0589 H   0  0  0  0  0  0  0  0  0  0  0  0
    2.8538   -4.1816    0.6166 H   0  0  0  0  0  0  0  0  0  0  0  0
    0.9758   -0.5952    1.0708 N   0  0  0  0  0  0  0  0  0  0  0  0
    0.3258    0.6374    0.7059 C   0  0  2  0  0  0  0  0  0  0  0  0
   -0.9370    0.2777   -0.0698 C   0  0  0  0  0  0  0  0  0  0  0  0
   -1.5487   -0.7755    0.0974 O   0  0  0  0  0  0  0  0  0  0  0  0
    1.2343    1.5368   -0.1408 C   0  0  0  0  0  0  0  0  0  0  0  0
    2.4433    2.0739    0.6241 C   0  0  0  0  0  0  0  0  0  0  0  0
    3.4066    2.9616   -0.1708 C   0  0  0  0  0  0  0  0  0  0  0  0
    3.1526    3.0273   -1.4080 O   0  5  0  0  0  0  0  0  0  0  0  0
    4.3197    3.5289    0.4902 O   0  0  0  0  0  0  0  0  0  0  0  0
    1.9288   -0.5463    1.4242 H   0  0  0  0  0  0  0  0  0  0  0  0
    0.0365    1.1288    1.6411 H   0  0  0  0  0  0  0  0  0  0  0  0
    0.6573    2.3765   -0.5478 H   0  0  0  0  0  0  0  0  0  0  0  0
    1.5971    0.9711   -1.0095 H   0  0  0  0  0  0  0  0  0  0  0  0
    2.1104    2.6157    1.5174 H   0  0  0  0  0  0  0  0  0  0  0  0
    3.0347    1.2204    0.9796 H   0  0  0  0  0  0  0  0  0  0  0  0
   -1.2714    1.2502   -1.0019 N   0  0  0  0  0  0  0  0  0  0  0  0
   -2.4178    1.1385   -1.8737 C   0  0  2  0  0  0  0  0  0  0  0  0
   -2.2260    2.1110   -3.0299 C   0  0  0  0  0  0  0  0  0  0  0  0
   -1.4919    3.0948   -2.9641 O   0  0  0  0  0  0  0  0  0  0  0  0
   -3.7107    1.4292   -1.1277 C   0  0  0  0  0  0  0  0  0  0  0  0
   -0.7147    2.0978   -1.0600 H   0  0  0  0  0  0  0  0  0  0  0  0
   -2.4252    0.1121   -2.2565 H   0  0  0  0  0  0  0  0  0  0  0  0
   -3.7217    2.4532   -0.7368 H   0  0  0  0  0  0  0  0  0  0  0  0
   -4.5808    1.3162   -1.7828 H   0  0  0  0  0  0  0  0  0  0  0  0
   -3.8324    0.7480   -0.2786 H   0  0  0  0  0  0  0  0  0  0  0  0
   -3.0042    1.7753   -4.1289 N   0  0  0  0  0  0  0  0  0  0  0  0
   -3.0084    2.5507   -5.3474 C   0  0  0  0  0  0  0  0  0  0  0  0
   -3.5690    0.9315   -4.1022 H   0  0  0  0  0  0  0  0  0  0  0  0
   -3.8145    3.2980   -5.3042 H   0  0  0  0  0  0  0  0  0  0  0  0
   -2.0408    3.0615   -5.4601 H   0  0  0  0  0  0  0  0  0  0  0  0
   -3.1730    1.8833   -6.2061 H   0  0  0  0  0  0  0  0  0  0  0  0
  1  3  1  0  0  0  0
  1  7  1  0  0  0  0
  1  2  2  0  0  0  0
 33 34  1  0  0  0  0
 34 42  1  0  0  0  0
 34 35  2  0  0  0  0
  8  9  1  0  0  0  0
  9 17  1  0  0  0  0
  9 10  2  0  0  0  0
 18 19  1  0  0  0  0
 19 32  1  0  0  0  0
 19 20  2  0  0  0  0
 22 23  1  0  0  0  0
 23 24  1  0  0  0  0
 23 25  2  0  0  0  0
 33 36  1  0  0  0  0
  8 11  1  0  0  0  0
 42 43  1  0  0  0  0
 21 22  1  0  0  0  0
 18 21  1  0  0  0  0
 32 33  1  0  0  0  0
  7  8  1  0  0  0  0
 17 18  1  0  0  0  0
  3  4  1  0  0  0  0
  3  5  1  0  0  0  0
  3  6  1  0  0  0  0
 36 39  1  0  0  0  0
 36 40  1  0  0  0  0
 36 41  1  0  0  0  0
 11 14  1  0  0  0  0
 11 15  1  0  0  0  0
 11 16  1  0  0  0  0
 43 45  1  0  0  0  0
 43 46  1  0  0  0  0
 43 47  1  0  0  0  0
 22 30  1  0  0  0  0
 22 31  1  0  0  0  0
 21 28  1  0  0  0  0
 21 29  1  0  0  0  0
 33 38  1  0  0  0  0
  8 13  1  0  0  0  0
 18 27  1  0  0  0  0
 42 44  1  0  0  0  0
  7 12  1  0  0  0  0
 32 37  1  0  0  0  0
 17 26  1  0  0  0  0
M  CHG  1  24  -1
M  END
$$$$

  -OEChem-05262214473D

 47 46  0     1  0  0  0  0  0999 V2000
    0.5093   -4.7265    3.0306 C   0  0  0  0  0  0  0  0  0  0  0  0
    1.2735   -4.4402    3.9448 O   0  0  0  0  0  0  0  0  0  0  0  0
   -0.4465   -5.8608    3.1982 C   0  0  0  0  0  0  0  0  0  0  0  0
   -0.0219   -6.8213    2.8645 H   0  0  0  0  0  0  0  0  0  0  0  0
   -0.7314   -6.0185    4.2509 H   0  0  0  0  0  0  0  0  0  0  0  0
   -1.3983   -5.7596    2.6527 H   0  0  0  0  0  0  0  0  0  0  0  0
    0.4252   -4.0886    1.8040 N   0  0  0  0  0  0  0  0  0  0  0  0
    1.2532   -2.9707    1.4349 C   0  0  2  0  0  0  0  0  0  0  0  0
    0.3395   -1.8293    1.0083 C   0  0  0  0  0  0  0  0  0  0  0  0
   -0.8136   -2.0027    0.6194 O   0  0  0  0  0  0  0  0  0  0  0  0
    2.2176   -3.3411    0.3189 C   0  0  0  0  0  0  0  0  0  0  0  0
   -0.2574   -4.4279    1.1287 H   0  0  0  0  0  0  0  0  0  0  0  0
    1.8087   -2.6785    2.3327 H   0  0  0  0  0  0  0  0  0  0  0  0
    1.6793   -3.6366   -0.5890 H   0  0  0  0  0  0  0  0  0  0  0  0
    2.8662   -2.4980    0.0589 H   0  0  0  0  0  0  0  0  0  0  0  0
    2.8538   -4.1816    0.6166 H   0  0  0  0  0  0  0  0  0  0  0  0
    0.9758   -0.5952    1.0708 N   0  0  0  0  0  0  0  0  0  0  0  0
    0.3258    0.6374    0.7059 C   0  0  2  0  0  0  0  0  0  0  0  0
   -0.9370    0.2777   -0.0698 C   0  0  0  0  0  0  0  0  0  0  0  0
   -1.6956   -0.6286    0.2685 O   0  0  0  0  0  0  0  0  0  0  0  0
    1.2343    1.5368   -0.1408 C   0  0  0  0  0  0  0  0  0  0  0  0
    2.4433    2.0739    0.6241 C   0  0  0  0  0  0  0  0  0  0  0  0
    3.4066    2.9616   -0.1708 C   0  0  0  0  0  0  0  0  0  0  0  0
    3.1526    3.0273   -1.4080 O   0  5  0  0  0  0  0  0  0  0  0  0
    4.3197    3.5289    0.4902 O   0  0  0  0  0  0  0  0  0  0  0  0
    1.9288   -0.5463    1.4242 H   0  0  0  0  0  0  0  0  0  0  0  0
    0.0365    1.1288    1.6411 H   0  0  0  0  0  0  0  0  0  0  0  0
    0.6573    2.3765   -0.5478 H   0  0  0  0  0  0  0  0  0  0  0  0
    1.5971    0.9711   -1.0095 H   0  0  0  0  0  0  0  0  0  0  0  0
    2.1104    2.6157    1.5174 H   0  0  0  0  0  0  0  0  0  0  0  0
    3.0347    1.2204    0.9796 H   0  0  0  0  0  0  0  0  0  0  0  0
   -1.0898    1.0571   -1.2080 N   0  0  0  0  0  0  0  0  0  0  0  0
   -2.1987    0.9019   -2.1208 C   0  0  2  0  0  0  0  0  0  0  0  0
   -1.8204    1.5667   -3.4377 C   0  0  0  0  0  0  0  0  0  0  0  0
   -0.9612    2.4414   -3.5251 O   0  0  0  0  0  0  0  0  0  0  0  0
   -3.4724    1.5078   -1.5521 C   0  0  0  0  0  0  0  0  0  0  0  0
   -0.4191    1.7951   -1.4009 H   0  0  0  0  0  0  0  0  0  0  0  0
   -2.3301   -0.1741   -2.2787 H   0  0  0  0  0  0  0  0  0  0  0  0
   -3.3598    2.5856   -1.3872 H   0  0  0  0  0  0  0  0  0  0  0  0
   -4.3182    1.3642   -2.2326 H   0  0  0  0  0  0  0  0  0  0  0  0
   -3.7266    1.0492   -0.5905 H   0  0  0  0  0  0  0  0  0  0  0  0
   -2.5854    1.0990   -4.4971 N   0  0  0  0  0  0  0  0  0  0  0  0
   -2.4254    1.5839   -5.8481 C   0  0  0  0  0  0  0  0  0  0  0  0
   -3.2621    0.3588   -4.3362 H   0  0  0  0  0  0  0  0  0  0  0  0
   -3.1216    2.4173   -6.0239 H   0  0  0  0  0  0  0  0  0  0  0  0
   -1.3922    1.9327   -5.9924 H   0  0  0  0  0  0  0  0  0  0  0  0
   -2.6404    0.7709   -6.5572 H   0  0  0  0  0  0  0  0  0  0  0  0
  1  3  1  0  0  0  0
  1  7  1  0  0  0  0
  1  2  2  0  0  0  0
 33 34  1  0  0  0  0
 34 42  1  0  0  0  0
 34 35  2  0  0  0  0
  8  9  1  0  0  0  0
  9 17  1  0  0  0  0
  9 10  2  0  0  0  0
 18 19  1  0  0  0  0
 19 32  1  0  0  0  0
 19 20  2  0  0  0  0
 22 23  1  0  0  0  0
 23 24  1  0  0  0  0
 23 25  2  0  0  0  0
 33 36  1  0  0  0  0
  8 11  1  0  0  0  0
 42 43  1  0  0  0  0
 21 22  1  0  0  0  0
 18 21  1  0  0  0  0
 32 33  1  0  0  0  0
  7  8  1  0  0  0  0
 17 18  1  0  0  0  0
  3  4  1  0  0  0  0
  3  5  1  0  0  0  0
  3  6  1  0  0  0  0
 36 39  1  0  0  0  0
 36 40  1  0  0  0  0
 36 41  1  0  0  0  0
 11 14  1  0  0  0  0
 11 15  1  0  0  0  0
 11 16  1  0  0  0  0
 43 45  1  0  0  0  0
 43 46  1  0  0  0  0
 43 47  1  0  0  0  0
 22 30  1  0  0  0  0
 22 31  1  0  0  0  0
 21 28  1  0  0  0  0
 21 29  1  0  0  0  0
 33 38  1  0  0  0  0
  8 13  1  0  0  0  0
 18 27  1  0  0  0  0
 42 44  1  0  0  0  0
  7 12  1  0  0  0  0
 32 37  1  0  0  0  0
 17 26  1  0  0  0  0
M  CHG  1  24  -1
M  END
$$$$

  -OEChem-05262214473D

 47 46  0     1  0  0  0  0  0999 V2000
    0.5093   -4.7265    3.0306 C   0  0  0  0  0  0  0  0  0  0  0  0
    1.2735   -4.4402    3.9448 O   0  0  0  0  0  0  0  0  0  0  0  0
   -0.4465   -5.8608    3.1982 C   0  0  0  0  0  0  0  0  0  0  0  0
   -0.0219   -6.8213    2.8645 H   0  0  0  0  0  0  0  0  0  0  0  0
   -0.7314   -6.0185    4.2509 H   0  0  0  0  0  0  0  0  0  0  0  0
   -1.3983   -5.7596    2.6527 H   0  0  0  0  0  0  0  0  0  0  0  0
    0.4252   -4.0886    1.8040 N   0  0  0  0  0  0  0  0  0  0  0  0
    1.2532   -2.9707    1.4349 C   0  0  2  0  0  0  0  0  0  0  0  0
    0.3395   -1.8293    1.0083 C   0  0  0  0  0  0  0  0  0  0  0  0
   -0.8136   -2.0027    0.6194 O   0  0  0  0  0  0  0  0  0  0  0  0
    2.2176   -3.3411    0.3189 C   0  0  0  0  0  0  0  0  0  0  0  0
   -0.2574   -4.4279    1.1287 H   0  0  0  0  0  0  0  0  0  0  0  0
    1.8087   -2.6785    2.3327 H   0  0  0  0  0  0  0  0  0  0  0  0
    1.6793   -3.6366   -0.5890 H   0  0  0  0  0  0  0  0  0  0  0  0
    2.8662   -2.4980    0.0589 H   0  0  0  0  0  0  0  0  0  0  0  0
    2.8538   -4.1816    0.6166 H   0  0  0  0  0  0  0  0  0  0  0  0
    0.9758   -0.5952    1.0708 N   0  0  0  0  0  0  0  0  0  0  0  0
    0.3258    0.6374    0.7059 C   0  0  2  0  0  0  0  0  0  0  0  0
   -0.9370    0.2777   -0.0698 C   0  0  0  0  0  0  0  0  0  0  0  0
   -1.8286   -0.4308    0.3933 O   0  0  0  0  0  0  0  0  0  0  0  0
    1.2343    1.5368   -0.1408 C   0  0  0  0  0  0  0  0  0  0  0  0
    2.4433    2.0739    0.6241 C   0  0  0  0  0  0  0  0  0  0  0  0
    3.4066    2.9616   -0.1708 C   0  0  0  0  0  0  0  0  0  0  0  0
    3.1526    3.0273   -1.4080 O   0  5  0  0  0  0  0  0  0  0  0  0
    4.3197    3.5289    0.4902 O   0  0  0  0  0  0  0  0  0  0  0  0
    1.9288   -0.5463    1.4242 H   0  0  0  0  0  0  0  0  0  0  0  0
    0.0365    1.1288    1.6411 H   0  0  0  0  0  0  0  0  0  0  0  0
    0.6573    2.3765   -0.5478 H   0  0  0  0  0  0  0  0  0  0  0  0
    1.5971    0.9711   -1.0095 H   0  0  0  0  0  0  0  0  0  0  0  0
    2.1104    2.6157    1.5174 H   0  0  0  0  0  0  0  0  0  0  0  0
    3.0347    1.2204    0.9796 H   0  0  0  0  0  0  0  0  0  0  0  0
   -0.9272    0.8025   -1.3547 N   0  0  0  0  0  0  0  0  0  0  0  0
   -2.0031    0.5916   -2.2953 C   0  0  2  0  0  0  0  0  0  0  0  0
   -1.4754    0.9001   -3.6902 C   0  0  0  0  0  0  0  0  0  0  0  0
   -0.5003    1.6202   -3.8945 O   0  0  0  0  0  0  0  0  0  0  0  0
   -3.2058    1.4614   -1.9645 C   0  0  0  0  0  0  0  0  0  0  0  0
   -0.1527    1.3909   -1.6472 H   0  0  0  0  0  0  0  0  0  0  0  0
   -2.2745   -0.4679   -2.2329 H   0  0  0  0  0  0  0  0  0  0  0  0
   -2.9531    2.5265   -2.0218 H   0  0  0  0  0  0  0  0  0  0  0  0
   -4.0307    1.2795   -2.6613 H   0  0  0  0  0  0  0  0  0  0  0  0
   -3.5657    1.2594   -0.9498 H   0  0  0  0  0  0  0  0  0  0  0  0
   -2.2474    0.3117   -4.6822 N   0  0  0  0  0  0  0  0  0  0  0  0
   -1.9590    0.4660   -6.0890 C   0  0  0  0  0  0  0  0  0  0  0  0
   -3.0268   -0.2850   -4.4208 H   0  0  0  0  0  0  0  0  0  0  0  0
   -2.5242    1.3212   -6.4880 H   0  0  0  0  0  0  0  0  0  0  0  0
   -0.8819    0.6429   -6.2251 H   0  0  0  0  0  0  0  0  0  0  0  0
   -2.2511   -0.4488   -6.6255 H   0  0  0  0  0  0  0  0  0  0  0  0
  1  3  1  0  0  0  0
  1  7  1  0  0  0  0
  1  2  2  0  0  0  0
 33 34  1  0  0  0  0
 34 42  1  0  0  0  0
 34 35  2  0  0  0  0
  8  9  1  0  0  0  0
  9 17  1  0  0  0  0
  9 10  2  0  0  0  0
 18 19  1  0  0  0  0
 19 32  1  0  0  0  0
 19 20  2  0  0  0  0
 22 23  1  0  0  0  0
 23 24  1  0  0  0  0
 23 25  2  0  0  0  0
 33 36  1  0  0  0  0
  8 11  1  0  0  0  0
 42 43  1  0  0  0  0
 21 22  1  0  0  0  0
 18 21  1  0  0  0  0
 32 33  1  0  0  0  0
  7  8  1  0  0  0  0
 17 18  1  0  0  0  0
  3  4  1  0  0  0  0
  3  5  1  0  0  0  0
  3  6  1  0  0  0  0
 36 39  1  0  0  0  0
 36 40  1  0  0  0  0
 36 41  1  0  0  0  0
 11 14  1  0  0  0  0
 11 15  1  0  0  0  0
 11 16  1  0  0  0  0
 43 45  1  0  0  0  0
 43 46  1  0  0  0  0
 43 47  1  0  0  0  0
 22 30  1  0  0  0  0
 22 31  1  0  0  0  0
 21 28  1  0  0  0  0
 21 29  1  0  0  0  0
 33 38  1  0  0  0  0
  8 13  1  0  0  0  0
 18 27  1  0  0  0  0
 42 44  1  0  0  0  0
  7 12  1  0  0  0  0
 32 37  1  0  0  0  0
 17 26  1  0  0  0  0
M  CHG  1  24  -1
M  END
$$$$

  -OEChem-05262214473D

 47 46  0     1  0  0  0  0  0999 V2000
    0.5093   -4.7265    3.0306 C   0  0  0  0  0  0  0  0  0  0  0  0
    1.2735   -4.4402    3.9448 O   0  0  0  0  0  0  0  0  0  0  0  0
   -0.4465   -5.8608    3.1982 C   0  0  0  0  0  0  0  0  0  0  0  0
   -0.0219   -6.8213    2.8645 H   0  0  0  0  0  0  0  0  0  0  0  0
   -0.7314   -6.0185    4.2509 H   0  0  0  0  0  0  0  0  0  0  0  0
   -1.3983   -5.7596    2.6527 H   0  0  0  0  0  0  0  0  0  0  0  0
    0.4252   -4.0886    1.8040 N   0  0  0  0  0  0  0  0  0  0  0  0
    1.2532   -2.9707    1.4349 C   0  0  2  0  0  0  0  0  0  0  0  0
    0.3395   -1.8293    1.0083 C   0  0  0  0  0  0  0  0  0  0  0  0
   -0.8136   -2.0027    0.6194 O   0  0  0  0  0  0  0  0  0  0  0  0
    2.2176   -3.3411    0.3189 C   0  0  0  0  0  0  0  0  0  0  0  0
   -0.2574   -4.4279    1.1287 H   0  0  0  0  0  0  0  0  0  0  0  0
    1.8087   -2.6785    2.3327 H   0  0  0  0  0  0  0  0  0  0  0  0
    1.6793   -3.6366   -0.5890 H   0  0  0  0  0  0  0  0  0  0  0  0
    2.8662   -2.4980    0.0589 H   0  0  0  0  0  0  0  0  0  0  0  0
    2.8538   -4.1816    0.6166 H   0  0  0  0  0  0  0  0  0  0  0  0
    0.9758   -0.5952    1.0708 N   0  0  0  0  0  0  0  0  0  0  0  0
    0.3258    0.6374    0.7059 C   0  0  2  0  0  0  0  0  0  0  0  0
   -0.9370    0.2777   -0.0698 C   0  0  0  0  0  0  0  0  0  0  0  0
   -1.9386   -0.1954    0.4633 O   0  0  0  0  0  0  0  0  0  0  0  0
    1.2343    1.5368   -0.1408 C   0  0  0  0  0  0  0  0  0  0  0  0
    2.4433    2.0739    0.6241 C   0  0  0  0  0  0  0  0  0  0  0  0
    3.4066    2.9616   -0.1708 C   0  0  0  0  0  0  0  0  0  0  0  0
    3.1526    3.0273   -1.4080 O   0  5  0  0  0  0  0  0  0  0  0  0
    4.3197    3.5289    0.4902 O   0  0  0  0  0  0  0  0  0  0  0  0
    1.9288   -0.5463    1.4242 H   0  0  0  0  0  0  0  0  0  0  0  0
    0.0365    1.1288    1.6411 H   0  0  0  0  0  0  0  0  0  0  0  0
    0.6573    2.3765   -0.5478 H   0  0  0  0  0  0  0  0  0  0  0  0
    1.5971    0.9711   -1.0095 H   0  0  0  0  0  0  0  0  0  0  0  0
    2.1104    2.6157    1.5174 H   0  0  0  0  0  0  0  0  0  0  0  0
    3.0347    1.2204    0.9796 H   0  0  0  0  0  0  0  0  0  0  0  0
   -0.7948    0.5038   -1.4318 N   0  0  0  0  0  0  0  0  0  0  0  0
   -1.8443    0.2287   -2.3855 C   0  0  2  0  0  0  0  0  0  0  0  0
   -1.2145    0.1567   -3.7702 C   0  0  0  0  0  0  0  0  0  0  0  0
   -0.1407    0.6871   -4.0472 O   0  0  0  0  0  0  0  0  0  0  0  0
   -2.9294    1.2932   -2.3365 C   0  0  0  0  0  0  0  0  0  0  0  0
    0.0665    0.9125   -1.7823 H   0  0  0  0  0  0  0  0  0  0  0  0
   -2.2623   -0.7491   -2.1224 H   0  0  0  0  0  0  0  0  0  0  0  0
   -2.5294    2.2798   -2.5972 H   0  0  0  0  0  0  0  0  0  0  0  0
   -3.7380    1.0680   -3.0397 H   0  0  0  0  0  0  0  0  0  0  0  0
   -3.3606    1.3642   -1.3322 H   0  0  0  0  0  0  0  0  0  0  0  0
   -2.0133   -0.5330   -4.6716 N   0  0  0  0  0  0  0  0  0  0  0  0
   -1.6410   -0.7269   -6.0536 C   0  0  0  0  0  0  0  0  0  0  0  0
   -2.8791   -0.9559   -4.3502 H   0  0  0  0  0  0  0  0  0  0  0  0
   -2.0632    0.0843   -6.6649 H   0  0  0  0  0  0  0  0  0  0  0  0
   -0.5446   -0.7201   -6.1422 H   0  0  0  0  0  0  0  0  0  0  0  0
   -2.0314   -1.6929   -6.4062 H   0  0  0  0  0  0  0  0  0  0  0  0
  1  3  1  0  0  0  0
  1  7  1  0  0  0  0
  1  2  2  0  0  0  0
 33 34  1  0  0  0  0
 34 42  1  0  0  0  0
 34 35  2  0  0  0  0
  8  9  1  0  0  0  0
  9 17  1  0  0  0  0
  9 10  2  0  0  0  0
 18 19  1  0  0  0  0
 19 32  1  0  0  0  0
 19 20  2  0  0  0  0
 22 23  1  0  0  0  0
 23 24  1  0  0  0  0
 23 25  2  0  0  0  0
 33 36  1  0  0  0  0
  8 11  1  0  0  0  0
 42 43  1  0  0  0  0
 21 22  1  0  0  0  0
 18 21  1  0  0  0  0
 32 33  1  0  0  0  0
  7  8  1  0  0  0  0
 17 18  1  0  0  0  0
  3  4  1  0  0  0  0
  3  5  1  0  0  0  0
  3  6  1  0  0  0  0
 36 39  1  0  0  0  0
 36 40  1  0  0  0  0
 36 41  1  0  0  0  0
 11 14  1  0  0  0  0
 11 15  1  0  0  0  0
 11 16  1  0  0  0  0
 43 45  1  0  0  0  0
 43 46  1  0  0  0  0
 43 47  1  0  0  0  0
 22 30  1  0  0  0  0
 22 31  1  0  0  0  0
 21 28  1  0  0  0  0
 21 29  1  0  0  0  0
 33 38  1  0  0  0  0
  8 13  1  0  0  0  0
 18 27  1  0  0  0  0
 42 44  1  0  0  0  0
  7 12  1  0  0  0  0
 32 37  1  0  0  0  0
 17 26  1  0  0  0  0
M  CHG  1  24  -1
M  END
$$$$

  -OEChem-05262214473D

 47 46  0     1  0  0  0  0  0999 V2000
    0.5093   -4.7265    3.0306 C   0  0  0  0  0  0  0  0  0  0  0  0
    1.2735   -4.4402    3.9448 O   0  0  0  0  0  0  0  0  0  0  0  0
   -0.4465   -5.8608    3.1982 C   0  0  0  0  0  0  0  0  0  0  0  0
   -0.0219   -6.8213    2.8645 H   0  0  0  0  0  0  0  0  0  0  0  0
   -0.7314   -6.0185    4.2509 H   0  0  0  0  0  0  0  0  0  0  0  0
   -1.3983   -5.7596    2.6527 H   0  0  0  0  0  0  0  0  0  0  0  0
    0.4252   -4.0886    1.8040 N   0  0  0  0  0  0  0  0  0  0  0  0
    1.2532   -2.9707    1.4349 C   0  0  2  0  0  0  0  0  0  0  0  0
    0.3395   -1.8293    1.0083 C   0  0  0  0  0  0  0  0  0  0  0  0
   -0.8136   -2.0027    0.6194 O   0  0  0  0  0  0  0  0  0  0  0  0
    2.2176   -3.3411    0.3189 C   0  0  0  0  0  0  0  0  0  0  0  0
   -0.2574   -4.4279    1.1287 H   0  0  0  0  0  0  0  0  0  0  0  0
    1.8087   -2.6785    2.3327 H   0  0  0  0  0  0  0  0  0  0  0  0
    1.6793   -3.6366   -0.5890 H   0  0  0  0  0  0  0  0  0  0  0  0
    2.8662   -2.4980    0.0589 H   0  0  0  0  0  0  0  0  0  0  0  0
    2.8538   -4.1816    0.6166 H   0  0  0  0  0  0  0  0  0  0  0  0
    0.9758   -0.5952    1.0708 N   0  0  0  0  0  0  0  0  0  0  0  0
    0.3258    0.6374    0.7059 C   0  0  2  0  0  0  0  0  0  0  0  0
   -0.9370    0.2777   -0.0698 C   0  0  0  0  0  0  0  0  0  0  0  0
   -2.0182    0.0615    0.4738 O   0  0  0  0  0  0  0  0  0  0  0  0
    1.2343    1.5368   -0.1408 C   0  0  0  0  0  0  0  0  0  0  0  0
    2.4433    2.0739    0.6241 C   0  0  0  0  0  0  0  0  0  0  0  0
    3.4066    2.9616   -0.1708 C   0  0  0  0  0  0  0  0  0  0  0  0
    3.1526    3.0273   -1.4080 O   0  5  0  0  0  0  0  0  0  0  0  0
    4.3197    3.5289    0.4902 O   0  0  0  0  0  0  0  0  0  0  0  0
    1.9288   -0.5463    1.4242 H   0  0  0  0  0  0  0  0  0  0  0  0
    0.0365    1.1288    1.6411 H   0  0  0  0  0  0  0  0  0  0  0  0
    0.6573    2.3765   -0.5478 H   0  0  0  0  0  0  0  0  0  0  0  0
    1.5971    0.9711   -1.0095 H   0  0  0  0  0  0  0  0  0  0  0  0
    2.1104    2.6157    1.5174 H   0  0  0  0  0  0  0  0  0  0  0  0
    3.0347    1.2204    0.9796 H   0  0  0  0  0  0  0  0  0  0  0  0
   -0.7014    0.1813   -1.4342 N   0  0  0  0  0  0  0  0  0  0  0  0
   -1.7333   -0.1620   -2.3851 C   0  0  2  0  0  0  0  0  0  0  0  0
   -1.0555   -0.6129   -3.6723 C   0  0  0  0  0  0  0  0  0  0  0  0
    0.0931   -0.2942   -3.9728 O   0  0  0  0  0  0  0  0  0  0  0  0
   -2.6617    1.0145   -2.6430 C   0  0  0  0  0  0  0  0  0  0  0  0
    0.2236    0.3927   -1.7968 H   0  0  0  0  0  0  0  0  0  0  0  0
   -2.2943   -0.9987   -1.9546 H   0  0  0  0  0  0  0  0  0  0  0  0
   -2.1174    1.8625   -3.0743 H   0  0  0  0  0  0  0  0  0  0  0  0
   -3.4600    0.7441   -3.3420 H   0  0  0  0  0  0  0  0  0  0  0  0
   -3.1255    1.3565   -1.7114 H   0  0  0  0  0  0  0  0  0  0  0  0
   -1.8990   -1.3774   -4.4661 N   0  0  0  0  0  0  0  0  0  0  0  0
   -1.4930   -1.9134   -5.7443 C   0  0  0  0  0  0  0  0  0  0  0  0
   -2.8290   -1.6083   -4.1292 H   0  0  0  0  0  0  0  0  0  0  0  0
   -1.7700   -1.2091   -6.5426 H   0  0  0  0  0  0  0  0  0  0  0  0
   -0.4033   -2.0632   -5.7495 H   0  0  0  0  0  0  0  0  0  0  0  0
   -1.9963   -2.8766   -5.9144 H   0  0  0  0  0  0  0  0  0  0  0  0
  1  3  1  0  0  0  0
  1  7  1  0  0  0  0
  1  2  2  0  0  0  0
 33 34  1  0  0  0  0
 34 42  1  0  0  0  0
 34 35  2  0  0  0  0
  8  9  1  0  0  0  0
  9 17  1  0  0  0  0
  9 10  2  0  0  0  0
 18 19  1  0  0  0  0
 19 32  1  0  0  0  0
 19 20  2  0  0  0  0
 22 23  1  0  0  0  0
 23 24  1  0  0  0  0
 23 25  2  0  0  0  0
 33 36  1  0  0  0  0
  8 11  1  0  0  0  0
 42 43  1  0  0  0  0
 21 22  1  0  0  0  0
 18 21  1  0  0  0  0
 32 33  1  0  0  0  0
  7  8  1  0  0  0  0
 17 18  1  0  0  0  0
  3  4  1  0  0  0  0
  3  5  1  0  0  0  0
  3  6  1  0  0  0  0
 36 39  1  0  0  0  0
 36 40  1  0  0  0  0
 36 41  1  0  0  0  0
 11 14  1  0  0  0  0
 11 15  1  0  0  0  0
 11 16  1  0  0  0  0
 43 45  1  0  0  0  0
 43 46  1  0  0  0  0
 43 47  1  0  0  0  0
 22 30  1  0  0  0  0
 22 31  1  0  0  0  0
 21 28  1  0  0  0  0
 21 29  1  0  0  0  0
 33 38  1  0  0  0  0
  8 13  1  0  0  0  0
 18 27  1  0  0  0  0
 42 44  1  0  0  0  0
  7 12  1  0  0  0  0
 32 37  1  0  0  0  0
 17 26  1  0  0  0  0
M  CHG  1  24  -1
M  END
$$$$

  -OEChem-05262214473D

 47 46  0     1  0  0  0  0  0999 V2000
    0.5093   -4.7265    3.0306 C   0  0  0  0  0  0  0  0  0  0  0  0
    1.2735   -4.4402    3.9448 O   0  0  0  0  0  0  0  0  0  0  0  0
   -0.4465   -5.8608    3.1982 C   0  0  0  0  0  0  0  0  0  0  0  0
   -0.0219   -6.8213    2.8645 H   0  0  0  0  0  0  0  0  0  0  0  0
   -0.7314   -6.0185    4.2509 H   0  0  0  0  0  0  0  0  0  0  0  0
   -1.3983   -5.7596    2.6527 H   0  0  0  0  0  0  0  0  0  0  0  0
    0.4252   -4.0886    1.8040 N   0  0  0  0  0  0  0  0  0  0  0  0
    1.2532   -2.9707    1.4349 C   0  0  2  0  0  0  0  0  0  0  0  0
    0.3395   -1.8293    1.0083 C   0  0  0  0  0  0  0  0  0  0  0  0
   -0.8136   -2.0027    0.6194 O   0  0  0  0  0  0  0  0  0  0  0  0
    2.2176   -3.3411    0.3189 C   0  0  0  0  0  0  0  0  0  0  0  0
   -0.2574   -4.4279    1.1287 H   0  0  0  0  0  0  0  0  0  0  0  0
    1.8087   -2.6785    2.3327 H   0  0  0  0  0  0  0  0  0  0  0  0
    1.6793   -3.6366   -0.5890 H   0  0  0  0  0  0  0  0  0  0  0  0
    2.8662   -2.4980    0.0589 H   0  0  0  0  0  0  0  0  0  0  0  0
    2.8538   -4.1816    0.6166 H   0  0  0  0  0  0  0  0  0  0  0  0
    0.9758   -0.5952    1.0708 N   0  0  0  0  0  0  0  0  0  0  0  0
    0.3258    0.6374    0.7059 C   0  0  2  0  0  0  0  0  0  0  0  0
   -0.9370    0.2777   -0.0698 C   0  0  0  0  0  0  0  0  0  0  0  0
   -2.0619    0.3223    0.4240 O   0  0  0  0  0  0  0  0  0  0  0  0
    1.2343    1.5368   -0.1408 C   0  0  0  0  0  0  0  0  0  0  0  0
    2.4433    2.0739    0.6241 C   0  0  0  0  0  0  0  0  0  0  0  0
    3.4066    2.9616   -0.1708 C   0  0  0  0  0  0  0  0  0  0  0  0
    3.1526    3.0273   -1.4080 O   0  5  0  0  0  0  0  0  0  0  0  0
    4.3197    3.5289    0.4902 O   0  0  0  0  0  0  0  0  0  0  0  0
    1.9288   -0.5463    1.4242 H   0  0  0  0  0  0  0  0  0  0  0  0
    0.0365    1.1288    1.6411 H   0  0  0  0  0  0  0  0  0  0  0  0
    0.6573    2.3765   -0.5478 H   0  0  0  0  0  0  0  0  0  0  0  0
    1.5971    0.9711   -1.0095 H   0  0  0  0  0  0  0  0  0  0  0  0
    2.1104    2.6157    1.5174 H   0  0  0  0  0  0  0  0  0  0  0  0
    3.0347    1.2204    0.9796 H   0  0  0  0  0  0  0  0  0  0  0  0
   -0.6535   -0.1430   -1.3618 N   0  0  0  0  0  0  0  0  0  0  0  0
   -1.6774   -0.5540   -2.2942 C   0  0  2  0  0  0  0  0  0  0  0  0
   -1.0092   -1.3562   -3.4030 C   0  0  0  0  0  0  0  0  0  0  0  0
    0.1852   -1.2570   -3.6763 O   0  0  0  0  0  0  0  0  0  0  0  0
   -2.4212    0.6444   -2.8629 C   0  0  0  0  0  0  0  0  0  0  0  0
    0.3077   -0.1333   -1.6899 H   0  0  0  0  0  0  0  0  0  0  0  0
   -2.3683   -1.1996   -1.7410 H   0  0  0  0  0  0  0  0  0  0  0  0
   -1.7453    1.3028   -3.4206 H   0  0  0  0  0  0  0  0  0  0  0  0
   -3.2157    0.3299   -3.5476 H   0  0  0  0  0  0  0  0  0  0  0  0
   -2.8762    1.2368   -2.0617 H   0  0  0  0  0  0  0  0  0  0  0  0
   -1.9124   -2.1640   -4.0797 N   0  0  0  0  0  0  0  0  0  0  0  0
   -1.5251   -3.0127   -5.1823 C   0  0  0  0  0  0  0  0  0  0  0  0
   -2.8801   -2.1976   -3.7728 H   0  0  0  0  0  0  0  0  0  0  0  0
   -1.6645   -2.4708   -6.1294 H   0  0  0  0  0  0  0  0  0  0  0  0
   -0.4675   -3.2950   -5.0737 H   0  0  0  0  0  0  0  0  0  0  0  0
   -2.1484   -3.9191   -5.1836 H   0  0  0  0  0  0  0  0  0  0  0  0
  1  3  1  0  0  0  0
  1  7  1  0  0  0  0
  1  2  2  0  0  0  0
 33 34  1  0  0  0  0
 34 42  1  0  0  0  0
 34 35  2  0  0  0  0
  8  9  1  0  0  0  0
  9 17  1  0  0  0  0
  9 10  2  0  0  0  0
 18 19  1  0  0  0  0
 19 32  1  0  0  0  0
 19 20  2  0  0  0  0
 22 23  1  0  0  0  0
 23 24  1  0  0  0  0
 23 25  2  0  0  0  0
 33 36  1  0  0  0  0
  8 11  1  0  0  0  0
 42 43  1  0  0  0  0
 21 22  1  0  0  0  0
 18 21  1  0  0  0  0
 32 33  1  0  0  0  0
  7  8  1  0  0  0  0
 17 18  1  0  0  0  0
  3  4  1  0  0  0  0
  3  5  1  0  0  0  0
  3  6  1  0  0  0  0
 36 39  1  0  0  0  0
 36 40  1  0  0  0  0
 36 41  1  0  0  0  0
 11 14  1  0  0  0  0
 11 15  1  0  0  0  0
 11 16  1  0  0  0  0
 43 45  1  0  0  0  0
 43 46  1  0  0  0  0
 43 47  1  0  0  0  0
 22 30  1  0  0  0  0
 22 31  1  0  0  0  0
 21 28  1  0  0  0  0
 21 29  1  0  0  0  0
 33 38  1  0  0  0  0
  8 13  1  0  0  0  0
 18 27  1  0  0  0  0
 42 44  1  0  0  0  0
  7 12  1  0  0  0  0
 32 37  1  0  0  0  0
 17 26  1  0  0  0  0
M  CHG  1  24  -1
M  END
$$$$

  -OEChem-05262214473D

 47 46  0     1  0  0  0  0  0999 V2000
    0.5093   -4.7265    3.0306 C   0  0  0  0  0  0  0  0  0  0  0  0
    1.2735   -4.4402    3.9448 O   0  0  0  0  0  0  0  0  0  0  0  0
   -0.4465   -5.8608    3.1982 C   0  0  0  0  0  0  0  0  0  0  0  0
   -0.0219   -6.8213    2.8645 H   0  0  0  0  0  0  0  0  0  0  0  0
   -0.7314   -6.0185    4.2509 H   0  0  0  0  0  0  0  0  0  0  0  0
   -1.3983   -5.7596    2.6527 H   0  0  0  0  0  0  0  0  0  0  0  0
    0.4252   -4.0886    1.8040 N   0  0  0  0  0  0  0  0  0  0  0  0
    1.2532   -2.9707    1.4349 C   0  0  2  0  0  0  0  0  0  0  0  0
    0.3395   -1.8293    1.0083 C   0  0  0  0  0  0  0  0  0  0  0  0
   -0.8136   -2.0027    0.6194 O   0  0  0  0  0  0  0  0  0  0  0  0
    2.2176   -3.3411    0.3189 C   0  0  0  0  0  0  0  0  0  0  0  0
   -0.2574   -4.4279    1.1287 H   0  0  0  0  0  0  0  0  0  0  0  0
    1.8087   -2.6785    2.3327 H   0  0  0  0  0  0  0  0  0  0  0  0
    1.6793   -3.6366   -0.5890 H   0  0  0  0  0  0  0  0  0  0  0  0
    2.8662   -2.4980    0.0589 H   0  0  0  0  0  0  0  0  0  0  0  0
    2.8538   -4.1816    0.6166 H   0  0  0  0  0  0  0  0  0  0  0  0
    0.9758   -0.5952    1.0708 N   0  0  0  0  0  0  0  0  0  0  0  0
    0.3258    0.6374    0.7059 C   0  0  2  0  0  0  0  0  0  0  0  0
   -0.9370    0.2777   -0.0698 C   0  0  0  0  0  0  0  0  0  0  0  0
   -2.0668    0.5693    0.3173 O   0  0  0  0  0  0  0  0  0  0  0  0
    1.2343    1.5368   -0.1408 C   0  0  0  0  0  0  0  0  0  0  0  0
    2.4433    2.0739    0.6241 C   0  0  0  0  0  0  0  0  0  0  0  0
    3.4066    2.9616   -0.1708 C   0  0  0  0  0  0  0  0  0  0  0  0
    3.1526    3.0273   -1.4080 O   0  5  0  0  0  0  0  0  0  0  0  0
    4.3197    3.5289    0.4902 O   0  0  0  0  0  0  0  0  0  0  0  0
    1.9288   -0.5463    1.4242 H   0  0  0  0  0  0  0  0  0  0  0  0
    0.0365    1.1288    1.6411 H   0  0  0  0  0  0  0  0  0  0  0  0
    0.6573    2.3765   -0.5478 H   0  0  0  0  0  0  0  0  0  0  0  0
    1.5971    0.9711   -1.0095 H   0  0  0  0  0  0  0  0  0  0  0  0
    2.1104    2.6157    1.5174 H   0  0  0  0  0  0  0  0  0  0  0  0
    3.0347    1.2204    0.9796 H   0  0  0  0  0  0  0  0  0  0  0  0
   -0.6544   -0.4471   -1.2193 N   0  0  0  0  0  0  0  0  0  0  0  0
   -1.6807   -0.9205   -2.1190 C   0  0  2  0  0  0  0  0  0  0  0  0
   -1.0788   -2.0226   -2.9808 C   0  0  0  0  0  0  0  0  0  0  0  0
    0.1293   -2.1355   -3.1780 O   0  0  0  0  0  0  0  0  0  0  0  0
   -2.2242    0.2081   -2.9813 C   0  0  0  0  0  0  0  0  0  0  0  0
    0.3131   -0.6294   -1.4687 H   0  0  0  0  0  0  0  0  0  0  0  0
   -2.4792   -1.3381   -1.4962 H   0  0  0  0  0  0  0  0  0  0  0  0
   -1.4384    0.6391   -3.6124 H   0  0  0  0  0  0  0  0  0  0  0  0
   -3.0217   -0.1465   -3.6426 H   0  0  0  0  0  0  0  0  0  0  0  0
   -2.6298    1.0133   -2.3592 H   0  0  0  0  0  0  0  0  0  0  0  0
   -2.0524   -2.8393   -3.5387 N   0  0  0  0  0  0  0  0  0  0  0  0
   -1.7352   -3.9499   -4.4058 C   0  0  0  0  0  0  0  0  0  0  0  0
   -3.0287   -2.6838   -3.3054 H   0  0  0  0  0  0  0  0  0  0  0  0
   -1.7539   -3.6148   -5.4534 H   0  0  0  0  0  0  0  0  0  0  0  0
   -0.7331   -4.3316   -4.1609 H   0  0  0  0  0  0  0  0  0  0  0  0
   -2.4771   -4.7495   -4.2635 H   0  0  0  0  0  0  0  0  0  0  0  0
  1  3  1  0  0  0  0
  1  7  1  0  0  0  0
  1  2  2  0  0  0  0
 33 34  1  0  0  0  0
 34 42  1  0  0  0  0
 34 35  2  0  0  0  0
  8  9  1  0  0  0  0
  9 17  1  0  0  0  0
  9 10  2  0  0  0  0
 18 19  1  0  0  0  0
 19 32  1  0  0  0  0
 19 20  2  0  0  0  0
 22 23  1  0  0  0  0
 23 24  1  0  0  0  0
 23 25  2  0  0  0  0
 33 36  1  0  0  0  0
  8 11  1  0  0  0  0
 42 43  1  0  0  0  0
 21 22  1  0  0  0  0
 18 21  1  0  0  0  0
 32 33  1  0  0  0  0
  7  8  1  0  0  0  0
 17 18  1  0  0  0  0
  3  4  1  0  0  0  0
  3  5  1  0  0  0  0
  3  6  1  0  0  0  0
 36 39  1  0  0  0  0
 36 40  1  0  0  0  0
 36 41  1  0  0  0  0
 11 14  1  0  0  0  0
 11 15  1  0  0  0  0
 11 16  1  0  0  0  0
 43 45  1  0  0  0  0
 43 46  1  0  0  0  0
 43 47  1  0  0  0  0
 22 30  1  0  0  0  0
 22 31  1  0  0  0  0
 21 28  1  0  0  0  0
 21 29  1  0  0  0  0
 33 38  1  0  0  0  0
  8 13  1  0  0  0  0
 18 27  1  0  0  0  0
 42 44  1  0  0  0  0
  7 12  1  0  0  0  0
 32 37  1  0  0  0  0
 17 26  1  0  0  0  0
M  CHG  1  24  -1
M  END
$$$$

  -OEChem-05262214473D

 47 46  0     1  0  0  0  0  0999 V2000
    0.5093   -4.7265    3.0306 C   0  0  0  0  0  0  0  0  0  0  0  0
    1.2735   -4.4402    3.9448 O   0  0  0  0  0  0  0  0  0  0  0  0
   -0.4465   -5.8608    3.1982 C   0  0  0  0  0  0  0  0  0  0  0  0
   -0.0219   -6.8213    2.8645 H   0  0  0  0  0  0  0  0  0  0  0  0
   -0.7314   -6.0185    4.2509 H   0  0  0  0  0  0  0  0  0  0  0  0
   -1.3983   -5.7596    2.6527 H   0  0  0  0  0  0  0  0  0  0  0  0
    0.4252   -4.0886    1.8040 N   0  0  0  0  0  0  0  0  0  0  0  0
    1.2532   -2.9707    1.4349 C   0  0  2  0  0  0  0  0  0  0  0  0
    0.3395   -1.8293    1.0083 C   0  0  0  0  0  0  0  0  0  0  0  0
   -0.8136   -2.0027    0.6194 O   0  0  0  0  0  0  0  0  0  0  0  0
    2.2176   -3.3411    0.3189 C   0  0  0  0  0  0  0  0  0  0  0  0
   -0.2574   -4.4279    1.1287 H   0  0  0  0  0  0  0  0  0  0  0  0
    1.8087   -2.6785    2.3327 H   0  0  0  0  0  0  0  0  0  0  0  0
    1.6793   -3.6366   -0.5890 H   0  0  0  0  0  0  0  0  0  0  0  0
    2.8662   -2.4980    0.0589 H   0  0  0  0  0  0  0  0  0  0  0  0
    2.8538   -4.1816    0.6166 H   0  0  0  0  0  0  0  0  0  0  0  0
    0.9758   -0.5952    1.0708 N   0  0  0  0  0  0  0  0  0  0  0  0
    0.3258    0.6374    0.7059 C   0  0  2  0  0  0  0  0  0  0  0  0
   -0.9370    0.2777   -0.0698 C   0  0  0  0  0  0  0  0  0  0  0  0
   -2.0324    0.7857    0.1610 O   0  0  0  0  0  0  0  0  0  0  0  0
    1.2343    1.5368   -0.1408 C   0  0  0  0  0  0  0  0  0  0  0  0
    2.4433    2.0739    0.6241 C   0  0  0  0  0  0  0  0  0  0  0  0
    3.4066    2.9616   -0.1708 C   0  0  0  0  0  0  0  0  0  0  0  0
    3.1526    3.0273   -1.4080 O   0  5  0  0  0  0  0  0  0  0  0  0
    4.3197    3.5289    0.4902 O   0  0  0  0  0  0  0  0  0  0  0  0
    1.9288   -0.5463    1.4242 H   0  0  0  0  0  0  0  0  0  0  0  0
    0.0365    1.1288    1.6411 H   0  0  0  0  0  0  0  0  0  0  0  0
    0.6573    2.3765   -0.5478 H   0  0  0  0  0  0  0  0  0  0  0  0
    1.5971    0.9711   -1.0095 H   0  0  0  0  0  0  0  0  0  0  0  0
    2.1104    2.6157    1.5174 H   0  0  0  0  0  0  0  0  0  0  0  0
    3.0347    1.2204    0.9796 H   0  0  0  0  0  0  0  0  0  0  0  0
   -0.7040   -0.7101   -1.0166 N   0  0  0  0  0  0  0  0  0  0  0  0
   -1.7427   -1.2365   -1.8714 C   0  0  2  0  0  0  0  0  0  0  0  0
   -1.2595   -2.5666   -2.4344 C   0  0  0  0  0  0  0  0  0  0  0  0
   -0.0708   -2.8700   -2.5118 O   0  0  0  0  0  0  0  0  0  0  0  0
   -2.0841   -0.2646   -2.9902 C   0  0  0  0  0  0  0  0  0  0  0  0
    0.2396   -1.0620   -1.1484 H   0  0  0  0  0  0  0  0  0  0  0  0
   -2.6196   -1.4049   -1.2368 H   0  0  0  0  0  0  0  0  0  0  0  0
   -1.2176   -0.0836   -3.6367 H   0  0  0  0  0  0  0  0  0  0  0  0
   -2.8912   -0.6526   -3.6203 H   0  0  0  0  0  0  0  0  0  0  0  0
   -2.4030    0.7012   -2.5837 H   0  0  0  0  0  0  0  0  0  0  0  0
   -2.3096   -3.3571   -2.8799 N   0  0  0  0  0  0  0  0  0  0  0  0
   -2.1089   -4.6610   -3.4678 C   0  0  0  0  0  0  0  0  0  0  0  0
   -3.2648   -3.0337   -2.7588 H   0  0  0  0  0  0  0  0  0  0  0  0
   -2.0321   -4.5632   -4.5607 H   0  0  0  0  0  0  0  0  0  0  0  0
   -1.1817   -5.1022   -3.0732 H   0  0  0  0  0  0  0  0  0  0  0  0
   -2.9600   -5.3111   -3.2169 H   0  0  0  0  0  0  0  0  0  0  0  0
  1  3  1  0  0  0  0
  1  7  1  0  0  0  0
  1  2  2  0  0  0  0
 33 34  1  0  0  0  0
 34 42  1  0  0  0  0
 34 35  2  0  0  0  0
  8  9  1  0  0  0  0
  9 17  1  0  0  0  0
  9 10  2  0  0  0  0
 18 19  1  0  0  0  0
 19 32  1  0  0  0  0
 19 20  2  0  0  0  0
 22 23  1  0  0  0  0
 23 24  1  0  0  0  0
 23 25  2  0  0  0  0
 33 36  1  0  0  0  0
  8 11  1  0  0  0  0
 42 43  1  0  0  0  0
 21 22  1  0  0  0  0
 18 21  1  0  0  0  0
 32 33  1  0  0  0  0
  7  8  1  0  0  0  0
 17 18  1  0  0  0  0
  3  4  1  0  0  0  0
  3  5  1  0  0  0  0
  3  6  1  0  0  0  0
 36 39  1  0  0  0  0
 36 40  1  0  0  0  0
 36 41  1  0  0  0  0
 11 14  1  0  0  0  0
 11 15  1  0  0  0  0
 11 16  1  0  0  0  0
 43 45  1  0  0  0  0
 43 46  1  0  0  0  0
 43 47  1  0  0  0  0
 22 30  1  0  0  0  0
 22 31  1  0  0  0  0
 21 28  1  0  0  0  0
 21 29  1  0  0  0  0
 33 38  1  0  0  0  0
  8 13  1  0  0  0  0
 18 27  1  0  0  0  0
 42 44  1  0  0  0  0
  7 12  1  0  0  0  0
 32 37  1  0  0  0  0
 17 26  1  0  0  0  0
M  CHG  1  24  -1
M  END
$$$$

  -OEChem-05262214473D

 47 46  0     1  0  0  0  0  0999 V2000
    0.5093   -4.7265    3.0306 C   0  0  0  0  0  0  0  0  0  0  0  0
    1.2735   -4.4402    3.9448 O   0  0  0  0  0  0  0  0  0  0  0  0
   -0.4465   -5.8608    3.1982 C   0  0  0  0  0  0  0  0  0  0  0  0
   -0.0219   -6.8213    2.8645 H   0  0  0  0  0  0  0  0  0  0  0  0
   -0.7314   -6.0185    4.2509 H   0  0  0  0  0  0  0  0  0  0  0  0
   -1.3983   -5.7596    2.6527 H   0  0  0  0  0  0  0  0  0  0  0  0
    0.4252   -4.0886    1.8040 N   0  0  0  0  0  0  0  0  0  0  0  0
    1.2532   -2.9707    1.4349 C   0  0  2  0  0  0  0  0  0  0  0  0
    0.3395   -1.8293    1.0083 C   0  0  0  0  0  0  0  0  0  0  0  0
   -0.8136   -2.0027    0.6194 O   0  0  0  0  0  0  0  0  0  0  0  0
    2.2176   -3.3411    0.3189 C   0  0  0  0  0  0  0  0  0  0  0  0
   -0.2574   -4.4279    1.1287 H   0  0  0  0  0  0  0  0  0  0  0  0
    1.8087   -2.6785    2.3327 H   0  0  0  0  0  0  0  0  0  0  0  0
    1.6793   -3.6366   -0.5890 H   0  0  0  0  0  0  0  0  0  0  0  0
    2.8662   -2.4980    0.0589 H   0  0  0  0  0  0  0  0  0  0  0  0
    2.8538   -4.1816    0.6166 H   0  0  0  0  0  0  0  0  0  0  0  0
    0.9758   -0.5952    1.0708 N   0  0  0  0  0  0  0  0  0  0  0  0
    0.3258    0.6374    0.7059 C   0  0  2  0  0  0  0  0  0  0  0  0
   -0.9370    0.2777   -0.0698 C   0  0  0  0  0  0  0  0  0  0  0  0
   -1.9612    0.9567   -0.0342 O   0  0  0  0  0  0  0  0  0  0  0  0
    1.2343    1.5368   -0.1408 C   0  0  0  0  0  0  0  0  0  0  0  0
    2.4433    2.0739    0.6241 C   0  0  0  0  0  0  0  0  0  0  0  0
    3.4066    2.9616   -0.1708 C   0  0  0  0  0  0  0  0  0  0  0  0
    3.1526    3.0273   -1.4080 O   0  5  0  0  0  0  0  0  0  0  0  0
    4.3197    3.5289    0.4902 O   0  0  0  0  0  0  0  0  0  0  0  0
    1.9288   -0.5463    1.4242 H   0  0  0  0  0  0  0  0  0  0  0  0
    0.0365    1.1288    1.6411 H   0  0  0  0  0  0  0  0  0  0  0  0
    0.6573    2.3765   -0.5478 H   0  0  0  0  0  0  0  0  0  0  0  0
    1.5971    0.9711   -1.0095 H   0  0  0  0  0  0  0  0  0  0  0  0
    2.1104    2.6157    1.5174 H   0  0  0  0  0  0  0  0  0  0  0  0
    3.0347    1.2204    0.9796 H   0  0  0  0  0  0  0  0  0  0  0  0
   -0.7989   -0.9142   -0.7675 N   0  0  0  0  0  0  0  0  0  0  0  0
   -1.8594   -1.4805   -1.5684 C   0  0  2  0  0  0  0  0  0  0  0  0
   -1.5390   -2.9511   -1.8010 C   0  0  0  0  0  0  0  0  0  0  0  0
   -0.4014   -3.4103   -1.7231 O   0  0  0  0  0  0  0  0  0  0  0  0
   -2.0104   -0.7416   -2.8889 C   0  0  0  0  0  0  0  0  0  0  0  0
    0.0921   -1.4016   -0.7508 H   0  0  0  0  0  0  0  0  0  0  0  0
   -2.7798   -1.3953   -0.9804 H   0  0  0  0  0  0  0  0  0  0  0  0
   -1.0980   -0.8159   -3.4918 H   0  0  0  0  0  0  0  0  0  0  0  0
   -2.8332   -1.1538   -3.4824 H   0  0  0  0  0  0  0  0  0  0  0  0
   -2.2113    0.3218   -2.7197 H   0  0  0  0  0  0  0  0  0  0  0  0
   -2.6664   -3.6823   -2.1483 N   0  0  0  0  0  0  0  0  0  0  0  0
   -2.6208   -5.0977   -2.4321 C   0  0  0  0  0  0  0  0  0  0  0  0
   -3.5723   -3.2235   -2.1703 H   0  0  0  0  0  0  0  0  0  0  0  0
   -2.4802   -5.2513   -3.5122 H   0  0  0  0  0  0  0  0  0  0  0  0
   -1.7830   -5.5545   -1.8848 H   0  0  0  0  0  0  0  0  0  0  0  0
   -3.5644   -5.5657   -2.1150 H   0  0  0  0  0  0  0  0  0  0  0  0
  1  3  1  0  0  0  0
  1  7  1  0  0  0  0
  1  2  2  0  0  0  0
 33 34  1  0  0  0  0
 34 42  1  0  0  0  0
 34 35  2  0  0  0  0
  8  9  1  0  0  0  0
  9 17  1  0  0  0  0
  9 10  2  0  0  0  0
 18 19  1  0  0  0  0
 19 32  1  0  0  0  0
 19 20  2  0  0  0  0
 22 23  1  0  0  0  0
 23 24  1  0  0  0  0
 23 25  2  0  0  0  0
 33 36  1  0  0  0  0
  8 11  1  0  0  0  0
 42 43  1  0  0  0  0
 21 22  1  0  0  0  0
 18 21  1  0  0  0  0
 32 33  1  0  0  0  0
  7  8  1  0  0  0  0
 17 18  1  0  0  0  0
  3  4  1  0  0  0  0
  3  5  1  0  0  0  0
  3  6  1  0  0  0  0
 36 39  1  0  0  0  0
 36 40  1  0  0  0  0
 36 41  1  0  0  0  0
 11 14  1  0  0  0  0
 11 15  1  0  0  0  0
 11 16  1  0  0  0  0
 43 45  1  0  0  0  0
 43 46  1  0  0  0  0
 43 47  1  0  0  0  0
 22 30  1  0  0  0  0
 22 31  1  0  0  0  0
 21 28  1  0  0  0  0
 21 29  1  0  0  0  0
 33 38  1  0  0  0  0
  8 13  1  0  0  0  0
 18 27  1  0  0  0  0
 42 44  1  0  0  0  0
  7 12  1  0  0  0  0
 32 37  1  0  0  0  0
 17 26  1  0  0  0  0
M  CHG  1  24  -1
M  END
$$$$

  -OEChem-05262214473D

 47 46  0     1  0  0  0  0  0999 V2000
    0.5093   -4.7265    3.0306 C   0  0  0  0  0  0  0  0  0  0  0  0
    1.2735   -4.4402    3.9448 O   0  0  0  0  0  0  0  0  0  0  0  0
   -0.4465   -5.8608    3.1982 C   0  0  0  0  0  0  0  0  0  0  0  0
   -0.0219   -6.8213    2.8645 H   0  0  0  0  0  0  0  0  0  0  0  0
   -0.7314   -6.0185    4.2509 H   0  0  0  0  0  0  0  0  0  0  0  0
   -1.3983   -5.7596    2.6527 H   0  0  0  0  0  0  0  0  0  0  0  0
    0.4252   -4.0886    1.8040 N   0  0  0  0  0  0  0  0  0  0  0  0
    1.2532   -2.9707    1.4349 C   0  0  2  0  0  0  0  0  0  0  0  0
    0.3395   -1.8293    1.0083 C   0  0  0  0  0  0  0  0  0  0  0  0
   -0.8136   -2.0027    0.6194 O   0  0  0  0  0  0  0  0  0  0  0  0
    2.2176   -3.3411    0.3189 C   0  0  0  0  0  0  0  0  0  0  0  0
   -0.2574   -4.4279    1.1287 H   0  0  0  0  0  0  0  0  0  0  0  0
    1.8087   -2.6785    2.3327 H   0  0  0  0  0  0  0  0  0  0  0  0
    1.6793   -3.6366   -0.5890 H   0  0  0  0  0  0  0  0  0  0  0  0
    2.8662   -2.4980    0.0589 H   0  0  0  0  0  0  0  0  0  0  0  0
    2.8538   -4.1816    0.6166 H   0  0  0  0  0  0  0  0  0  0  0  0
    0.9758   -0.5952    1.0708 N   0  0  0  0  0  0  0  0  0  0  0  0
    0.3258    0.6374    0.7059 C   0  0  2  0  0  0  0  0  0  0  0  0
   -0.9370    0.2777   -0.0698 C   0  0  0  0  0  0  0  0  0  0  0  0
   -1.8580    1.0706   -0.2551 O   0  0  0  0  0  0  0  0  0  0  0  0
    1.2343    1.5368   -0.1408 C   0  0  0  0  0  0  0  0  0  0  0  0
    2.4433    2.0739    0.6241 C   0  0  0  0  0  0  0  0  0  0  0  0
    3.4066    2.9616   -0.1708 C   0  0  0  0  0  0  0  0  0  0  0  0
    3.1526    3.0273   -1.4080 O   0  5  0  0  0  0  0  0  0  0  0  0
    4.3197    3.5289    0.4902 O   0  0  0  0  0  0  0  0  0  0  0  0
    1.9288   -0.5463    1.4242 H   0  0  0  0  0  0  0  0  0  0  0  0
    0.0365    1.1288    1.6411 H   0  0  0  0  0  0  0  0  0  0  0  0
    0.6573    2.3765   -0.5478 H   0  0  0  0  0  0  0  0  0  0  0  0
    1.5971    0.9711   -1.0095 H   0  0  0  0  0  0  0  0  0  0  0  0
    2.1104    2.6157    1.5174 H   0  0  0  0  0  0  0  0  0  0  0  0
    3.0347    1.2204    0.9796 H   0  0  0  0  0  0  0  0  0  0  0  0
   -0.9327   -1.0455   -0.4889 N   0  0  0  0  0  0  0  0  0  0  0  0
   -2.0227   -1.6359   -1.2305 C   0  0  2  0  0  0  0  0  0  0  0  0
   -1.8983   -3.1501   -1.1239 C   0  0  0  0  0  0  0  0  0  0  0  0
   -0.8400   -3.7196   -0.8656 O   0  0  0  0  0  0  0  0  0  0  0  0
   -2.0083   -1.1903   -2.6844 C   0  0  0  0  0  0  0  0  0  0  0  0
   -0.1194   -1.6249   -0.3030 H   0  0  0  0  0  0  0  0  0  0  0  0
   -2.9489   -1.3100   -0.7447 H   0  0  0  0  0  0  0  0  0  0  0  0
   -1.0878   -1.5079   -3.1877 H   0  0  0  0  0  0  0  0  0  0  0  0
   -2.8515   -1.6160   -3.2383 H   0  0  0  0  0  0  0  0  0  0  0  0
   -2.0679   -0.0991   -2.7582 H   0  0  0  0  0  0  0  0  0  0  0  0
   -3.0985   -3.7926   -1.3937 N   0  0  0  0  0  0  0  0  0  0  0  0
   -3.2359   -5.2302   -1.3693 C   0  0  0  0  0  0  0  0  0  0  0  0
   -3.9302   -3.2401   -1.5799 H   0  0  0  0  0  0  0  0  0  0  0  0
   -3.0677   -5.6323   -2.3793 H   0  0  0  0  0  0  0  0  0  0  0  0
   -2.4958   -5.6574   -0.6767 H   0  0  0  0  0  0  0  0  0  0  0  0
   -4.2489   -5.4959   -1.0331 H   0  0  0  0  0  0  0  0  0  0  0  0
  1  3  1  0  0  0  0
  1  7  1  0  0  0  0
  1  2  2  0  0  0  0
 33 34  1  0  0  0  0
 34 42  1  0  0  0  0
 34 35  2  0  0  0  0
  8  9  1  0  0  0  0
  9 17  1  0  0  0  0
  9 10  2  0  0  0  0
 18 19  1  0  0  0  0
 19 32  1  0  0  0  0
 19 20  2  0  0  0  0
 22 23  1  0  0  0  0
 23 24  1  0  0  0  0
 23 25  2  0  0  0  0
 33 36  1  0  0  0  0
  8 11  1  0  0  0  0
 42 43  1  0  0  0  0
 21 22  1  0  0  0  0
 18 21  1  0  0  0  0
 32 33  1  0  0  0  0
  7  8  1  0  0  0  0
 17 18  1  0  0  0  0
  3  4  1  0  0  0  0
  3  5  1  0  0  0  0
  3  6  1  0  0  0  0
 36 39  1  0  0  0  0
 36 40  1  0  0  0  0
 36 41  1  0  0  0  0
 11 14  1  0  0  0  0
 11 15  1  0  0  0  0
 11 16  1  0  0  0  0
 43 45  1  0  0  0  0
 43 46  1  0  0  0  0
 43 47  1  0  0  0  0
 22 30  1  0  0  0  0
 22 31  1  0  0  0  0
 21 28  1  0  0  0  0
 21 29  1  0  0  0  0
 33 38  1  0  0  0  0
  8 13  1  0  0  0  0
 18 27  1  0  0  0  0
 42 44  1  0  0  0  0
  7 12  1  0  0  0  0
 32 37  1  0  0  0  0
 17 26  1  0  0  0  0
M  CHG  1  24  -1
M  END
$$$$

  -OEChem-05262214473D

 47 46  0     1  0  0  0  0  0999 V2000
    0.5093   -4.7265    3.0306 C   0  0  0  0  0  0  0  0  0  0  0  0
    1.2735   -4.4402    3.9448 O   0  0  0  0  0  0  0  0  0  0  0  0
   -0.4465   -5.8608    3.1982 C   0  0  0  0  0  0  0  0  0  0  0  0
   -0.0219   -6.8213    2.8645 H   0  0  0  0  0  0  0  0  0  0  0  0
   -0.7314   -6.0185    4.2509 H   0  0  0  0  0  0  0  0  0  0  0  0
   -1.3983   -5.7596    2.6527 H   0  0  0  0  0  0  0  0  0  0  0  0
    0.4252   -4.0886    1.8040 N   0  0  0  0  0  0  0  0  0  0  0  0
    1.2532   -2.9707    1.4349 C   0  0  2  0  0  0  0  0  0  0  0  0
    0.3395   -1.8293    1.0083 C   0  0  0  0  0  0  0  0  0  0  0  0
   -0.8136   -2.0027    0.6194 O   0  0  0  0  0  0  0  0  0  0  0  0
    2.2176   -3.3411    0.3189 C   0  0  0  0  0  0  0  0  0  0  0  0
   -0.2574   -4.4279    1.1287 H   0  0  0  0  0  0  0  0  0  0  0  0
    1.8087   -2.6785    2.3327 H   0  0  0  0  0  0  0  0  0  0  0  0
    1.6793   -3.6366   -0.5890 H   0  0  0  0  0  0  0  0  0  0  0  0
    2.8662   -2.4980    0.0589 H   0  0  0  0  0  0  0  0  0  0  0  0
    2.8538   -4.1816    0.6166 H   0  0  0  0  0  0  0  0  0  0  0  0
    0.9758   -0.5952    1.0708 N   0  0  0  0  0  0  0  0  0  0  0  0
    0.3258    0.6374    0.7059 C   0  0  2  0  0  0  0  0  0  0  0  0
   -0.9370    0.2777   -0.0698 C   0  0  0  0  0  0  0  0  0  0  0  0
   -1.7298    1.1198   -0.4865 O   0  0  0  0  0  0  0  0  0  0  0  0
    1.2343    1.5368   -0.1408 C   0  0  0  0  0  0  0  0  0  0  0  0
    2.4433    2.0739    0.6241 C   0  0  0  0  0  0  0  0  0  0  0  0
    3.4066    2.9616   -0.1708 C   0  0  0  0  0  0  0  0  0  0  0  0
    3.1526    3.0273   -1.4080 O   0  5  0  0  0  0  0  0  0  0  0  0
    4.3197    3.5289    0.4902 O   0  0  0  0  0  0  0  0  0  0  0  0
    1.9288   -0.5463    1.4242 H   0  0  0  0  0  0  0  0  0  0  0  0
    0.0365    1.1288    1.6411 H   0  0  0  0  0  0  0  0  0  0  0  0
    0.6573    2.3765   -0.5478 H   0  0  0  0  0  0  0  0  0  0  0  0
    1.5971    0.9711   -1.0095 H   0  0  0  0  0  0  0  0  0  0  0  0
    2.1104    2.6157    1.5174 H   0  0  0  0  0  0  0  0  0  0  0  0
    3.0347    1.2204    0.9796 H   0  0  0  0  0  0  0  0  0  0  0  0
   -1.0962   -1.0950   -0.1998 N   0  0  0  0  0  0  0  0  0  0  0  0
   -2.2216   -1.6921   -0.8807 C   0  0  2  0  0  0  0  0  0  0  0  0
   -2.3129   -3.1498   -0.4492 C   0  0  0  0  0  0  0  0  0  0  0  0
   -1.3567   -3.7769    0.0021 O   0  0  0  0  0  0  0  0  0  0  0  0
   -2.0778   -1.5802   -2.3905 C   0  0  0  0  0  0  0  0  0  0  0  0
   -0.3804   -1.7168    0.1645 H   0  0  0  0  0  0  0  0  0  0  0  0
   -3.1154   -1.1548   -0.5456 H   0  0  0  0  0  0  0  0  0  0  0  0
   -1.1875   -2.1125   -2.7449 H   0  0  0  0  0  0  0  0  0  0  0  0
   -2.9450   -2.0077   -2.9045 H   0  0  0  0  0  0  0  0  0  0  0  0
   -1.9823   -0.5327   -2.6963 H   0  0  0  0  0  0  0  0  0  0  0  0
   -3.5765   -3.6806   -0.6676 N   0  0  0  0  0  0  0  0  0  0  0  0
   -3.9124   -5.0494   -0.3519 C   0  0  0  0  0  0  0  0  0  0  0  0
   -4.3142   -3.0826   -1.0279 H   0  0  0  0  0  0  0  0  0  0  0  0
   -3.7544   -5.6802   -1.2392 H   0  0  0  0  0  0  0  0  0  0  0  0
   -3.2716   -5.4041    0.4688 H   0  0  0  0  0  0  0  0  0  0  0  0
   -4.9670   -5.1065   -0.0447 H   0  0  0  0  0  0  0  0  0  0  0  0
  1  3  1  0  0  0  0
  1  7  1  0  0  0  0
  1  2  2  0  0  0  0
 33 34  1  0  0  0  0
 34 42  1  0  0  0  0
 34 35  2  0  0  0  0
  8  9  1  0  0  0  0
  9 17  1  0  0  0  0
  9 10  2  0  0  0  0
 18 19  1  0  0  0  0
 19 32  1  0  0  0  0
 19 20  2  0  0  0  0
 22 23  1  0  0  0  0
 23 24  1  0  0  0  0
 23 25  2  0  0  0  0
 33 36  1  0  0  0  0
  8 11  1  0  0  0  0
 42 43  1  0  0  0  0
 21 22  1  0  0  0  0
 18 21  1  0  0  0  0
 32 33  1  0  0  0  0
  7  8  1  0  0  0  0
 17 18  1  0  0  0  0
  3  4  1  0  0  0  0
  3  5  1  0  0  0  0
  3  6  1  0  0  0  0
 36 39  1  0  0  0  0
 36 40  1  0  0  0  0
 36 41  1  0  0  0  0
 11 14  1  0  0  0  0
 11 15  1  0  0  0  0
 11 16  1  0  0  0  0
 43 45  1  0  0  0  0
 43 46  1  0  0  0  0
 43 47  1  0  0  0  0
 22 30  1  0  0  0  0
 22 31  1  0  0  0  0
 21 28  1  0  0  0  0
 21 29  1  0  0  0  0
 33 38  1  0  0  0  0
  8 13  1  0  0  0  0
 18 27  1  0  0  0  0
 42 44  1  0  0  0  0
  7 12  1  0  0  0  0
 32 37  1  0  0  0  0
 17 26  1  0  0  0  0
M  CHG  1  24  -1
M  END
$$$$

  -OEChem-05262214473D

 47 46  0     1  0  0  0  0  0999 V2000
    0.5093   -4.7265    3.0306 C   0  0  0  0  0  0  0  0  0  0  0  0
    1.2735   -4.4402    3.9448 O   0  0  0  0  0  0  0  0  0  0  0  0
   -0.4465   -5.8608    3.1982 C   0  0  0  0  0  0  0  0  0  0  0  0
   -0.0219   -6.8213    2.8645 H   0  0  0  0  0  0  0  0  0  0  0  0
   -0.7314   -6.0185    4.2509 H   0  0  0  0  0  0  0  0  0  0  0  0
   -1.3983   -5.7596    2.6527 H   0  0  0  0  0  0  0  0  0  0  0  0
    0.4252   -4.0886    1.8040 N   0  0  0  0  0  0  0  0  0  0  0  0
    1.2532   -2.9707    1.4349 C   0  0  2  0  0  0  0  0  0  0  0  0
    0.3395   -1.8293    1.0083 C   0  0  0  0  0  0  0  0  0  0  0  0
   -0.8136   -2.0027    0.6194 O   0  0  0  0  0  0  0  0  0  0  0  0
    2.2176   -3.3411    0.3189 C   0  0  0  0  0  0  0  0  0  0  0  0
   -0.2574   -4.4279    1.1287 H   0  0  0  0  0  0  0  0  0  0  0  0
    1.8087   -2.6785    2.3327 H   0  0  0  0  0  0  0  0  0  0  0  0
    1.6793   -3.6366   -0.5890 H   0  0  0  0  0  0  0  0  0  0  0  0
    2.8662   -2.4980    0.0589 H   0  0  0  0  0  0  0  0  0  0  0  0
    2.8538   -4.1816    0.6166 H   0  0  0  0  0  0  0  0  0  0  0  0
    0.9758   -0.5952    1.0708 N   0  0  0  0  0  0  0  0  0  0  0  0
    0.3258    0.6374    0.7059 C   0  0  2  0  0  0  0  0  0  0  0  0
   -0.9370    0.2777   -0.0698 C   0  0  0  0  0  0  0  0  0  0  0  0
   -1.5854    1.1008   -0.7128 O   0  0  0  0  0  0  0  0  0  0  0  0
    1.2343    1.5368   -0.1408 C   0  0  0  0  0  0  0  0  0  0  0  0
    2.4433    2.0739    0.6241 C   0  0  0  0  0  0  0  0  0  0  0  0
    3.4066    2.9616   -0.1708 C   0  0  0  0  0  0  0  0  0  0  0  0
    3.1526    3.0273   -1.4080 O   0  5  0  0  0  0  0  0  0  0  0  0
    4.3197    3.5289    0.4902 O   0  0  0  0  0  0  0  0  0  0  0  0
    1.9288   -0.5463    1.4242 H   0  0  0  0  0  0  0  0  0  0  0  0
    0.0365    1.1288    1.6411 H   0  0  0  0  0  0  0  0  0  0  0  0
    0.6573    2.3765   -0.5478 H   0  0  0  0  0  0  0  0  0  0  0  0
    1.5971    0.9711   -1.0095 H   0  0  0  0  0  0  0  0  0  0  0  0
    2.1104    2.6157    1.5174 H   0  0  0  0  0  0  0  0  0  0  0  0
    3.0347    1.2204    0.9796 H   0  0  0  0  0  0  0  0  0  0  0  0
   -1.2783   -1.0593    0.0800 N   0  0  0  0  0  0  0  0  0  0  0  0
   -2.4424   -1.6453   -0.5430 C   0  0  2  0  0  0  0  0  0  0  0  0
   -2.7545   -2.9504    0.1772 C   0  0  0  0  0  0  0  0  0  0  0  0
   -1.9164   -3.5783    0.8210 O   0  0  0  0  0  0  0  0  0  0  0  0
   -2.2141   -1.8846   -2.0273 C   0  0  0  0  0  0  0  0  0  0  0  0
   -0.6732   -1.6710    0.6198 H   0  0  0  0  0  0  0  0  0  0  0  0
   -3.2680   -0.9403   -0.3967 H   0  0  0  0  0  0  0  0  0  0  0  0
   -1.3905   -2.5885   -2.1938 H   0  0  0  0  0  0  0  0  0  0  0  0
   -3.1072   -2.3023   -2.5038 H   0  0  0  0  0  0  0  0  0  0  0  0
   -1.9606   -0.9496   -2.5384 H   0  0  0  0  0  0  0  0  0  0  0  0
   -4.0678   -3.3539   -0.0193 N   0  0  0  0  0  0  0  0  0  0  0  0
   -4.6041   -4.5677    0.5507 C   0  0  0  0  0  0  0  0  0  0  0  0
   -4.6980   -2.7616   -0.5520 H   0  0  0  0  0  0  0  0  0  0  0  0
   -4.4936   -5.3917   -0.1696 H   0  0  0  0  0  0  0  0  0  0  0  0
   -4.0576   -4.8119    1.4736 H   0  0  0  0  0  0  0  0  0  0  0  0
   -5.6697   -4.4240    0.7827 H   0  0  0  0  0  0  0  0  0  0  0  0
  1  3  1  0  0  0  0
  1  7  1  0  0  0  0
  1  2  2  0  0  0  0
 33 34  1  0  0  0  0
 34 42  1  0  0  0  0
 34 35  2  0  0  0  0
  8  9  1  0  0  0  0
  9 17  1  0  0  0  0
  9 10  2  0  0  0  0
 18 19  1  0  0  0  0
 19 32  1  0  0  0  0
 19 20  2  0  0  0  0
 22 23  1  0  0  0  0
 23 24  1  0  0  0  0
 23 25  2  0  0  0  0
 33 36  1  0  0  0  0
  8 11  1  0  0  0  0
 42 43  1  0  0  0  0
 21 22  1  0  0  0  0
 18 21  1  0  0  0  0
 32 33  1  0  0  0  0
  7  8  1  0  0  0  0
 17 18  1  0  0  0  0
  3  4  1  0  0  0  0
  3  5  1  0  0  0  0
  3  6  1  0  0  0  0
 36 39  1  0  0  0  0
 36 40  1  0  0  0  0
 36 41  1  0  0  0  0
 11 14  1  0  0  0  0
 11 15  1  0  0  0  0
 11 16  1  0  0  0  0
 43 45  1  0  0  0  0
 43 46  1  0  0  0  0
 43 47  1  0  0  0  0
 22 30  1  0  0  0  0
 22 31  1  0  0  0  0
 21 28  1  0  0  0  0
 21 29  1  0  0  0  0
 33 38  1  0  0  0  0
  8 13  1  0  0  0  0
 18 27  1  0  0  0  0
 42 44  1  0  0  0  0
  7 12  1  0  0  0  0
 32 37  1  0  0  0  0
 17 26  1  0  0  0  0
M  CHG  1  24  -1
M  END
$$$$

  -OEChem-05262214473D

 47 46  0     1  0  0  0  0  0999 V2000
    0.5093   -4.7265    3.0306 C   0  0  0  0  0  0  0  0  0  0  0  0
    1.2735   -4.4402    3.9448 O   0  0  0  0  0  0  0  0  0  0  0  0
   -0.4465   -5.8608    3.1982 C   0  0  0  0  0  0  0  0  0  0  0  0
   -0.0219   -6.8213    2.8645 H   0  0  0  0  0  0  0  0  0  0  0  0
   -0.7314   -6.0185    4.2509 H   0  0  0  0  0  0  0  0  0  0  0  0
   -1.3983   -5.7596    2.6527 H   0  0  0  0  0  0  0  0  0  0  0  0
    0.4252   -4.0886    1.8040 N   0  0  0  0  0  0  0  0  0  0  0  0
    1.2532   -2.9707    1.4349 C   0  0  2  0  0  0  0  0  0  0  0  0
    0.3395   -1.8293    1.0083 C   0  0  0  0  0  0  0  0  0  0  0  0
   -0.8136   -2.0027    0.6194 O   0  0  0  0  0  0  0  0  0  0  0  0
    2.2176   -3.3411    0.3189 C   0  0  0  0  0  0  0  0  0  0  0  0
   -0.2574   -4.4279    1.1287 H   0  0  0  0  0  0  0  0  0  0  0  0
    1.8087   -2.6785    2.3327 H   0  0  0  0  0  0  0  0  0  0  0  0
    1.6793   -3.6366   -0.5890 H   0  0  0  0  0  0  0  0  0  0  0  0
    2.8662   -2.4980    0.0589 H   0  0  0  0  0  0  0  0  0  0  0  0
    2.8538   -4.1816    0.6166 H   0  0  0  0  0  0  0  0  0  0  0  0
    0.9758   -0.5952    1.0708 N   0  0  0  0  0  0  0  0  0  0  0  0
    0.3258    0.6374    0.7059 C   0  0  2  0  0  0  0  0  0  0  0  0
   -0.9370    0.2777   -0.0698 C   0  0  0  0  0  0  0  0  0  0  0  0
   -1.4346    1.0149   -0.9185 O   0  0  0  0  0  0  0  0  0  0  0  0
    1.2343    1.5368   -0.1408 C   0  0  0  0  0  0  0  0  0  0  0  0
    2.4433    2.0739    0.6241 C   0  0  0  0  0  0  0  0  0  0  0  0
    3.4066    2.9616   -0.1708 C   0  0  0  0  0  0  0  0  0  0  0  0
    3.1526    3.0273   -1.4080 O   0  5  0  0  0  0  0  0  0  0  0  0
    4.3197    3.5289    0.4902 O   0  0  0  0  0  0  0  0  0  0  0  0
    1.9288   -0.5463    1.4242 H   0  0  0  0  0  0  0  0  0  0  0  0
    0.0365    1.1288    1.6411 H   0  0  0  0  0  0  0  0  0  0  0  0
    0.6573    2.3765   -0.5478 H   0  0  0  0  0  0  0  0  0  0  0  0
    1.5971    0.9711   -1.0095 H   0  0  0  0  0  0  0  0  0  0  0  0
    2.1104    2.6157    1.5174 H   0  0  0  0  0  0  0  0  0  0  0  0
    3.0347    1.2204    0.9796 H   0  0  0  0  0  0  0  0  0  0  0  0
   -1.4665   -0.9409    0.3316 N   0  0  0  0  0  0  0  0  0  0  0  0
   -2.6701   -1.4986   -0.2403 C   0  0  2  0  0  0  0  0  0  0  0  0
   -3.1930   -2.5654    0.7125 C   0  0  0  0  0  0  0  0  0  0  0  0
   -2.4808   -3.1372    1.5353 O   0  0  0  0  0  0  0  0  0  0  0  0
   -2.4081   -2.0829   -1.6196 C   0  0  0  0  0  0  0  0  0  0  0  0
   -0.9777   -1.4907    1.0319 H   0  0  0  0  0  0  0  0  0  0  0  0
   -3.3962   -0.6811   -0.3081 H   0  0  0  0  0  0  0  0  0  0  0  0
   -1.6829   -2.9035   -1.5718 H   0  0  0  0  0  0  0  0  0  0  0  0
   -3.3271   -2.4796   -2.0636 H   0  0  0  0  0  0  0  0  0  0  0  0
   -2.0041   -1.3213   -2.2953 H   0  0  0  0  0  0  0  0  0  0  0  0
   -4.5388   -2.8346    0.5068 N   0  0  0  0  0  0  0  0  0  0  0  0
   -5.2639   -3.8179    1.2772 C   0  0  0  0  0  0  0  0  0  0  0  0
   -5.0556   -2.2989   -0.1844 H   0  0  0  0  0  0  0  0  0  0  0  0
   -5.2350   -4.7865    0.7566 H   0  0  0  0  0  0  0  0  0  0  0  0
   -4.8001   -3.9209    2.2693 H   0  0  0  0  0  0  0  0  0  0  0  0
   -6.3091   -3.4950    1.3927 H   0  0  0  0  0  0  0  0  0  0  0  0
  1  3  1  0  0  0  0
  1  7  1  0  0  0  0
  1  2  2  0  0  0  0
 33 34  1  0  0  0  0
 34 42  1  0  0  0  0
 34 35  2  0  0  0  0
  8  9  1  0  0  0  0
  9 17  1  0  0  0  0
  9 10  2  0  0  0  0
 18 19  1  0  0  0  0
 19 32  1  0  0  0  0
 19 20  2  0  0  0  0
 22 23  1  0  0  0  0
 23 24  1  0  0  0  0
 23 25  2  0  0  0  0
 33 36  1  0  0  0  0
  8 11  1  0  0  0  0
 42 43  1  0  0  0  0
 21 22  1  0  0  0  0
 18 21  1  0  0  0  0
 32 33  1  0  0  0  0
  7  8  1  0  0  0  0
 17 18  1  0  0  0  0
  3  4  1  0  0  0  0
  3  5  1  0  0  0  0
  3  6  1  0  0  0  0
 36 39  1  0  0  0  0
 36 40  1  0  0  0  0
 36 41  1  0  0  0  0
 11 14  1  0  0  0  0
 11 15  1  0  0  0  0
 11 16  1  0  0  0  0
 43 45  1  0  0  0  0
 43 46  1  0  0  0  0
 43 47  1  0  0  0  0
 22 30  1  0  0  0  0
 22 31  1  0  0  0  0
 21 28  1  0  0  0  0
 21 29  1  0  0  0  0
 33 38  1  0  0  0  0
  8 13  1  0  0  0  0
 18 27  1  0  0  0  0
 42 44  1  0  0  0  0
  7 12  1  0  0  0  0
 32 37  1  0  0  0  0
 17 26  1  0  0  0  0
M  CHG  1  24  -1
M  END
$$$$

  -OEChem-05262214473D

 47 46  0     1  0  0  0  0  0999 V2000
    0.5093   -4.7265    3.0306 C   0  0  0  0  0  0  0  0  0  0  0  0
    1.2735   -4.4402    3.9448 O   0  0  0  0  0  0  0  0  0  0  0  0
   -0.4465   -5.8608    3.1982 C   0  0  0  0  0  0  0  0  0  0  0  0
   -0.0219   -6.8213    2.8645 H   0  0  0  0  0  0  0  0  0  0  0  0
   -0.7314   -6.0185    4.2509 H   0  0  0  0  0  0  0  0  0  0  0  0
   -1.3983   -5.7596    2.6527 H   0  0  0  0  0  0  0  0  0  0  0  0
    0.4252   -4.0886    1.8040 N   0  0  0  0  0  0  0  0  0  0  0  0
    1.2532   -2.9707    1.4349 C   0  0  2  0  0  0  0  0  0  0  0  0
    0.3395   -1.8293    1.0083 C   0  0  0  0  0  0  0  0  0  0  0  0
   -0.8136   -2.0027    0.6194 O   0  0  0  0  0  0  0  0  0  0  0  0
    2.2176   -3.3411    0.3189 C   0  0  0  0  0  0  0  0  0  0  0  0
   -0.2574   -4.4279    1.1287 H   0  0  0  0  0  0  0  0  0  0  0  0
    1.8087   -2.6785    2.3327 H   0  0  0  0  0  0  0  0  0  0  0  0
    1.6793   -3.6366   -0.5890 H   0  0  0  0  0  0  0  0  0  0  0  0
    2.8662   -2.4980    0.0589 H   0  0  0  0  0  0  0  0  0  0  0  0
    2.8538   -4.1816    0.6166 H   0  0  0  0  0  0  0  0  0  0  0  0
    0.9758   -0.5952    1.0708 N   0  0  0  0  0  0  0  0  0  0  0  0
    0.3258    0.6374    0.7059 C   0  0  2  0  0  0  0  0  0  0  0  0
   -0.9370    0.2777   -0.0698 C   0  0  0  0  0  0  0  0  0  0  0  0
   -1.2876    0.8680   -1.0895 O   0  0  0  0  0  0  0  0  0  0  0  0
    1.2343    1.5368   -0.1408 C   0  0  0  0  0  0  0  0  0  0  0  0
    2.4433    2.0739    0.6241 C   0  0  0  0  0  0  0  0  0  0  0  0
    3.4066    2.9616   -0.1708 C   0  0  0  0  0  0  0  0  0  0  0  0
    3.1526    3.0273   -1.4080 O   0  5  0  0  0  0  0  0  0  0  0  0
    4.3197    3.5289    0.4902 O   0  0  0  0  0  0  0  0  0  0  0  0
    1.9288   -0.5463    1.4242 H   0  0  0  0  0  0  0  0  0  0  0  0
    0.0365    1.1288    1.6411 H   0  0  0  0  0  0  0  0  0  0  0  0
    0.6573    2.3765   -0.5478 H   0  0  0  0  0  0  0  0  0  0  0  0
    1.5971    0.9711   -1.0095 H   0  0  0  0  0  0  0  0  0  0  0  0
    2.1104    2.6157    1.5174 H   0  0  0  0  0  0  0  0  0  0  0  0
    3.0347    1.2204    0.9796 H   0  0  0  0  0  0  0  0  0  0  0  0
   -1.6481   -0.7478    0.5377 N   0  0  0  0  0  0  0  0  0  0  0  0
   -2.8893   -1.2620    0.0067 C   0  0  2  0  0  0  0  0  0  0  0  0
   -3.5986   -2.0211    1.1204 C   0  0  0  0  0  0  0  0  0  0  0  0
   -3.0115   -2.4838    2.0962 O   0  0  0  0  0  0  0  0  0  0  0  0
   -2.6465   -2.1616   -1.1951 C   0  0  0  0  0  0  0  0  0  0  0  0
   -1.2733   -1.1881    1.3728 H   0  0  0  0  0  0  0  0  0  0  0  0
   -3.4914   -0.3949   -0.2860 H   0  0  0  0  0  0  0  0  0  0  0  0
   -2.0448   -3.0359   -0.9213 H   0  0  0  0  0  0  0  0  0  0  0  0
   -3.5898   -2.5275   -1.6138 H   0  0  0  0  0  0  0  0  0  0  0  0
   -2.1099   -1.6225   -1.9834 H   0  0  0  0  0  0  0  0  0  0  0  0
   -4.9576   -2.1583    0.8749 N   0  0  0  0  0  0  0  0  0  0  0  0
   -5.8469   -2.8510    1.7779 C   0  0  0  0  0  0  0  0  0  0  0  0
   -5.3625   -1.7262    0.0496 H   0  0  0  0  0  0  0  0  0  0  0  0
   -5.9279   -3.9058    1.4763 H   0  0  0  0  0  0  0  0  0  0  0  0
   -5.4487   -2.7921    2.8016 H   0  0  0  0  0  0  0  0  0  0  0  0
   -6.8416   -2.3826    1.7439 H   0  0  0  0  0  0  0  0  0  0  0  0
  1  3  1  0  0  0  0
  1  7  1  0  0  0  0
  1  2  2  0  0  0  0
 33 34  1  0  0  0  0
 34 42  1  0  0  0  0
 34 35  2  0  0  0  0
  8  9  1  0  0  0  0
  9 17  1  0  0  0  0
  9 10  2  0  0  0  0
 18 19  1  0  0  0  0
 19 32  1  0  0  0  0
 19 20  2  0  0  0  0
 22 23  1  0  0  0  0
 23 24  1  0  0  0  0
 23 25  2  0  0  0  0
 33 36  1  0  0  0  0
  8 11  1  0  0  0  0
 42 43  1  0  0  0  0
 21 22  1  0  0  0  0
 18 21  1  0  0  0  0
 32 33  1  0  0  0  0
  7  8  1  0  0  0  0
 17 18  1  0  0  0  0
  3  4  1  0  0  0  0
  3  5  1  0  0  0  0
  3  6  1  0  0  0  0
 36 39  1  0  0  0  0
 36 40  1  0  0  0  0
 36 41  1  0  0  0  0
 11 14  1  0  0  0  0
 11 15  1  0  0  0  0
 11 16  1  0  0  0  0
 43 45  1  0  0  0  0
 43 46  1  0  0  0  0
 43 47  1  0  0  0  0
 22 30  1  0  0  0  0
 22 31  1  0  0  0  0
 21 28  1  0  0  0  0
 21 29  1  0  0  0  0
 33 38  1  0  0  0  0
  8 13  1  0  0  0  0
 18 27  1  0  0  0  0
 42 44  1  0  0  0  0
  7 12  1  0  0  0  0
 32 37  1  0  0  0  0
 17 26  1  0  0  0  0
M  CHG  1  24  -1
M  END
$$$$

  -OEChem-05262214473D

 47 46  0     1  0  0  0  0  0999 V2000
    0.5093   -4.7265    3.0306 C   0  0  0  0  0  0  0  0  0  0  0  0
    1.2735   -4.4402    3.9448 O   0  0  0  0  0  0  0  0  0  0  0  0
   -0.4465   -5.8608    3.1982 C   0  0  0  0  0  0  0  0  0  0  0  0
   -0.0219   -6.8213    2.8645 H   0  0  0  0  0  0  0  0  0  0  0  0
   -0.7314   -6.0185    4.2509 H   0  0  0  0  0  0  0  0  0  0  0  0
   -1.3983   -5.7596    2.6527 H   0  0  0  0  0  0  0  0  0  0  0  0
    0.4252   -4.0886    1.8040 N   0  0  0  0  0  0  0  0  0  0  0  0
    1.2532   -2.9707    1.4349 C   0  0  2  0  0  0  0  0  0  0  0  0
    0.3395   -1.8293    1.0083 C   0  0  0  0  0  0  0  0  0  0  0  0
   -0.8136   -2.0027    0.6194 O   0  0  0  0  0  0  0  0  0  0  0  0
    2.2176   -3.3411    0.3189 C   0  0  0  0  0  0  0  0  0  0  0  0
   -0.2574   -4.4279    1.1287 H   0  0  0  0  0  0  0  0  0  0  0  0
    1.8087   -2.6785    2.3327 H   0  0  0  0  0  0  0  0  0  0  0  0
    1.6793   -3.6366   -0.5890 H   0  0  0  0  0  0  0  0  0  0  0  0
    2.8662   -2.4980    0.0589 H   0  0  0  0  0  0  0  0  0  0  0  0
    2.8538   -4.1816    0.6166 H   0  0  0  0  0  0  0  0  0  0  0  0
    0.9758   -0.5952    1.0708 N   0  0  0  0  0  0  0  0  0  0  0  0
    0.3258    0.6374    0.7059 C   0  0  2  0  0  0  0  0  0  0  0  0
   -0.9370    0.2777   -0.0698 C   0  0  0  0  0  0  0  0  0  0  0  0
   -1.1546    0.6702   -1.2143 O   0  0  0  0  0  0  0  0  0  0  0  0
    1.2343    1.5368   -0.1408 C   0  0  0  0  0  0  0  0  0  0  0  0
    2.4433    2.0739    0.6241 C   0  0  0  0  0  0  0  0  0  0  0  0
    3.4066    2.9616   -0.1708 C   0  0  0  0  0  0  0  0  0  0  0  0
    3.1526    3.0273   -1.4080 O   0  5  0  0  0  0  0  0  0  0  0  0
    4.3197    3.5289    0.4902 O   0  0  0  0  0  0  0  0  0  0  0  0
    1.9288   -0.5463    1.4242 H   0  0  0  0  0  0  0  0  0  0  0  0
    0.0365    1.1288    1.6411 H   0  0  0  0  0  0  0  0  0  0  0  0
    0.6573    2.3765   -0.5478 H   0  0  0  0  0  0  0  0  0  0  0  0
    1.5971    0.9711   -1.0095 H   0  0  0  0  0  0  0  0  0  0  0  0
    2.1104    2.6157    1.5174 H   0  0  0  0  0  0  0  0  0  0  0  0
    3.0347    1.2204    0.9796 H   0  0  0  0  0  0  0  0  0  0  0  0
   -1.8107   -0.4933    0.6843 N   0  0  0  0  0  0  0  0  0  0  0  0
   -3.0849   -0.9517    0.1813 C   0  0  2  0  0  0  0  0  0  0  0  0
   -3.9436   -1.3545    1.3729 C   0  0  0  0  0  0  0  0  0  0  0  0
   -3.4723   -1.6626    2.4656 O   0  0  0  0  0  0  0  0  0  0  0  0
   -2.9130   -2.1152   -0.7828 C   0  0  0  0  0  0  0  0  0  0  0  0
   -1.5398   -0.7838    1.6191 H   0  0  0  0  0  0  0  0  0  0  0  0
   -3.5469   -0.1012   -0.3317 H   0  0  0  0  0  0  0  0  0  0  0  0
   -2.4514   -2.9768   -0.2868 H   0  0  0  0  0  0  0  0  0  0  0  0
   -3.8773   -2.4429   -1.1851 H   0  0  0  0  0  0  0  0  0  0  0  0
   -2.2708   -1.8327   -1.6240 H   0  0  0  0  0  0  0  0  0  0  0  0
   -5.2956   -1.3710    1.0600 N   0  0  0  0  0  0  0  0  0  0  0  0
   -6.3133   -1.7331    2.0188 C   0  0  0  0  0  0  0  0  0  0  0  0
   -5.5978   -1.0825    0.1342 H   0  0  0  0  0  0  0  0  0  0  0  0
   -6.5253   -2.8096    1.9404 H   0  0  0  0  0  0  0  0  0  0  0  0
   -5.9590   -1.5023    3.0342 H   0  0  0  0  0  0  0  0  0  0  0  0
   -7.2310   -1.1629    1.8121 H   0  0  0  0  0  0  0  0  0  0  0  0
  1  3  1  0  0  0  0
  1  7  1  0  0  0  0
  1  2  2  0  0  0  0
 33 34  1  0  0  0  0
 34 42  1  0  0  0  0
 34 35  2  0  0  0  0
  8  9  1  0  0  0  0
  9 17  1  0  0  0  0
  9 10  2  0  0  0  0
 18 19  1  0  0  0  0
 19 32  1  0  0  0  0
 19 20  2  0  0  0  0
 22 23  1  0  0  0  0
 23 24  1  0  0  0  0
 23 25  2  0  0  0  0
 33 36  1  0  0  0  0
  8 11  1  0  0  0  0
 42 43  1  0  0  0  0
 21 22  1  0  0  0  0
 18 21  1  0  0  0  0
 32 33  1  0  0  0  0
  7  8  1  0  0  0  0
 17 18  1  0  0  0  0
  3  4  1  0  0  0  0
  3  5  1  0  0  0  0
  3  6  1  0  0  0  0
 36 39  1  0  0  0  0
 36 40  1  0  0  0  0
 36 41  1  0  0  0  0
 11 14  1  0  0  0  0
 11 15  1  0  0  0  0
 11 16  1  0  0  0  0
 43 45  1  0  0  0  0
 43 46  1  0  0  0  0
 43 47  1  0  0  0  0
 22 30  1  0  0  0  0
 22 31  1  0  0  0  0
 21 28  1  0  0  0  0
 21 29  1  0  0  0  0
 33 38  1  0  0  0  0
  8 13  1  0  0  0  0
 18 27  1  0  0  0  0
 42 44  1  0  0  0  0
  7 12  1  0  0  0  0
 32 37  1  0  0  0  0
 17 26  1  0  0  0  0
M  CHG  1  24  -1
M  END
$$$$

  -OEChem-05262214473D

 47 46  0     1  0  0  0  0  0999 V2000
    0.5093   -4.7265    3.0306 C   0  0  0  0  0  0  0  0  0  0  0  0
    1.2735   -4.4402    3.9448 O   0  0  0  0  0  0  0  0  0  0  0  0
   -0.4465   -5.8608    3.1982 C   0  0  0  0  0  0  0  0  0  0  0  0
   -0.0219   -6.8213    2.8645 H   0  0  0  0  0  0  0  0  0  0  0  0
   -0.7314   -6.0185    4.2509 H   0  0  0  0  0  0  0  0  0  0  0  0
   -1.3983   -5.7596    2.6527 H   0  0  0  0  0  0  0  0  0  0  0  0
    0.4252   -4.0886    1.8040 N   0  0  0  0  0  0  0  0  0  0  0  0
    1.2532   -2.9707    1.4349 C   0  0  2  0  0  0  0  0  0  0  0  0
    0.3395   -1.8293    1.0083 C   0  0  0  0  0  0  0  0  0  0  0  0
   -0.8136   -2.0027    0.6194 O   0  0  0  0  0  0  0  0  0  0  0  0
    2.2176   -3.3411    0.3189 C   0  0  0  0  0  0  0  0  0  0  0  0
   -0.2574   -4.4279    1.1287 H   0  0  0  0  0  0  0  0  0  0  0  0
    1.8087   -2.6785    2.3327 H   0  0  0  0  0  0  0  0  0  0  0  0
    1.6793   -3.6366   -0.5890 H   0  0  0  0  0  0  0  0  0  0  0  0
    2.8662   -2.4980    0.0589 H   0  0  0  0  0  0  0  0  0  0  0  0
    2.8538   -4.1816    0.6166 H   0  0  0  0  0  0  0  0  0  0  0  0
    0.9758   -0.5952    1.0708 N   0  0  0  0  0  0  0  0  0  0  0  0
    0.3258    0.6374    0.7059 C   0  0  2  0  0  0  0  0  0  0  0  0
   -0.9370    0.2777   -0.0698 C   0  0  0  0  0  0  0  0  0  0  0  0
   -1.0446    0.4348   -1.2843 O   0  0  0  0  0  0  0  0  0  0  0  0
    1.2343    1.5368   -0.1408 C   0  0  0  0  0  0  0  0  0  0  0  0
    2.4433    2.0739    0.6241 C   0  0  0  0  0  0  0  0  0  0  0  0
    3.4066    2.9616   -0.1708 C   0  0  0  0  0  0  0  0  0  0  0  0
    3.1526    3.0273   -1.4080 O   0  5  0  0  0  0  0  0  0  0  0  0
    4.3197    3.5289    0.4902 O   0  0  0  0  0  0  0  0  0  0  0  0
    1.9288   -0.5463    1.4242 H   0  0  0  0  0  0  0  0  0  0  0  0
    0.0365    1.1288    1.6411 H   0  0  0  0  0  0  0  0  0  0  0  0
    0.6573    2.3765   -0.5478 H   0  0  0  0  0  0  0  0  0  0  0  0
    1.5971    0.9711   -1.0095 H   0  0  0  0  0  0  0  0  0  0  0  0
    2.1104    2.6157    1.5174 H   0  0  0  0  0  0  0  0  0  0  0  0
    3.0347    1.2204    0.9796 H   0  0  0  0  0  0  0  0  0  0  0  0
   -1.9432   -0.1945    0.7615 N   0  0  0  0  0  0  0  0  0  0  0  0
   -3.2436   -0.5888    0.2714 C   0  0  2  0  0  0  0  0  0  0  0  0
   -4.2045   -0.6110    1.4529 C   0  0  0  0  0  0  0  0  0  0  0  0
   -3.8319   -0.7295    2.6183 O   0  0  0  0  0  0  0  0  0  0  0  0
   -3.1895   -1.9469   -0.4108 C   0  0  0  0  0  0  0  0  0  0  0  0
   -1.7590   -0.3054    1.7542 H   0  0  0  0  0  0  0  0  0  0  0  0
   -3.5591    0.1801   -0.4422 H   0  0  0  0  0  0  0  0  0  0  0  0
   -2.8752   -2.7301    0.2887 H   0  0  0  0  0  0  0  0  0  0  0  0
   -4.1700   -2.2314   -0.8067 H   0  0  0  0  0  0  0  0  0  0  0  0
   -2.4758   -1.9375   -1.2417 H   0  0  0  0  0  0  0  0  0  0  0  0
   -5.5297   -0.5264    1.0495 N   0  0  0  0  0  0  0  0  0  0  0  0
   -6.6313   -0.5402    1.9834 C   0  0  0  0  0  0  0  0  0  0  0  0
   -5.7455   -0.4116    0.0636 H   0  0  0  0  0  0  0  0  0  0  0  0
   -6.9863   -1.5727    2.1173 H   0  0  0  0  0  0  0  0  0  0  0  0
   -6.2963   -0.1393    2.9514 H   0  0  0  0  0  0  0  0  0  0  0  0
   -7.4507    0.0812    1.5929 H   0  0  0  0  0  0  0  0  0  0  0  0
  1  3  1  0  0  0  0
  1  7  1  0  0  0  0
  1  2  2  0  0  0  0
 33 34  1  0  0  0  0
 34 42  1  0  0  0  0
 34 35  2  0  0  0  0
  8  9  1  0  0  0  0
  9 17  1  0  0  0  0
  9 10  2  0  0  0  0
 18 19  1  0  0  0  0
 19 32  1  0  0  0  0
 19 20  2  0  0  0  0
 22 23  1  0  0  0  0
 23 24  1  0  0  0  0
 23 25  2  0  0  0  0
 33 36  1  0  0  0  0
  8 11  1  0  0  0  0
 42 43  1  0  0  0  0
 21 22  1  0  0  0  0
 18 21  1  0  0  0  0
 32 33  1  0  0  0  0
  7  8  1  0  0  0  0
 17 18  1  0  0  0  0
  3  4  1  0  0  0  0
  3  5  1  0  0  0  0
  3  6  1  0  0  0  0
 36 39  1  0  0  0  0
 36 40  1  0  0  0  0
 36 41  1  0  0  0  0
 11 14  1  0  0  0  0
 11 15  1  0  0  0  0
 11 16  1  0  0  0  0
 43 45  1  0  0  0  0
 43 46  1  0  0  0  0
 43 47  1  0  0  0  0
 22 30  1  0  0  0  0
 22 31  1  0  0  0  0
 21 28  1  0  0  0  0
 21 29  1  0  0  0  0
 33 38  1  0  0  0  0
  8 13  1  0  0  0  0
 18 27  1  0  0  0  0
 42 44  1  0  0  0  0
  7 12  1  0  0  0  0
 32 37  1  0  0  0  0
 17 26  1  0  0  0  0
M  CHG  1  24  -1
M  END
$$$$

  -OEChem-05262214473D

 47 46  0     1  0  0  0  0  0999 V2000
    0.5093   -4.7265    3.0306 C   0  0  0  0  0  0  0  0  0  0  0  0
    1.2735   -4.4402    3.9448 O   0  0  0  0  0  0  0  0  0  0  0  0
   -0.4465   -5.8608    3.1982 C   0  0  0  0  0  0  0  0  0  0  0  0
   -0.0219   -6.8213    2.8645 H   0  0  0  0  0  0  0  0  0  0  0  0
   -0.7314   -6.0185    4.2509 H   0  0  0  0  0  0  0  0  0  0  0  0
   -1.3983   -5.7596    2.6527 H   0  0  0  0  0  0  0  0  0  0  0  0
    0.4252   -4.0886    1.8040 N   0  0  0  0  0  0  0  0  0  0  0  0
    1.2532   -2.9707    1.4349 C   0  0  2  0  0  0  0  0  0  0  0  0
    0.3395   -1.8293    1.0083 C   0  0  0  0  0  0  0  0  0  0  0  0
   -0.8136   -2.0027    0.6194 O   0  0  0  0  0  0  0  0  0  0  0  0
    2.2176   -3.3411    0.3189 C   0  0  0  0  0  0  0  0  0  0  0  0
   -0.2574   -4.4279    1.1287 H   0  0  0  0  0  0  0  0  0  0  0  0
    1.8087   -2.6785    2.3327 H   0  0  0  0  0  0  0  0  0  0  0  0
    1.6793   -3.6366   -0.5890 H   0  0  0  0  0  0  0  0  0  0  0  0
    2.8662   -2.4980    0.0589 H   0  0  0  0  0  0  0  0  0  0  0  0
    2.8538   -4.1816    0.6166 H   0  0  0  0  0  0  0  0  0  0  0  0
    0.9758   -0.5952    1.0708 N   0  0  0  0  0  0  0  0  0  0  0  0
    0.3258    0.6374    0.7059 C   0  0  2  0  0  0  0  0  0  0  0  0
   -0.9370    0.2777   -0.0698 C   0  0  0  0  0  0  0  0  0  0  0  0
   -0.9650    0.1779   -1.2948 O   0  0  0  0  0  0  0  0  0  0  0  0
    1.2343    1.5368   -0.1408 C   0  0  0  0  0  0  0  0  0  0  0  0
    2.4433    2.0739    0.6241 C   0  0  0  0  0  0  0  0  0  0  0  0
    3.4066    2.9616   -0.1708 C   0  0  0  0  0  0  0  0  0  0  0  0
    3.1526    3.0273   -1.4080 O   0  5  0  0  0  0  0  0  0  0  0  0
    4.3197    3.5289    0.4902 O   0  0  0  0  0  0  0  0  0  0  0  0
    1.9288   -0.5463    1.4242 H   0  0  0  0  0  0  0  0  0  0  0  0
    0.0365    1.1288    1.6411 H   0  0  0  0  0  0  0  0  0  0  0  0
    0.6573    2.3765   -0.5478 H   0  0  0  0  0  0  0  0  0  0  0  0
    1.5971    0.9711   -1.0095 H   0  0  0  0  0  0  0  0  0  0  0  0
    2.1104    2.6157    1.5174 H   0  0  0  0  0  0  0  0  0  0  0  0
    3.0347    1.2204    0.9796 H   0  0  0  0  0  0  0  0  0  0  0  0
   -2.0365    0.1280    0.7639 N   0  0  0  0  0  0  0  0  0  0  0  0
   -3.3547   -0.1981    0.2711 C   0  0  2  0  0  0  0  0  0  0  0  0
   -4.3635    0.1585    1.3549 C   0  0  0  0  0  0  0  0  0  0  0  0
   -4.0657    0.2518    2.5439 O   0  0  0  0  0  0  0  0  0  0  0  0
   -3.4571   -1.6682   -0.1043 C   0  0  0  0  0  0  0  0  0  0  0  0
   -1.9160    0.2144    1.7687 H   0  0  0  0  0  0  0  0  0  0  0  0
   -3.5272    0.4296   -0.6100 H   0  0  0  0  0  0  0  0  0  0  0  0
   -3.2872   -2.3128    0.7658 H   0  0  0  0  0  0  0  0  0  0  0  0
   -4.4479   -1.9075   -0.5044 H   0  0  0  0  0  0  0  0  0  0  0  0
   -2.7110   -1.9298   -0.8624 H   0  0  0  0  0  0  0  0  0  0  0  0
   -5.6440    0.3180    0.8440 N   0  0  0  0  0  0  0  0  0  0  0  0
   -6.7793    0.6463    1.6741 C   0  0  0  0  0  0  0  0  0  0  0  0
   -5.7956    0.2408   -0.1574 H   0  0  0  0  0  0  0  0  0  0  0  0
   -7.2795   -0.2794    1.9950 H   0  0  0  0  0  0  0  0  0  0  0  0
   -6.4376    1.2038    2.5587 H   0  0  0  0  0  0  0  0  0  0  0  0
   -7.4857    1.2649    1.1011 H   0  0  0  0  0  0  0  0  0  0  0  0
  1  3  1  0  0  0  0
  1  7  1  0  0  0  0
  1  2  2  0  0  0  0
 33 34  1  0  0  0  0
 34 42  1  0  0  0  0
 34 35  2  0  0  0  0
  8  9  1  0  0  0  0
  9 17  1  0  0  0  0
  9 10  2  0  0  0  0
 18 19  1  0  0  0  0
 19 32  1  0  0  0  0
 19 20  2  0  0  0  0
 22 23  1  0  0  0  0
 23 24  1  0  0  0  0
 23 25  2  0  0  0  0
 33 36  1  0  0  0  0
  8 11  1  0  0  0  0
 42 43  1  0  0  0  0
 21 22  1  0  0  0  0
 18 21  1  0  0  0  0
 32 33  1  0  0  0  0
  7  8  1  0  0  0  0
 17 18  1  0  0  0  0
  3  4  1  0  0  0  0
  3  5  1  0  0  0  0
  3  6  1  0  0  0  0
 36 39  1  0  0  0  0
 36 40  1  0  0  0  0
 36 41  1  0  0  0  0
 11 14  1  0  0  0  0
 11 15  1  0  0  0  0
 11 16  1  0  0  0  0
 43 45  1  0  0  0  0
 43 46  1  0  0  0  0
 43 47  1  0  0  0  0
 22 30  1  0  0  0  0
 22 31  1  0  0  0  0
 21 28  1  0  0  0  0
 21 29  1  0  0  0  0
 33 38  1  0  0  0  0
  8 13  1  0  0  0  0
 18 27  1  0  0  0  0
 42 44  1  0  0  0  0
  7 12  1  0  0  0  0
 32 37  1  0  0  0  0
 17 26  1  0  0  0  0
M  CHG  1  24  -1
M  END
$$$$

  -OEChem-05262214473D

 47 46  0     1  0  0  0  0  0999 V2000
    0.5093   -4.7265    3.0306 C   0  0  0  0  0  0  0  0  0  0  0  0
    1.2735   -4.4402    3.9448 O   0  0  0  0  0  0  0  0  0  0  0  0
   -0.4465   -5.8608    3.1982 C   0  0  0  0  0  0  0  0  0  0  0  0
   -0.0219   -6.8213    2.8645 H   0  0  0  0  0  0  0  0  0  0  0  0
   -0.7314   -6.0185    4.2509 H   0  0  0  0  0  0  0  0  0  0  0  0
   -1.3983   -5.7596    2.6527 H   0  0  0  0  0  0  0  0  0  0  0  0
    0.4252   -4.0886    1.8040 N   0  0  0  0  0  0  0  0  0  0  0  0
    1.2532   -2.9707    1.4349 C   0  0  2  0  0  0  0  0  0  0  0  0
    0.3395   -1.8293    1.0083 C   0  0  0  0  0  0  0  0  0  0  0  0
   -0.8136   -2.0027    0.6194 O   0  0  0  0  0  0  0  0  0  0  0  0
    2.2176   -3.3411    0.3189 C   0  0  0  0  0  0  0  0  0  0  0  0
   -0.2574   -4.4279    1.1287 H   0  0  0  0  0  0  0  0  0  0  0  0
    1.8087   -2.6785    2.3327 H   0  0  0  0  0  0  0  0  0  0  0  0
    1.6793   -3.6366   -0.5890 H   0  0  0  0  0  0  0  0  0  0  0  0
    2.8662   -2.4980    0.0589 H   0  0  0  0  0  0  0  0  0  0  0  0
    2.8538   -4.1816    0.6166 H   0  0  0  0  0  0  0  0  0  0  0  0
    0.9758   -0.5952    1.0708 N   0  0  0  0  0  0  0  0  0  0  0  0
    0.3258    0.6374    0.7059 C   0  0  2  0  0  0  0  0  0  0  0  0
   -0.9370    0.2777   -0.0698 C   0  0  0  0  0  0  0  0  0  0  0  0
   -0.9213   -0.0829   -1.2450 O   0  0  0  0  0  0  0  0  0  0  0  0
    1.2343    1.5368   -0.1408 C   0  0  0  0  0  0  0  0  0  0  0  0
    2.4433    2.0739    0.6241 C   0  0  0  0  0  0  0  0  0  0  0  0
    3.4066    2.9616   -0.1708 C   0  0  0  0  0  0  0  0  0  0  0  0
    3.1526    3.0273   -1.4080 O   0  5  0  0  0  0  0  0  0  0  0  0
    4.3197    3.5289    0.4902 O   0  0  0  0  0  0  0  0  0  0  0  0
    1.9288   -0.5463    1.4242 H   0  0  0  0  0  0  0  0  0  0  0  0
    0.0365    1.1288    1.6411 H   0  0  0  0  0  0  0  0  0  0  0  0
    0.6573    2.3765   -0.5478 H   0  0  0  0  0  0  0  0  0  0  0  0
    1.5971    0.9711   -1.0095 H   0  0  0  0  0  0  0  0  0  0  0  0
    2.1104    2.6157    1.5174 H   0  0  0  0  0  0  0  0  0  0  0  0
    3.0347    1.2204    0.9796 H   0  0  0  0  0  0  0  0  0  0  0  0
   -2.0844    0.4523    0.6914 N   0  0  0  0  0  0  0  0  0  0  0  0
   -3.4105    0.1939    0.1802 C   0  0  2  0  0  0  0  0  0  0  0  0
   -4.4098    0.9018    1.0856 C   0  0  0  0  0  0  0  0  0  0  0  0
   -4.1578    1.2146    2.2474 O   0  0  0  0  0  0  0  0  0  0  0  0
   -3.6976   -1.2981    0.1156 C   0  0  0  0  0  0  0  0  0  0  0  0
   -2.0001    0.7404    1.6617 H   0  0  0  0  0  0  0  0  0  0  0  0
   -3.4532    0.6306   -0.8236 H   0  0  0  0  0  0  0  0  0  0  0  0
   -3.6593   -1.7531    1.1121 H   0  0  0  0  0  0  0  0  0  0  0  0
   -4.6923   -1.4932   -0.2988 H   0  0  0  0  0  0  0  0  0  0  0  0
   -2.9603   -1.8101   -0.5121 H   0  0  0  0  0  0  0  0  0  0  0  0
   -5.6306    1.1046    0.4575 N   0  0  0  0  0  0  0  0  0  0  0  0
   -6.7472    1.7456    1.1121 C   0  0  0  0  0  0  0  0  0  0  0  0
   -5.7446    0.8302   -0.5138 H   0  0  0  0  0  0  0  0  0  0  0  0
   -7.3850    0.9823    1.5817 H   0  0  0  0  0  0  0  0  0  0  0  0
   -6.3734    2.4356    1.8829 H   0  0  0  0  0  0  0  0  0  0  0  0
   -7.3337    2.3074    0.3702 H   0  0  0  0  0  0  0  0  0  0  0  0
  1  3  1  0  0  0  0
  1  7  1  0  0  0  0
  1  2  2  0  0  0  0
 33 34  1  0  0  0  0
 34 42  1  0  0  0  0
 34 35  2  0  0  0  0
  8  9  1  0  0  0  0
  9 17  1  0  0  0  0
  9 10  2  0  0  0  0
 18 19  1  0  0  0  0
 19 32  1  0  0  0  0
 19 20  2  0  0  0  0
 22 23  1  0  0  0  0
 23 24  1  0  0  0  0
 23 25  2  0  0  0  0
 33 36  1  0  0  0  0
  8 11  1  0  0  0  0
 42 43  1  0  0  0  0
 21 22  1  0  0  0  0
 18 21  1  0  0  0  0
 32 33  1  0  0  0  0
  7  8  1  0  0  0  0
 17 18  1  0  0  0  0
  3  4  1  0  0  0  0
  3  5  1  0  0  0  0
  3  6  1  0  0  0  0
 36 39  1  0  0  0  0
 36 40  1  0  0  0  0
 36 41  1  0  0  0  0
 11 14  1  0  0  0  0
 11 15  1  0  0  0  0
 11 16  1  0  0  0  0
 43 45  1  0  0  0  0
 43 46  1  0  0  0  0
 43 47  1  0  0  0  0
 22 30  1  0  0  0  0
 22 31  1  0  0  0  0
 21 28  1  0  0  0  0
 21 29  1  0  0  0  0
 33 38  1  0  0  0  0
  8 13  1  0  0  0  0
 18 27  1  0  0  0  0
 42 44  1  0  0  0  0
  7 12  1  0  0  0  0
 32 37  1  0  0  0  0
 17 26  1  0  0  0  0
M  CHG  1  24  -1
M  END
$$$$

  -OEChem-05262214473D

 47 46  0     1  0  0  0  0  0999 V2000
    0.5093   -4.7265    3.0306 C   0  0  0  0  0  0  0  0  0  0  0  0
    1.2735   -4.4402    3.9448 O   0  0  0  0  0  0  0  0  0  0  0  0
   -0.4465   -5.8608    3.1982 C   0  0  0  0  0  0  0  0  0  0  0  0
   -0.0219   -6.8213    2.8645 H   0  0  0  0  0  0  0  0  0  0  0  0
   -0.7314   -6.0185    4.2509 H   0  0  0  0  0  0  0  0  0  0  0  0
   -1.3983   -5.7596    2.6527 H   0  0  0  0  0  0  0  0  0  0  0  0
    0.4252   -4.0886    1.8040 N   0  0  0  0  0  0  0  0  0  0  0  0
    1.2532   -2.9707    1.4349 C   0  0  2  0  0  0  0  0  0  0  0  0
    0.3395   -1.8293    1.0083 C   0  0  0  0  0  0  0  0  0  0  0  0
   -0.8136   -2.0027    0.6194 O   0  0  0  0  0  0  0  0  0  0  0  0
    2.2176   -3.3411    0.3189 C   0  0  0  0  0  0  0  0  0  0  0  0
   -0.2574   -4.4279    1.1287 H   0  0  0  0  0  0  0  0  0  0  0  0
    1.8087   -2.6785    2.3327 H   0  0  0  0  0  0  0  0  0  0  0  0
    1.6793   -3.6366   -0.5890 H   0  0  0  0  0  0  0  0  0  0  0  0
    2.8662   -2.4980    0.0589 H   0  0  0  0  0  0  0  0  0  0  0  0
    2.8538   -4.1816    0.6166 H   0  0  0  0  0  0  0  0  0  0  0  0
    0.9758   -0.5952    1.0708 N   0  0  0  0  0  0  0  0  0  0  0  0
    0.3258    0.6374    0.7059 C   0  0  2  0  0  0  0  0  0  0  0  0
   -0.9370    0.2777   -0.0698 C   0  0  0  0  0  0  0  0  0  0  0  0
   -0.9164   -0.3299   -1.1383 O   0  0  0  0  0  0  0  0  0  0  0  0
    1.2343    1.5368   -0.1408 C   0  0  0  0  0  0  0  0  0  0  0  0
    2.4433    2.0739    0.6241 C   0  0  0  0  0  0  0  0  0  0  0  0
    3.4066    2.9616   -0.1708 C   0  0  0  0  0  0  0  0  0  0  0  0
    3.1526    3.0273   -1.4080 O   0  5  0  0  0  0  0  0  0  0  0  0
    4.3197    3.5289    0.4902 O   0  0  0  0  0  0  0  0  0  0  0  0
    1.9288   -0.5463    1.4242 H   0  0  0  0  0  0  0  0  0  0  0  0
    0.0365    1.1288    1.6411 H   0  0  0  0  0  0  0  0  0  0  0  0
    0.6573    2.3765   -0.5478 H   0  0  0  0  0  0  0  0  0  0  0  0
    1.5971    0.9711   -1.0095 H   0  0  0  0  0  0  0  0  0  0  0  0
    2.1104    2.6157    1.5174 H   0  0  0  0  0  0  0  0  0  0  0  0
    3.0347    1.2204    0.9796 H   0  0  0  0  0  0  0  0  0  0  0  0
   -2.0835    0.7563    0.5489 N   0  0  0  0  0  0  0  0  0  0  0  0
   -3.4073    0.5604    0.0050 C   0  0  2  0  0  0  0  0  0  0  0  0
   -4.3402    1.5682    0.6634 C   0  0  0  0  0  0  0  0  0  0  0  0
   -4.1019    2.0931    1.7491 O   0  0  0  0  0  0  0  0  0  0  0  0
   -3.8947   -0.8618    0.2340 C   0  0  0  0  0  0  0  0  0  0  0  0
   -2.0056    1.2365    1.4406 H   0  0  0  0  0  0  0  0  0  0  0  0
   -3.3422    0.7691   -1.0684 H   0  0  0  0  0  0  0  0  0  0  0  0
   -3.9662   -1.0894    1.3039 H   0  0  0  0  0  0  0  0  0  0  0  0
   -4.8863   -1.0168   -0.2038 H   0  0  0  0  0  0  0  0  0  0  0  0
   -3.2067   -1.5866   -0.2146 H   0  0  0  0  0  0  0  0  0  0  0  0
   -5.4906    1.7799   -0.0835 N   0  0  0  0  0  0  0  0  0  0  0  0
   -6.5371    2.6827    0.3356 C   0  0  0  0  0  0  0  0  0  0  0  0
   -5.5959    1.3164   -0.9812 H   0  0  0  0  0  0  0  0  0  0  0  0
   -7.2956    2.1263    0.9058 H   0  0  0  0  0  0  0  0  0  0  0  0
   -6.1078    3.4722    0.9700 H   0  0  0  0  0  0  0  0  0  0  0  0
   -7.0050    3.1378   -0.5498 H   0  0  0  0  0  0  0  0  0  0  0  0
  1  3  1  0  0  0  0
  1  7  1  0  0  0  0
  1  2  2  0  0  0  0
 33 34  1  0  0  0  0
 34 42  1  0  0  0  0
 34 35  2  0  0  0  0
  8  9  1  0  0  0  0
  9 17  1  0  0  0  0
  9 10  2  0  0  0  0
 18 19  1  0  0  0  0
 19 32  1  0  0  0  0
 19 20  2  0  0  0  0
 22 23  1  0  0  0  0
 23 24  1  0  0  0  0
 23 25  2  0  0  0  0
 33 36  1  0  0  0  0
  8 11  1  0  0  0  0
 42 43  1  0  0  0  0
 21 22  1  0  0  0  0
 18 21  1  0  0  0  0
 32 33  1  0  0  0  0
  7  8  1  0  0  0  0
 17 18  1  0  0  0  0
  3  4  1  0  0  0  0
  3  5  1  0  0  0  0
  3  6  1  0  0  0  0
 36 39  1  0  0  0  0
 36 40  1  0  0  0  0
 36 41  1  0  0  0  0
 11 14  1  0  0  0  0
 11 15  1  0  0  0  0
 11 16  1  0  0  0  0
 43 45  1  0  0  0  0
 43 46  1  0  0  0  0
 43 47  1  0  0  0  0
 22 30  1  0  0  0  0
 22 31  1  0  0  0  0
 21 28  1  0  0  0  0
 21 29  1  0  0  0  0
 33 38  1  0  0  0  0
  8 13  1  0  0  0  0
 18 27  1  0  0  0  0
 42 44  1  0  0  0  0
  7 12  1  0  0  0  0
 32 37  1  0  0  0  0
 17 26  1  0  0  0  0
M  CHG  1  24  -1
M  END
$$$$

  -OEChem-05262214473D

 47 46  0     1  0  0  0  0  0999 V2000
    0.5093   -4.7265    3.0306 C   0  0  0  0  0  0  0  0  0  0  0  0
    1.2735   -4.4402    3.9448 O   0  0  0  0  0  0  0  0  0  0  0  0
   -0.4465   -5.8608    3.1982 C   0  0  0  0  0  0  0  0  0  0  0  0
   -0.0219   -6.8213    2.8645 H   0  0  0  0  0  0  0  0  0  0  0  0
   -0.7314   -6.0185    4.2509 H   0  0  0  0  0  0  0  0  0  0  0  0
   -1.3983   -5.7596    2.6527 H   0  0  0  0  0  0  0  0  0  0  0  0
    0.4252   -4.0886    1.8040 N   0  0  0  0  0  0  0  0  0  0  0  0
    1.2532   -2.9707    1.4349 C   0  0  2  0  0  0  0  0  0  0  0  0
    0.3395   -1.8293    1.0083 C   0  0  0  0  0  0  0  0  0  0  0  0
   -0.8136   -2.0027    0.6194 O   0  0  0  0  0  0  0  0  0  0  0  0
    2.2176   -3.3411    0.3189 C   0  0  0  0  0  0  0  0  0  0  0  0
   -0.2574   -4.4279    1.1287 H   0  0  0  0  0  0  0  0  0  0  0  0
    1.8087   -2.6785    2.3327 H   0  0  0  0  0  0  0  0  0  0  0  0
    1.6793   -3.6366   -0.5890 H   0  0  0  0  0  0  0  0  0  0  0  0
    2.8662   -2.4980    0.0589 H   0  0  0  0  0  0  0  0  0  0  0  0
    2.8538   -4.1816    0.6166 H   0  0  0  0  0  0  0  0  0  0  0  0
    0.9758   -0.5952    1.0708 N   0  0  0  0  0  0  0  0  0  0  0  0
    0.3258    0.6374    0.7059 C   0  0  2  0  0  0  0  0  0  0  0  0
   -0.9370    0.2777   -0.0698 C   0  0  0  0  0  0  0  0  0  0  0  0
   -0.9508   -0.5463   -0.9821 O   0  0  0  0  0  0  0  0  0  0  0  0
    1.2343    1.5368   -0.1408 C   0  0  0  0  0  0  0  0  0  0  0  0
    2.4433    2.0739    0.6241 C   0  0  0  0  0  0  0  0  0  0  0  0
    3.4066    2.9616   -0.1708 C   0  0  0  0  0  0  0  0  0  0  0  0
    3.1526    3.0273   -1.4080 O   0  5  0  0  0  0  0  0  0  0  0  0
    4.3197    3.5289    0.4902 O   0  0  0  0  0  0  0  0  0  0  0  0
    1.9288   -0.5463    1.4242 H   0  0  0  0  0  0  0  0  0  0  0  0
    0.0365    1.1288    1.6411 H   0  0  0  0  0  0  0  0  0  0  0  0
    0.6573    2.3765   -0.5478 H   0  0  0  0  0  0  0  0  0  0  0  0
    1.5971    0.9711   -1.0095 H   0  0  0  0  0  0  0  0  0  0  0  0
    2.1104    2.6157    1.5174 H   0  0  0  0  0  0  0  0  0  0  0  0
    3.0347    1.2204    0.9796 H   0  0  0  0  0  0  0  0  0  0  0  0
   -2.0339    1.0194    0.3463 N   0  0  0  0  0  0  0  0  0  0  0  0
   -3.3452    0.8764   -0.2426 C   0  0  2  0  0  0  0  0  0  0  0  0
   -4.1595    2.1122    0.1170 C   0  0  0  0  0  0  0  0  0  0  0  0
   -3.9019    2.8276    1.0829 O   0  0  0  0  0  0  0  0  0  0  0  0
   -4.0348   -0.3891    0.2429 C   0  0  0  0  0  0  0  0  0  0  0  0
   -1.9320    1.6691    1.1203 H   0  0  0  0  0  0  0  0  0  0  0  0
   -3.2019    0.8358   -1.3278 H   0  0  0  0  0  0  0  0  0  0  0  0
   -4.1870   -0.3667    1.3282 H   0  0  0  0  0  0  0  0  0  0  0  0
   -5.0167   -0.5108   -0.2261 H   0  0  0  0  0  0  0  0  0  0  0  0
   -3.4335   -1.2745    0.0099 H   0  0  0  0  0  0  0  0  0  0  0  0
   -5.2334    2.2977   -0.7423 N   0  0  0  0  0  0  0  0  0  0  0  0
   -6.1634    3.3939   -0.6025 C   0  0  0  0  0  0  0  0  0  0  0  0
   -5.3598    1.6663   -1.5278 H   0  0  0  0  0  0  0  0  0  0  0  0
   -7.0174    3.0747    0.0131 H   0  0  0  0  0  0  0  0  0  0  0  0
   -5.6592    4.2428   -0.1177 H   0  0  0  0  0  0  0  0  0  0  0  0
   -6.5220    3.6994   -1.5965 H   0  0  0  0  0  0  0  0  0  0  0  0
  1  3  1  0  0  0  0
  1  7  1  0  0  0  0
  1  2  2  0  0  0  0
 33 34  1  0  0  0  0
 34 42  1  0  0  0  0
 34 35  2  0  0  0  0
  8  9  1  0  0  0  0
  9 17  1  0  0  0  0
  9 10  2  0  0  0  0
 18 19  1  0  0  0  0
 19 32  1  0  0  0  0
 19 20  2  0  0  0  0
 22 23  1  0  0  0  0
 23 24  1  0  0  0  0
 23 25  2  0  0  0  0
 33 36  1  0  0  0  0
  8 11  1  0  0  0  0
 42 43  1  0  0  0  0
 21 22  1  0  0  0  0
 18 21  1  0  0  0  0
 32 33  1  0  0  0  0
  7  8  1  0  0  0  0
 17 18  1  0  0  0  0
  3  4  1  0  0  0  0
  3  5  1  0  0  0  0
  3  6  1  0  0  0  0
 36 39  1  0  0  0  0
 36 40  1  0  0  0  0
 36 41  1  0  0  0  0
 11 14  1  0  0  0  0
 11 15  1  0  0  0  0
 11 16  1  0  0  0  0
 43 45  1  0  0  0  0
 43 46  1  0  0  0  0
 43 47  1  0  0  0  0
 22 30  1  0  0  0  0
 22 31  1  0  0  0  0
 21 28  1  0  0  0  0
 21 29  1  0  0  0  0
 33 38  1  0  0  0  0
  8 13  1  0  0  0  0
 18 27  1  0  0  0  0
 42 44  1  0  0  0  0
  7 12  1  0  0  0  0
 32 37  1  0  0  0  0
 17 26  1  0  0  0  0
M  CHG  1  24  -1
M  END
$$$$

  -OEChem-05262214473D

 47 46  0     1  0  0  0  0  0999 V2000
    0.5093   -4.7265    3.0306 C   0  0  0  0  0  0  0  0  0  0  0  0
    1.2735   -4.4402    3.9448 O   0  0  0  0  0  0  0  0  0  0  0  0
   -0.4465   -5.8608    3.1982 C   0  0  0  0  0  0  0  0  0  0  0  0
   -0.0219   -6.8213    2.8645 H   0  0  0  0  0  0  0  0  0  0  0  0
   -0.7314   -6.0185    4.2509 H   0  0  0  0  0  0  0  0  0  0  0  0
   -1.3983   -5.7596    2.6527 H   0  0  0  0  0  0  0  0  0  0  0  0
    0.4252   -4.0886    1.8040 N   0  0  0  0  0  0  0  0  0  0  0  0
    1.2532   -2.9707    1.4349 C   0  0  2  0  0  0  0  0  0  0  0  0
    0.3395   -1.8293    1.0083 C   0  0  0  0  0  0  0  0  0  0  0  0
   -0.8136   -2.0027    0.6194 O   0  0  0  0  0  0  0  0  0  0  0  0
    2.2176   -3.3411    0.3189 C   0  0  0  0  0  0  0  0  0  0  0  0
   -0.2574   -4.4279    1.1287 H   0  0  0  0  0  0  0  0  0  0  0  0
    1.8087   -2.6785    2.3327 H   0  0  0  0  0  0  0  0  0  0  0  0
    1.6793   -3.6366   -0.5890 H   0  0  0  0  0  0  0  0  0  0  0  0
    2.8662   -2.4980    0.0589 H   0  0  0  0  0  0  0  0  0  0  0  0
    2.8538   -4.1816    0.6166 H   0  0  0  0  0  0  0  0  0  0  0  0
    0.9758   -0.5952    1.0708 N   0  0  0  0  0  0  0  0  0  0  0  0
    0.3258    0.6374    0.7059 C   0  0  2  0  0  0  0  0  0  0  0  0
   -0.9370    0.2777   -0.0698 C   0  0  0  0  0  0  0  0  0  0  0  0
   -1.0220   -0.7173   -0.7868 O   0  0  0  0  0  0  0  0  0  0  0  0
    1.2343    1.5368   -0.1408 C   0  0  0  0  0  0  0  0  0  0  0  0
    2.4433    2.0739    0.6241 C   0  0  0  0  0  0  0  0  0  0  0  0
    3.4066    2.9616   -0.1708 C   0  0  0  0  0  0  0  0  0  0  0  0
    3.1526    3.0273   -1.4080 O   0  5  0  0  0  0  0  0  0  0  0  0
    4.3197    3.5289    0.4902 O   0  0  0  0  0  0  0  0  0  0  0  0
    1.9288   -0.5463    1.4242 H   0  0  0  0  0  0  0  0  0  0  0  0
    0.0365    1.1288    1.6411 H   0  0  0  0  0  0  0  0  0  0  0  0
    0.6573    2.3765   -0.5478 H   0  0  0  0  0  0  0  0  0  0  0  0
    1.5971    0.9711   -1.0095 H   0  0  0  0  0  0  0  0  0  0  0  0
    2.1104    2.6157    1.5174 H   0  0  0  0  0  0  0  0  0  0  0  0
    3.0347    1.2204    0.9796 H   0  0  0  0  0  0  0  0  0  0  0  0
   -1.9390    1.2235    0.0971 N   0  0  0  0  0  0  0  0  0  0  0  0
   -3.2285    1.1204   -0.5456 C   0  0  2  0  0  0  0  0  0  0  0  0
   -3.8800    2.4968   -0.5163 C   0  0  0  0  0  0  0  0  0  0  0  0
   -3.5713    3.3679    0.2942 O   0  0  0  0  0  0  0  0  0  0  0  0
   -4.1084    0.0879    0.1416 C   0  0  0  0  0  0  0  0  0  0  0  0
   -1.7845    2.0086    0.7227 H   0  0  0  0  0  0  0  0  0  0  0  0
   -3.0417    0.8262   -1.5842 H   0  0  0  0  0  0  0  0  0  0  0  0
   -4.3066    0.3656    1.1833 H   0  0  0  0  0  0  0  0  0  0  0  0
   -5.0748   -0.0096   -0.3640 H   0  0  0  0  0  0  0  0  0  0  0  0
   -3.6251   -0.8951    0.1459 H   0  0  0  0  0  0  0  0  0  0  0  0
   -4.8766    2.6229   -1.4739 N   0  0  0  0  0  0  0  0  0  0  0  0
   -5.6516    3.8306   -1.6381 C   0  0  0  0  0  0  0  0  0  0  0  0
   -5.0523    1.8560   -2.1163 H   0  0  0  0  0  0  0  0  0  0  0  0
   -6.5693    3.7628   -1.0354 H   0  0  0  0  0  0  0  0  0  0  0  0
   -5.0579    4.6951   -1.3061 H   0  0  0  0  0  0  0  0  0  0  0  0
   -5.9177    3.9540   -2.6983 H   0  0  0  0  0  0  0  0  0  0  0  0
  1  3  1  0  0  0  0
  1  7  1  0  0  0  0
  1  2  2  0  0  0  0
 33 34  1  0  0  0  0
 34 42  1  0  0  0  0
 34 35  2  0  0  0  0
  8  9  1  0  0  0  0
  9 17  1  0  0  0  0
  9 10  2  0  0  0  0
 18 19  1  0  0  0  0
 19 32  1  0  0  0  0
 19 20  2  0  0  0  0
 22 23  1  0  0  0  0
 23 24  1  0  0  0  0
 23 25  2  0  0  0  0
 33 36  1  0  0  0  0
  8 11  1  0  0  0  0
 42 43  1  0  0  0  0
 21 22  1  0  0  0  0
 18 21  1  0  0  0  0
 32 33  1  0  0  0  0
  7  8  1  0  0  0  0
 17 18  1  0  0  0  0
  3  4  1  0  0  0  0
  3  5  1  0  0  0  0
  3  6  1  0  0  0  0
 36 39  1  0  0  0  0
 36 40  1  0  0  0  0
 36 41  1  0  0  0  0
 11 14  1  0  0  0  0
 11 15  1  0  0  0  0
 11 16  1  0  0  0  0
 43 45  1  0  0  0  0
 43 46  1  0  0  0  0
 43 47  1  0  0  0  0
 22 30  1  0  0  0  0
 22 31  1  0  0  0  0
 21 28  1  0  0  0  0
 21 29  1  0  0  0  0
 33 38  1  0  0  0  0
  8 13  1  0  0  0  0
 18 27  1  0  0  0  0
 42 44  1  0  0  0  0
  7 12  1  0  0  0  0
 32 37  1  0  0  0  0
 17 26  1  0  0  0  0
M  CHG  1  24  -1
M  END
$$$$

  -OEChem-05262214473D

 47 46  0     1  0  0  0  0  0999 V2000
    0.5093   -4.7265    3.0306 C   0  0  0  0  0  0  0  0  0  0  0  0
    1.2735   -4.4402    3.9448 O   0  0  0  0  0  0  0  0  0  0  0  0
   -0.4465   -5.8608    3.1982 C   0  0  0  0  0  0  0  0  0  0  0  0
   -0.0219   -6.8213    2.8645 H   0  0  0  0  0  0  0  0  0  0  0  0
   -0.7314   -6.0185    4.2509 H   0  0  0  0  0  0  0  0  0  0  0  0
   -1.3983   -5.7596    2.6527 H   0  0  0  0  0  0  0  0  0  0  0  0
    0.4252   -4.0886    1.8040 N   0  0  0  0  0  0  0  0  0  0  0  0
    1.2532   -2.9707    1.4349 C   0  0  2  0  0  0  0  0  0  0  0  0
    0.3395   -1.8293    1.0083 C   0  0  0  0  0  0  0  0  0  0  0  0
   -0.8136   -2.0027    0.6194 O   0  0  0  0  0  0  0  0  0  0  0  0
    2.2176   -3.3411    0.3189 C   0  0  0  0  0  0  0  0  0  0  0  0
   -0.2574   -4.4279    1.1287 H   0  0  0  0  0  0  0  0  0  0  0  0
    1.8087   -2.6785    2.3327 H   0  0  0  0  0  0  0  0  0  0  0  0
    1.6793   -3.6366   -0.5890 H   0  0  0  0  0  0  0  0  0  0  0  0
    2.8662   -2.4980    0.0589 H   0  0  0  0  0  0  0  0  0  0  0  0
    2.8538   -4.1816    0.6166 H   0  0  0  0  0  0  0  0  0  0  0  0
    0.9758   -0.5952    1.0708 N   0  0  0  0  0  0  0  0  0  0  0  0
    0.3258    0.6374    0.7059 C   0  0  2  0  0  0  0  0  0  0  0  0
   -0.9370    0.2777   -0.0698 C   0  0  0  0  0  0  0  0  0  0  0  0
   -1.1252   -0.8312   -0.5660 O   0  0  0  0  0  0  0  0  0  0  0  0
    1.2343    1.5368   -0.1408 C   0  0  0  0  0  0  0  0  0  0  0  0
    2.4433    2.0739    0.6241 C   0  0  0  0  0  0  0  0  0  0  0  0
    3.4066    2.9616   -0.1708 C   0  0  0  0  0  0  0  0  0  0  0  0
    3.1526    3.0273   -1.4080 O   0  5  0  0  0  0  0  0  0  0  0  0
    4.3197    3.5289    0.4902 O   0  0  0  0  0  0  0  0  0  0  0  0
    1.9288   -0.5463    1.4242 H   0  0  0  0  0  0  0  0  0  0  0  0
    0.0365    1.1288    1.6411 H   0  0  0  0  0  0  0  0  0  0  0  0
    0.6573    2.3765   -0.5478 H   0  0  0  0  0  0  0  0  0  0  0  0
    1.5971    0.9711   -1.0095 H   0  0  0  0  0  0  0  0  0  0  0  0
    2.1104    2.6157    1.5174 H   0  0  0  0  0  0  0  0  0  0  0  0
    3.0347    1.2204    0.9796 H   0  0  0  0  0  0  0  0  0  0  0  0
   -1.8052    1.3548   -0.1815 N   0  0  0  0  0  0  0  0  0  0  0  0
   -3.0652    1.2758   -0.8836 C   0  0  2  0  0  0  0  0  0  0  0  0
   -3.5207    2.6957   -1.1934 C   0  0  0  0  0  0  0  0  0  0  0  0
   -3.1327    3.6772   -0.5632 O   0  0  0  0  0  0  0  0  0  0  0  0
   -4.1106    0.5366   -0.0629 C   0  0  0  0  0  0  0  0  0  0  0  0
   -1.5730    2.2320    0.2749 H   0  0  0  0  0  0  0  0  0  0  0  0
   -2.8726    0.7409   -1.8199 H   0  0  0  0  0  0  0  0  0  0  0  0
   -4.3168    1.0576    0.8791 H   0  0  0  0  0  0  0  0  0  0  0  0
   -5.0565    0.4527   -0.6081 H   0  0  0  0  0  0  0  0  0  0  0  0
   -3.7686   -0.4742    0.1843 H   0  0  0  0  0  0  0  0  0  0  0  0
   -4.4445    2.7333   -2.2285 N   0  0  0  0  0  0  0  0  0  0  0  0
   -5.0365    3.9631   -2.7009 C   0  0  0  0  0  0  0  0  0  0  0  0
   -4.6944    1.8727   -2.7067 H   0  0  0  0  0  0  0  0  0  0  0  0
   -5.9818    4.1438   -2.1683 H   0  0  0  0  0  0  0  0  0  0  0  0
   -4.3451    4.7980   -2.5142 H   0  0  0  0  0  0  0  0  0  0  0  0
   -5.2331    3.8842   -3.7803 H   0  0  0  0  0  0  0  0  0  0  0  0
  1  3  1  0  0  0  0
  1  7  1  0  0  0  0
  1  2  2  0  0  0  0
 33 34  1  0  0  0  0
 34 42  1  0  0  0  0
 34 35  2  0  0  0  0
  8  9  1  0  0  0  0
  9 17  1  0  0  0  0
  9 10  2  0  0  0  0
 18 19  1  0  0  0  0
 19 32  1  0  0  0  0
 19 20  2  0  0  0  0
 22 23  1  0  0  0  0
 23 24  1  0  0  0  0
 23 25  2  0  0  0  0
 33 36  1  0  0  0  0
  8 11  1  0  0  0  0
 42 43  1  0  0  0  0
 21 22  1  0  0  0  0
 18 21  1  0  0  0  0
 32 33  1  0  0  0  0
  7  8  1  0  0  0  0
 17 18  1  0  0  0  0
  3  4  1  0  0  0  0
  3  5  1  0  0  0  0
  3  6  1  0  0  0  0
 36 39  1  0  0  0  0
 36 40  1  0  0  0  0
 36 41  1  0  0  0  0
 11 14  1  0  0  0  0
 11 15  1  0  0  0  0
 11 16  1  0  0  0  0
 43 45  1  0  0  0  0
 43 46  1  0  0  0  0
 43 47  1  0  0  0  0
 22 30  1  0  0  0  0
 22 31  1  0  0  0  0
 21 28  1  0  0  0  0
 21 29  1  0  0  0  0
 33 38  1  0  0  0  0
  8 13  1  0  0  0  0
 18 27  1  0  0  0  0
 42 44  1  0  0  0  0
  7 12  1  0  0  0  0
 32 37  1  0  0  0  0
 17 26  1  0  0  0  0
M  CHG  1  24  -1
M  END
$$$$

  -OEChem-05262214473D

 47 46  0     1  0  0  0  0  0999 V2000
    0.5093   -4.7265    3.0306 C   0  0  0  0  0  0  0  0  0  0  0  0
    1.2735   -4.4402    3.9448 O   0  0  0  0  0  0  0  0  0  0  0  0
   -0.4465   -5.8608    3.1982 C   0  0  0  0  0  0  0  0  0  0  0  0
   -0.0219   -6.8213    2.8645 H   0  0  0  0  0  0  0  0  0  0  0  0
   -0.7314   -6.0185    4.2509 H   0  0  0  0  0  0  0  0  0  0  0  0
   -1.3983   -5.7596    2.6527 H   0  0  0  0  0  0  0  0  0  0  0  0
    0.4252   -4.0886    1.8040 N   0  0  0  0  0  0  0  0  0  0  0  0
    1.2532   -2.9707    1.4349 C   0  0  2  0  0  0  0  0  0  0  0  0
    0.3395   -1.8293    1.0083 C   0  0  0  0  0  0  0  0  0  0  0  0
   -0.8136   -2.0027    0.6194 O   0  0  0  0  0  0  0  0  0  0  0  0
    2.2176   -3.3411    0.3189 C   0  0  0  0  0  0  0  0  0  0  0  0
   -0.2574   -4.4279    1.1287 H   0  0  0  0  0  0  0  0  0  0  0  0
    1.8087   -2.6785    2.3327 H   0  0  0  0  0  0  0  0  0  0  0  0
    1.6793   -3.6366   -0.5890 H   0  0  0  0  0  0  0  0  0  0  0  0
    2.8662   -2.4980    0.0589 H   0  0  0  0  0  0  0  0  0  0  0  0
    2.8538   -4.1816    0.6166 H   0  0  0  0  0  0  0  0  0  0  0  0
    0.9758   -0.5952    1.0708 N   0  0  0  0  0  0  0  0  0  0  0  0
    0.3258    0.6374    0.7059 C   0  0  2  0  0  0  0  0  0  0  0  0
   -1.0964    0.2955    0.2743 C   0  0  0  0  0  0  0  0  0  0  0  0
   -1.5246   -0.8560    0.2307 O   0  0  0  0  0  0  0  0  0  0  0  0
    1.0660    1.3644   -0.4232 C   0  0  0  0  0  0  0  0  0  0  0  0
    2.4427    1.8851   -0.0124 C   0  0  0  0  0  0  0  0  0  0  0  0
    3.2473    2.6019   -1.1017 C   0  0  0  0  0  0  0  0  0  0  0  0
    2.7248    2.5517   -2.2524 O   0  5  0  0  0  0  0  0  0  0  0  0
    4.3142    3.1644   -0.7310 O   0  0  0  0  0  0  0  0  0  0  0  0
    1.9288   -0.5463    1.4242 H   0  0  0  0  0  0  0  0  0  0  0  0
    0.2809    1.2494    1.6132 H   0  0  0  0  0  0  0  0  0  0  0  0
    0.4570    2.1973   -0.7959 H   0  0  0  0  0  0  0  0  0  0  0  0
    1.1935    0.6803   -1.2728 H   0  0  0  0  0  0  0  0  0  0  0  0
    2.3486    2.5459    0.8576 H   0  0  0  0  0  0  0  0  0  0  0  0
    3.0534    1.0318    0.3091 H   0  0  0  0  0  0  0  0  0  0  0  0
   -1.8133    1.4234   -0.1002 N   0  0  0  0  0  0  0  0  0  0  0  0
   -3.1804    1.3648   -0.5632 C   0  0  2  0  0  0  0  0  0  0  0  0
   -3.4852    2.6652   -1.2950 C   0  0  0  0  0  0  0  0  0  0  0  0
   -2.8553    3.7040   -1.1074 O   0  0  0  0  0  0  0  0  0  0  0  0
   -4.1469    1.1513    0.5913 C   0  0  0  0  0  0  0  0  0  0  0  0
   -1.3817    2.3391   -0.0170 H   0  0  0  0  0  0  0  0  0  0  0  0
   -3.2406    0.5268   -1.2661 H   0  0  0  0  0  0  0  0  0  0  0  0
   -4.1008    1.9811    1.3061 H   0  0  0  0  0  0  0  0  0  0  0  0
   -5.1800    1.0786    0.2356 H   0  0  0  0  0  0  0  0  0  0  0  0
   -3.9077    0.2309    1.1347 H   0  0  0  0  0  0  0  0  0  0  0  0
   -4.5710    2.5405   -2.1504 N   0  0  0  0  0  0  0  0  0  0  0  0
   -5.0650    3.6384   -2.9483 C   0  0  0  0  0  0  0  0  0  0  0  0
   -5.0216    1.6365   -2.2574 H   0  0  0  0  0  0  0  0  0  0  0  0
   -5.8609    4.1625   -2.3989 H   0  0  0  0  0  0  0  0  0  0  0  0
   -4.2426    4.3381   -3.1583 H   0  0  0  0  0  0  0  0  0  0  0  0
   -5.4676    3.2508   -3.8958 H   0  0  0  0  0  0  0  0  0  0  0  0
  1  3  1  0  0  0  0
  1  7  1  0  0  0  0
  1  2  2  0  0  0  0
 33 34  1  0  0  0  0
 34 42  1  0  0  0  0
 34 35  2  0  0  0  0
  8  9  1  0  0  0  0
  9 17  1  0  0  0  0
  9 10  2  0  0  0  0
 18 19  1  0  0  0  0
 19 32  1  0  0  0  0
 19 20  2  0  0  0  0
 22 23  1  0  0  0  0
 23 24  1  0  0  0  0
 23 25  2  0  0  0  0
 33 36  1  0  0  0  0
  8 11  1  0  0  0  0
 42 43  1  0  0  0  0
 21 22  1  0  0  0  0
 18 21  1  0  0  0  0
 32 33  1  0  0  0  0
  7  8  1  0  0  0  0
 17 18  1  0  0  0  0
  3  4  1  0  0  0  0
  3  5  1  0  0  0  0
  3  6  1  0  0  0  0
 36 39  1  0  0  0  0
 36 40  1  0  0  0  0
 36 41  1  0  0  0  0
 11 14  1  0  0  0  0
 11 15  1  0  0  0  0
 11 16  1  0  0  0  0
 43 45  1  0  0  0  0
 43 46  1  0  0  0  0
 43 47  1  0  0  0  0
 22 30  1  0  0  0  0
 22 31  1  0  0  0  0
 21 28  1  0  0  0  0
 21 29  1  0  0  0  0
 33 38  1  0  0  0  0
  8 13  1  0  0  0  0
 18 27  1  0  0  0  0
 42 44  1  0  0  0  0
  7 12  1  0  0  0  0
 32 37  1  0  0  0  0
 17 26  1  0  0  0  0
M  CHG  1  24  -1
M  END
$$$$

  -OEChem-05262214473D

 47 46  0     1  0  0  0  0  0999 V2000
    0.5093   -4.7265    3.0306 C   0  0  0  0  0  0  0  0  0  0  0  0
    1.2735   -4.4402    3.9448 O   0  0  0  0  0  0  0  0  0  0  0  0
   -0.4465   -5.8608    3.1982 C   0  0  0  0  0  0  0  0  0  0  0  0
   -0.0219   -6.8213    2.8645 H   0  0  0  0  0  0  0  0  0  0  0  0
   -0.7314   -6.0185    4.2509 H   0  0  0  0  0  0  0  0  0  0  0  0
   -1.3983   -5.7596    2.6527 H   0  0  0  0  0  0  0  0  0  0  0  0
    0.4252   -4.0886    1.8040 N   0  0  0  0  0  0  0  0  0  0  0  0
    1.2532   -2.9707    1.4349 C   0  0  2  0  0  0  0  0  0  0  0  0
    0.3395   -1.8293    1.0083 C   0  0  0  0  0  0  0  0  0  0  0  0
   -0.8136   -2.0027    0.6194 O   0  0  0  0  0  0  0  0  0  0  0  0
    2.2176   -3.3411    0.3189 C   0  0  0  0  0  0  0  0  0  0  0  0
   -0.2574   -4.4279    1.1287 H   0  0  0  0  0  0  0  0  0  0  0  0
    1.8087   -2.6785    2.3327 H   0  0  0  0  0  0  0  0  0  0  0  0
    1.6793   -3.6366   -0.5890 H   0  0  0  0  0  0  0  0  0  0  0  0
    2.8662   -2.4980    0.0589 H   0  0  0  0  0  0  0  0  0  0  0  0
    2.8538   -4.1816    0.6166 H   0  0  0  0  0  0  0  0  0  0  0  0
    0.9758   -0.5952    1.0708 N   0  0  0  0  0  0  0  0  0  0  0  0
    0.3258    0.6374    0.7059 C   0  0  2  0  0  0  0  0  0  0  0  0
   -1.0964    0.2955    0.2743 C   0  0  0  0  0  0  0  0  0  0  0  0
   -1.6131   -0.8011    0.4788 O   0  0  0  0  0  0  0  0  0  0  0  0
    1.0660    1.3644   -0.4232 C   0  0  0  0  0  0  0  0  0  0  0  0
    2.4427    1.8851   -0.0124 C   0  0  0  0  0  0  0  0  0  0  0  0
    3.2473    2.6019   -1.1017 C   0  0  0  0  0  0  0  0  0  0  0  0
    2.7248    2.5517   -2.2524 O   0  5  0  0  0  0  0  0  0  0  0  0
    4.3142    3.1644   -0.7310 O   0  0  0  0  0  0  0  0  0  0  0  0
    1.9288   -0.5463    1.4242 H   0  0  0  0  0  0  0  0  0  0  0  0
    0.2809    1.2494    1.6132 H   0  0  0  0  0  0  0  0  0  0  0  0
    0.4570    2.1973   -0.7959 H   0  0  0  0  0  0  0  0  0  0  0  0
    1.1935    0.6803   -1.2728 H   0  0  0  0  0  0  0  0  0  0  0  0
    2.3486    2.5459    0.8576 H   0  0  0  0  0  0  0  0  0  0  0  0
    3.0534    1.0318    0.3091 H   0  0  0  0  0  0  0  0  0  0  0  0
   -1.7011    1.3431   -0.4063 N   0  0  0  0  0  0  0  0  0  0  0  0
   -3.0441    1.2641   -0.9324 C   0  0  2  0  0  0  0  0  0  0  0  0
   -3.2072    2.3643   -1.9727 C   0  0  0  0  0  0  0  0  0  0  0  0
   -2.5058    3.3735   -1.9973 O   0  0  0  0  0  0  0  0  0  0  0  0
   -4.0801    1.4025    0.1722 C   0  0  0  0  0  0  0  0  0  0  0  0
   -1.2019    2.2209   -0.5159 H   0  0  0  0  0  0  0  0  0  0  0  0
   -3.1369    0.2859   -1.4168 H   0  0  0  0  0  0  0  0  0  0  0  0
   -4.0026    2.3764    0.6692 H   0  0  0  0  0  0  0  0  0  0  0  0
   -5.0970    1.3138   -0.2242 H   0  0  0  0  0  0  0  0  0  0  0  0
   -3.9426    0.6284    0.9348 H   0  0  0  0  0  0  0  0  0  0  0  0
   -4.2563    2.1072   -2.8443 N   0  0  0  0  0  0  0  0  0  0  0  0
   -4.6207    3.0079   -3.9129 C   0  0  0  0  0  0  0  0  0  0  0  0
   -4.7722    1.2361   -2.7619 H   0  0  0  0  0  0  0  0  0  0  0  0
   -5.3979    3.7014   -3.5594 H   0  0  0  0  0  0  0  0  0  0  0  0
   -3.7354    3.5794   -4.2285 H   0  0  0  0  0  0  0  0  0  0  0  0
   -5.0063    2.4287   -4.7649 H   0  0  0  0  0  0  0  0  0  0  0  0
  1  3  1  0  0  0  0
  1  7  1  0  0  0  0
  1  2  2  0  0  0  0
 33 34  1  0  0  0  0
 34 42  1  0  0  0  0
 34 35  2  0  0  0  0
  8  9  1  0  0  0  0
  9 17  1  0  0  0  0
  9 10  2  0  0  0  0
 18 19  1  0  0  0  0
 19 32  1  0  0  0  0
 19 20  2  0  0  0  0
 22 23  1  0  0  0  0
 23 24  1  0  0  0  0
 23 25  2  0  0  0  0
 33 36  1  0  0  0  0
  8 11  1  0  0  0  0
 42 43  1  0  0  0  0
 21 22  1  0  0  0  0
 18 21  1  0  0  0  0
 32 33  1  0  0  0  0
  7  8  1  0  0  0  0
 17 18  1  0  0  0  0
  3  4  1  0  0  0  0
  3  5  1  0  0  0  0
  3  6  1  0  0  0  0
 36 39  1  0  0  0  0
 36 40  1  0  0  0  0
 36 41  1  0  0  0  0
 11 14  1  0  0  0  0
 11 15  1  0  0  0  0
 11 16  1  0  0  0  0
 43 45  1  0  0  0  0
 43 46  1  0  0  0  0
 43 47  1  0  0  0  0
 22 30  1  0  0  0  0
 22 31  1  0  0  0  0
 21 28  1  0  0  0  0
 21 29  1  0  0  0  0
 33 38  1  0  0  0  0
  8 13  1  0  0  0  0
 18 27  1  0  0  0  0
 42 44  1  0  0  0  0
  7 12  1  0  0  0  0
 32 37  1  0  0  0  0
 17 26  1  0  0  0  0
M  CHG  1  24  -1
M  END
$$$$

  -OEChem-05262214473D

 47 46  0     1  0  0  0  0  0999 V2000
    0.5093   -4.7265    3.0306 C   0  0  0  0  0  0  0  0  0  0  0  0
    1.2735   -4.4402    3.9448 O   0  0  0  0  0  0  0  0  0  0  0  0
   -0.4465   -5.8608    3.1982 C   0  0  0  0  0  0  0  0  0  0  0  0
   -0.0219   -6.8213    2.8645 H   0  0  0  0  0  0  0  0  0  0  0  0
   -0.7314   -6.0185    4.2509 H   0  0  0  0  0  0  0  0  0  0  0  0
   -1.3983   -5.7596    2.6527 H   0  0  0  0  0  0  0  0  0  0  0  0
    0.4252   -4.0886    1.8040 N   0  0  0  0  0  0  0  0  0  0  0  0
    1.2532   -2.9707    1.4349 C   0  0  2  0  0  0  0  0  0  0  0  0
    0.3395   -1.8293    1.0083 C   0  0  0  0  0  0  0  0  0  0  0  0
   -0.8136   -2.0027    0.6194 O   0  0  0  0  0  0  0  0  0  0  0  0
    2.2176   -3.3411    0.3189 C   0  0  0  0  0  0  0  0  0  0  0  0
   -0.2574   -4.4279    1.1287 H   0  0  0  0  0  0  0  0  0  0  0  0
    1.8087   -2.6785    2.3327 H   0  0  0  0  0  0  0  0  0  0  0  0
    1.6793   -3.6366   -0.5890 H   0  0  0  0  0  0  0  0  0  0  0  0
    2.8662   -2.4980    0.0589 H   0  0  0  0  0  0  0  0  0  0  0  0
    2.8538   -4.1816    0.6166 H   0  0  0  0  0  0  0  0  0  0  0  0
    0.9758   -0.5952    1.0708 N   0  0  0  0  0  0  0  0  0  0  0  0
    0.3258    0.6374    0.7059 C   0  0  2  0  0  0  0  0  0  0  0  0
   -1.0964    0.2955    0.2743 C   0  0  0  0  0  0  0  0  0  0  0  0
   -1.7090   -0.6816    0.7001 O   0  0  0  0  0  0  0  0  0  0  0  0
    1.0660    1.3644   -0.4232 C   0  0  0  0  0  0  0  0  0  0  0  0
    2.4427    1.8851   -0.0124 C   0  0  0  0  0  0  0  0  0  0  0  0
    3.2473    2.6019   -1.1017 C   0  0  0  0  0  0  0  0  0  0  0  0
    2.7248    2.5517   -2.2524 O   0  5  0  0  0  0  0  0  0  0  0  0
    4.3142    3.1644   -0.7310 O   0  0  0  0  0  0  0  0  0  0  0  0
    1.9288   -0.5463    1.4242 H   0  0  0  0  0  0  0  0  0  0  0  0
    0.2809    1.2494    1.6132 H   0  0  0  0  0  0  0  0  0  0  0  0
    0.4570    2.1973   -0.7959 H   0  0  0  0  0  0  0  0  0  0  0  0
    1.1935    0.6803   -1.2728 H   0  0  0  0  0  0  0  0  0  0  0  0
    2.3486    2.5459    0.8576 H   0  0  0  0  0  0  0  0  0  0  0  0
    3.0534    1.0318    0.3091 H   0  0  0  0  0  0  0  0  0  0  0  0
   -1.5808    1.1835   -0.6761 N   0  0  0  0  0  0  0  0  0  0  0  0
   -2.8985    1.0676   -1.2568 C   0  0  2  0  0  0  0  0  0  0  0  0
   -2.9214    1.8897   -2.5386 C   0  0  0  0  0  0  0  0  0  0  0  0
   -2.1408    2.8139   -2.7568 O   0  0  0  0  0  0  0  0  0  0  0  0
   -3.9729    1.5391   -0.2893 C   0  0  0  0  0  0  0  0  0  0  0  0
   -1.0079    1.9731   -0.9587 H   0  0  0  0  0  0  0  0  0  0  0  0
   -3.0457    0.0093   -1.4983 H   0  0  0  0  0  0  0  0  0  0  0  0
   -3.8418    2.5974   -0.0357 H   0  0  0  0  0  0  0  0  0  0  0  0
   -4.9730    1.4240   -0.7202 H   0  0  0  0  0  0  0  0  0  0  0  0
   -3.9356    0.9666    0.6437 H   0  0  0  0  0  0  0  0  0  0  0  0
   -3.9437    1.4980   -3.3916 N   0  0  0  0  0  0  0  0  0  0  0  0
   -4.1818    2.1334   -4.6666 C   0  0  0  0  0  0  0  0  0  0  0  0
   -4.5315    0.7093   -3.1380 H   0  0  0  0  0  0  0  0  0  0  0  0
   -4.9171    2.9420   -4.5422 H   0  0  0  0  0  0  0  0  0  0  0  0
   -3.2390    2.5511   -5.0497 H   0  0  0  0  0  0  0  0  0  0  0  0
   -4.5704    1.3911   -5.3792 H   0  0  0  0  0  0  0  0  0  0  0  0
  1  3  1  0  0  0  0
  1  7  1  0  0  0  0
  1  2  2  0  0  0  0
 33 34  1  0  0  0  0
 34 42  1  0  0  0  0
 34 35  2  0  0  0  0
  8  9  1  0  0  0  0
  9 17  1  0  0  0  0
  9 10  2  0  0  0  0
 18 19  1  0  0  0  0
 19 32  1  0  0  0  0
 19 20  2  0  0  0  0
 22 23  1  0  0  0  0
 23 24  1  0  0  0  0
 23 25  2  0  0  0  0
 33 36  1  0  0  0  0
  8 11  1  0  0  0  0
 42 43  1  0  0  0  0
 21 22  1  0  0  0  0
 18 21  1  0  0  0  0
 32 33  1  0  0  0  0
  7  8  1  0  0  0  0
 17 18  1  0  0  0  0
  3  4  1  0  0  0  0
  3  5  1  0  0  0  0
  3  6  1  0  0  0  0
 36 39  1  0  0  0  0
 36 40  1  0  0  0  0
 36 41  1  0  0  0  0
 11 14  1  0  0  0  0
 11 15  1  0  0  0  0
 11 16  1  0  0  0  0
 43 45  1  0  0  0  0
 43 46  1  0  0  0  0
 43 47  1  0  0  0  0
 22 30  1  0  0  0  0
 22 31  1  0  0  0  0
 21 28  1  0  0  0  0
 21 29  1  0  0  0  0
 33 38  1  0  0  0  0
  8 13  1  0  0  0  0
 18 27  1  0  0  0  0
 42 44  1  0  0  0  0
  7 12  1  0  0  0  0
 32 37  1  0  0  0  0
 17 26  1  0  0  0  0
M  CHG  1  24  -1
M  END
$$$$

  -OEChem-05262214473D

 47 46  0     1  0  0  0  0  0999 V2000
    0.5093   -4.7265    3.0306 C   0  0  0  0  0  0  0  0  0  0  0  0
    1.2735   -4.4402    3.9448 O   0  0  0  0  0  0  0  0  0  0  0  0
   -0.4465   -5.8608    3.1982 C   0  0  0  0  0  0  0  0  0  0  0  0
   -0.0219   -6.8213    2.8645 H   0  0  0  0  0  0  0  0  0  0  0  0
   -0.7314   -6.0185    4.2509 H   0  0  0  0  0  0  0  0  0  0  0  0
   -1.3983   -5.7596    2.6527 H   0  0  0  0  0  0  0  0  0  0  0  0
    0.4252   -4.0886    1.8040 N   0  0  0  0  0  0  0  0  0  0  0  0
    1.2532   -2.9707    1.4349 C   0  0  2  0  0  0  0  0  0  0  0  0
    0.3395   -1.8293    1.0083 C   0  0  0  0  0  0  0  0  0  0  0  0
   -0.8136   -2.0027    0.6194 O   0  0  0  0  0  0  0  0  0  0  0  0
    2.2176   -3.3411    0.3189 C   0  0  0  0  0  0  0  0  0  0  0  0
   -0.2574   -4.4279    1.1287 H   0  0  0  0  0  0  0  0  0  0  0  0
    1.8087   -2.6785    2.3327 H   0  0  0  0  0  0  0  0  0  0  0  0
    1.6793   -3.6366   -0.5890 H   0  0  0  0  0  0  0  0  0  0  0  0
    2.8662   -2.4980    0.0589 H   0  0  0  0  0  0  0  0  0  0  0  0
    2.8538   -4.1816    0.6166 H   0  0  0  0  0  0  0  0  0  0  0  0
    0.9758   -0.5952    1.0708 N   0  0  0  0  0  0  0  0  0  0  0  0
    0.3258    0.6374    0.7059 C   0  0  2  0  0  0  0  0  0  0  0  0
   -1.0964    0.2955    0.2743 C   0  0  0  0  0  0  0  0  0  0  0  0
   -1.8057   -0.5058    0.8794 O   0  0  0  0  0  0  0  0  0  0  0  0
    1.0660    1.3644   -0.4232 C   0  0  0  0  0  0  0  0  0  0  0  0
    2.4427    1.8851   -0.0124 C   0  0  0  0  0  0  0  0  0  0  0  0
    3.2473    2.6019   -1.1017 C   0  0  0  0  0  0  0  0  0  0  0  0
    2.7248    2.5517   -2.2524 O   0  5  0  0  0  0  0  0  0  0  0  0
    4.3142    3.1644   -0.7310 O   0  0  0  0  0  0  0  0  0  0  0  0
    1.9288   -0.5463    1.4242 H   0  0  0  0  0  0  0  0  0  0  0  0
    0.2809    1.2494    1.6132 H   0  0  0  0  0  0  0  0  0  0  0  0
    0.4570    2.1973   -0.7959 H   0  0  0  0  0  0  0  0  0  0  0  0
    1.1935    0.6803   -1.2728 H   0  0  0  0  0  0  0  0  0  0  0  0
    2.3486    2.5459    0.8576 H   0  0  0  0  0  0  0  0  0  0  0  0
    3.0534    1.0318    0.3091 H   0  0  0  0  0  0  0  0  0  0  0  0
   -1.4607    0.9553   -0.8912 N   0  0  0  0  0  0  0  0  0  0  0  0
   -2.7533    0.7889   -1.5142 C   0  0  2  0  0  0  0  0  0  0  0  0
   -2.6473    1.2738   -2.9541 C   0  0  0  0  0  0  0  0  0  0  0  0
   -1.7852    2.0633   -3.3342 O   0  0  0  0  0  0  0  0  0  0  0  0
   -3.8325    1.5518   -0.7619 C   0  0  0  0  0  0  0  0  0  0  0  0
   -0.8130    1.6127   -1.3154 H   0  0  0  0  0  0  0  0  0  0  0  0
   -2.9732   -0.2842   -1.5049 H   0  0  0  0  0  0  0  0  0  0  0  0
   -3.6294    2.6290   -0.7606 H   0  0  0  0  0  0  0  0  0  0  0  0
   -4.8163    1.4016   -1.2188 H   0  0  0  0  0  0  0  0  0  0  0  0
   -3.8872    1.2226    0.2814 H   0  0  0  0  0  0  0  0  0  0  0  0
   -3.6547    0.7546   -3.7551 N   0  0  0  0  0  0  0  0  0  0  0  0
   -3.7782    1.0748   -5.1581 C   0  0  0  0  0  0  0  0  0  0  0  0
   -4.3156    0.0921   -3.3602 H   0  0  0  0  0  0  0  0  0  0  0  0
   -4.4513    1.9361   -5.2803 H   0  0  0  0  0  0  0  0  0  0  0  0
   -2.7872    1.3232   -5.5659 H   0  0  0  0  0  0  0  0  0  0  0  0
   -4.1897    0.2085   -5.6969 H   0  0  0  0  0  0  0  0  0  0  0  0
  1  3  1  0  0  0  0
  1  7  1  0  0  0  0
  1  2  2  0  0  0  0
 33 34  1  0  0  0  0
 34 42  1  0  0  0  0
 34 35  2  0  0  0  0
  8  9  1  0  0  0  0
  9 17  1  0  0  0  0
  9 10  2  0  0  0  0
 18 19  1  0  0  0  0
 19 32  1  0  0  0  0
 19 20  2  0  0  0  0
 22 23  1  0  0  0  0
 23 24  1  0  0  0  0
 23 25  2  0  0  0  0
 33 36  1  0  0  0  0
  8 11  1  0  0  0  0
 42 43  1  0  0  0  0
 21 22  1  0  0  0  0
 18 21  1  0  0  0  0
 32 33  1  0  0  0  0
  7  8  1  0  0  0  0
 17 18  1  0  0  0  0
  3  4  1  0  0  0  0
  3  5  1  0  0  0  0
  3  6  1  0  0  0  0
 36 39  1  0  0  0  0
 36 40  1  0  0  0  0
 36 41  1  0  0  0  0
 11 14  1  0  0  0  0
 11 15  1  0  0  0  0
 11 16  1  0  0  0  0
 43 45  1  0  0  0  0
 43 46  1  0  0  0  0
 43 47  1  0  0  0  0
 22 30  1  0  0  0  0
 22 31  1  0  0  0  0
 21 28  1  0  0  0  0
 21 29  1  0  0  0  0
 33 38  1  0  0  0  0
  8 13  1  0  0  0  0
 18 27  1  0  0  0  0
 42 44  1  0  0  0  0
  7 12  1  0  0  0  0
 32 37  1  0  0  0  0
 17 26  1  0  0  0  0
M  CHG  1  24  -1
M  END
$$$$

  -OEChem-05262214473D

 47 46  0     1  0  0  0  0  0999 V2000
    0.5093   -4.7265    3.0306 C   0  0  0  0  0  0  0  0  0  0  0  0
    1.2735   -4.4402    3.9448 O   0  0  0  0  0  0  0  0  0  0  0  0
   -0.4465   -5.8608    3.1982 C   0  0  0  0  0  0  0  0  0  0  0  0
   -0.0219   -6.8213    2.8645 H   0  0  0  0  0  0  0  0  0  0  0  0
   -0.7314   -6.0185    4.2509 H   0  0  0  0  0  0  0  0  0  0  0  0
   -1.3983   -5.7596    2.6527 H   0  0  0  0  0  0  0  0  0  0  0  0
    0.4252   -4.0886    1.8040 N   0  0  0  0  0  0  0  0  0  0  0  0
    1.2532   -2.9707    1.4349 C   0  0  2  0  0  0  0  0  0  0  0  0
    0.3395   -1.8293    1.0083 C   0  0  0  0  0  0  0  0  0  0  0  0
   -0.8136   -2.0027    0.6194 O   0  0  0  0  0  0  0  0  0  0  0  0
    2.2176   -3.3411    0.3189 C   0  0  0  0  0  0  0  0  0  0  0  0
   -0.2574   -4.4279    1.1287 H   0  0  0  0  0  0  0  0  0  0  0  0
    1.8087   -2.6785    2.3327 H   0  0  0  0  0  0  0  0  0  0  0  0
    1.6793   -3.6366   -0.5890 H   0  0  0  0  0  0  0  0  0  0  0  0
    2.8662   -2.4980    0.0589 H   0  0  0  0  0  0  0  0  0  0  0  0
    2.8538   -4.1816    0.6166 H   0  0  0  0  0  0  0  0  0  0  0  0
    0.9758   -0.5952    1.0708 N   0  0  0  0  0  0  0  0  0  0  0  0
    0.3258    0.6374    0.7059 C   0  0  2  0  0  0  0  0  0  0  0  0
   -1.0964    0.2955    0.2743 C   0  0  0  0  0  0  0  0  0  0  0  0
   -1.8966   -0.2856    1.0046 O   0  0  0  0  0  0  0  0  0  0  0  0
    1.0660    1.3644   -0.4232 C   0  0  0  0  0  0  0  0  0  0  0  0
    2.4427    1.8851   -0.0124 C   0  0  0  0  0  0  0  0  0  0  0  0
    3.2473    2.6019   -1.1017 C   0  0  0  0  0  0  0  0  0  0  0  0
    2.7248    2.5517   -2.2524 O   0  5  0  0  0  0  0  0  0  0  0  0
    4.3142    3.1644   -0.7310 O   0  0  0  0  0  0  0  0  0  0  0  0
    1.9288   -0.5463    1.4242 H   0  0  0  0  0  0  0  0  0  0  0  0
    0.2809    1.2494    1.6132 H   0  0  0  0  0  0  0  0  0  0  0  0
    0.4570    2.1973   -0.7959 H   0  0  0  0  0  0  0  0  0  0  0  0
    1.1935    0.6803   -1.2728 H   0  0  0  0  0  0  0  0  0  0  0  0
    2.3486    2.5459    0.8576 H   0  0  0  0  0  0  0  0  0  0  0  0
    3.0534    1.0318    0.3091 H   0  0  0  0  0  0  0  0  0  0  0  0
   -1.3489    0.6742   -1.0369 N   0  0  0  0  0  0  0  0  0  0  0  0
   -2.6186    0.4470   -1.6872 C   0  0  2  0  0  0  0  0  0  0  0  0
   -2.4035    0.5585   -3.1908 C   0  0  0  0  0  0  0  0  0  0  0  0
   -1.4631    1.1729   -3.6901 O   0  0  0  0  0  0  0  0  0  0  0  0
   -3.6686    1.4398   -1.2133 C   0  0  0  0  0  0  0  0  0  0  0  0
   -0.6305    1.1642   -1.5617 H   0  0  0  0  0  0  0  0  0  0  0  0
   -2.9242   -0.5746   -1.4362 H   0  0  0  0  0  0  0  0  0  0  0  0
   -3.3799    2.4689   -1.4560 H   0  0  0  0  0  0  0  0  0  0  0  0
   -4.6377    1.2482   -1.6858 H   0  0  0  0  0  0  0  0  0  0  0  0
   -3.8006    1.3789   -0.1276 H   0  0  0  0  0  0  0  0  0  0  0  0
   -3.4089   -0.0723   -3.9101 N   0  0  0  0  0  0  0  0  0  0  0  0
   -3.4373   -0.0961   -5.3539 C   0  0  0  0  0  0  0  0  0  0  0  0
   -4.1395   -0.5736   -3.4134 H   0  0  0  0  0  0  0  0  0  0  0  0
   -4.0322    0.7522   -5.7235 H   0  0  0  0  0  0  0  0  0  0  0  0
   -2.4108   -0.0205   -5.7420 H   0  0  0  0  0  0  0  0  0  0  0  0
   -3.8902   -1.0382   -5.6962 H   0  0  0  0  0  0  0  0  0  0  0  0
  1  3  1  0  0  0  0
  1  7  1  0  0  0  0
  1  2  2  0  0  0  0
 33 34  1  0  0  0  0
 34 42  1  0  0  0  0
 34 35  2  0  0  0  0
  8  9  1  0  0  0  0
  9 17  1  0  0  0  0
  9 10  2  0  0  0  0
 18 19  1  0  0  0  0
 19 32  1  0  0  0  0
 19 20  2  0  0  0  0
 22 23  1  0  0  0  0
 23 24  1  0  0  0  0
 23 25  2  0  0  0  0
 33 36  1  0  0  0  0
  8 11  1  0  0  0  0
 42 43  1  0  0  0  0
 21 22  1  0  0  0  0
 18 21  1  0  0  0  0
 32 33  1  0  0  0  0
  7  8  1  0  0  0  0
 17 18  1  0  0  0  0
  3  4  1  0  0  0  0
  3  5  1  0  0  0  0
  3  6  1  0  0  0  0
 36 39  1  0  0  0  0
 36 40  1  0  0  0  0
 36 41  1  0  0  0  0
 11 14  1  0  0  0  0
 11 15  1  0  0  0  0
 11 16  1  0  0  0  0
 43 45  1  0  0  0  0
 43 46  1  0  0  0  0
 43 47  1  0  0  0  0
 22 30  1  0  0  0  0
 22 31  1  0  0  0  0
 21 28  1  0  0  0  0
 21 29  1  0  0  0  0
 33 38  1  0  0  0  0
  8 13  1  0  0  0  0
 18 27  1  0  0  0  0
 42 44  1  0  0  0  0
  7 12  1  0  0  0  0
 32 37  1  0  0  0  0
 17 26  1  0  0  0  0
M  CHG  1  24  -1
M  END
$$$$

  -OEChem-05262214473D

 47 46  0     1  0  0  0  0  0999 V2000
    0.5093   -4.7265    3.0306 C   0  0  0  0  0  0  0  0  0  0  0  0
    1.2735   -4.4402    3.9448 O   0  0  0  0  0  0  0  0  0  0  0  0
   -0.4465   -5.8608    3.1982 C   0  0  0  0  0  0  0  0  0  0  0  0
   -0.0219   -6.8213    2.8645 H   0  0  0  0  0  0  0  0  0  0  0  0
   -0.7314   -6.0185    4.2509 H   0  0  0  0  0  0  0  0  0  0  0  0
   -1.3983   -5.7596    2.6527 H   0  0  0  0  0  0  0  0  0  0  0  0
    0.4252   -4.0886    1.8040 N   0  0  0  0  0  0  0  0  0  0  0  0
    1.2532   -2.9707    1.4349 C   0  0  2  0  0  0  0  0  0  0  0  0
    0.3395   -1.8293    1.0083 C   0  0  0  0  0  0  0  0  0  0  0  0
   -0.8136   -2.0027    0.6194 O   0  0  0  0  0  0  0  0  0  0  0  0
    2.2176   -3.3411    0.3189 C   0  0  0  0  0  0  0  0  0  0  0  0
   -0.2574   -4.4279    1.1287 H   0  0  0  0  0  0  0  0  0  0  0  0
    1.8087   -2.6785    2.3327 H   0  0  0  0  0  0  0  0  0  0  0  0
    1.6793   -3.6366   -0.5890 H   0  0  0  0  0  0  0  0  0  0  0  0
    2.8662   -2.4980    0.0589 H   0  0  0  0  0  0  0  0  0  0  0  0
    2.8538   -4.1816    0.6166 H   0  0  0  0  0  0  0  0  0  0  0  0
    0.9758   -0.5952    1.0708 N   0  0  0  0  0  0  0  0  0  0  0  0
    0.3258    0.6374    0.7059 C   0  0  2  0  0  0  0  0  0  0  0  0
   -1.0964    0.2955    0.2743 C   0  0  0  0  0  0  0  0  0  0  0  0
   -1.9755   -0.0360    1.0671 O   0  0  0  0  0  0  0  0  0  0  0  0
    1.0660    1.3644   -0.4232 C   0  0  0  0  0  0  0  0  0  0  0  0
    2.4427    1.8851   -0.0124 C   0  0  0  0  0  0  0  0  0  0  0  0
    3.2473    2.6019   -1.1017 C   0  0  0  0  0  0  0  0  0  0  0  0
    2.7248    2.5517   -2.2524 O   0  5  0  0  0  0  0  0  0  0  0  0
    4.3142    3.1644   -0.7310 O   0  0  0  0  0  0  0  0  0  0  0  0
    1.9288   -0.5463    1.4242 H   0  0  0  0  0  0  0  0  0  0  0  0
    0.2809    1.2494    1.6132 H   0  0  0  0  0  0  0  0  0  0  0  0
    0.4570    2.1973   -0.7959 H   0  0  0  0  0  0  0  0  0  0  0  0
    1.1935    0.6803   -1.2728 H   0  0  0  0  0  0  0  0  0  0  0  0
    2.3486    2.5459    0.8576 H   0  0  0  0  0  0  0  0  0  0  0  0
    3.0534    1.0318    0.3091 H   0  0  0  0  0  0  0  0  0  0  0  0
   -1.2531    0.3594   -1.1033 N   0  0  0  0  0  0  0  0  0  0  0  0
   -2.5035    0.0650   -1.7640 C   0  0  2  0  0  0  0  0  0  0  0  0
   -2.2066   -0.2074   -3.2327 C   0  0  0  0  0  0  0  0  0  0  0  0
   -1.1966    0.2033   -3.8003 O   0  0  0  0  0  0  0  0  0  0  0  0
   -3.4923    1.2105   -1.6127 C   0  0  0  0  0  0  0  0  0  0  0  0
   -0.4727    0.6582   -1.6807 H   0  0  0  0  0  0  0  0  0  0  0  0
   -2.9021   -0.8421   -1.2970 H   0  0  0  0  0  0  0  0  0  0  0  0
   -3.1102    2.1282   -2.0747 H   0  0  0  0  0  0  0  0  0  0  0  0
   -4.4493    0.9742   -2.0896 H   0  0  0  0  0  0  0  0  0  0  0  0
   -3.6818    1.4247   -0.5554 H   0  0  0  0  0  0  0  0  0  0  0  0
   -3.2230   -0.9265   -3.8459 N   0  0  0  0  0  0  0  0  0  0  0  0
   -3.1824   -1.2992   -5.2407 C   0  0  0  0  0  0  0  0  0  0  0  0
   -4.0150   -1.2423   -3.2938 H   0  0  0  0  0  0  0  0  0  0  0  0
   -3.6885   -0.5291   -5.8414 H   0  0  0  0  0  0  0  0  0  0  0  0
   -2.1354   -1.3885   -5.5659 H   0  0  0  0  0  0  0  0  0  0  0  0
   -3.6923   -2.2643   -5.3772 H   0  0  0  0  0  0  0  0  0  0  0  0
  1  3  1  0  0  0  0
  1  7  1  0  0  0  0
  1  2  2  0  0  0  0
 33 34  1  0  0  0  0
 34 42  1  0  0  0  0
 34 35  2  0  0  0  0
  8  9  1  0  0  0  0
  9 17  1  0  0  0  0
  9 10  2  0  0  0  0
 18 19  1  0  0  0  0
 19 32  1  0  0  0  0
 19 20  2  0  0  0  0
 22 23  1  0  0  0  0
 23 24  1  0  0  0  0
 23 25  2  0  0  0  0
 33 36  1  0  0  0  0
  8 11  1  0  0  0  0
 42 43  1  0  0  0  0
 21 22  1  0  0  0  0
 18 21  1  0  0  0  0
 32 33  1  0  0  0  0
  7  8  1  0  0  0  0
 17 18  1  0  0  0  0
  3  4  1  0  0  0  0
  3  5  1  0  0  0  0
  3  6  1  0  0  0  0
 36 39  1  0  0  0  0
 36 40  1  0  0  0  0
 36 41  1  0  0  0  0
 11 14  1  0  0  0  0
 11 15  1  0  0  0  0
 11 16  1  0  0  0  0
 43 45  1  0  0  0  0
 43 46  1  0  0  0  0
 43 47  1  0  0  0  0
 22 30  1  0  0  0  0
 22 31  1  0  0  0  0
 21 28  1  0  0  0  0
 21 29  1  0  0  0  0
 33 38  1  0  0  0  0
  8 13  1  0  0  0  0
 18 27  1  0  0  0  0
 42 44  1  0  0  0  0
  7 12  1  0  0  0  0
 32 37  1  0  0  0  0
 17 26  1  0  0  0  0
M  CHG  1  24  -1
M  END
$$$$

  -OEChem-05262214473D

 47 46  0     1  0  0  0  0  0999 V2000
    0.5093   -4.7265    3.0306 C   0  0  0  0  0  0  0  0  0  0  0  0
    1.2735   -4.4402    3.9448 O   0  0  0  0  0  0  0  0  0  0  0  0
   -0.4465   -5.8608    3.1982 C   0  0  0  0  0  0  0  0  0  0  0  0
   -0.0219   -6.8213    2.8645 H   0  0  0  0  0  0  0  0  0  0  0  0
   -0.7314   -6.0185    4.2509 H   0  0  0  0  0  0  0  0  0  0  0  0
   -1.3983   -5.7596    2.6527 H   0  0  0  0  0  0  0  0  0  0  0  0
    0.4252   -4.0886    1.8040 N   0  0  0  0  0  0  0  0  0  0  0  0
    1.2532   -2.9707    1.4349 C   0  0  2  0  0  0  0  0  0  0  0  0
    0.3395   -1.8293    1.0083 C   0  0  0  0  0  0  0  0  0  0  0  0
   -0.8136   -2.0027    0.6194 O   0  0  0  0  0  0  0  0  0  0  0  0
    2.2176   -3.3411    0.3189 C   0  0  0  0  0  0  0  0  0  0  0  0
   -0.2574   -4.4279    1.1287 H   0  0  0  0  0  0  0  0  0  0  0  0
    1.8087   -2.6785    2.3327 H   0  0  0  0  0  0  0  0  0  0  0  0
    1.6793   -3.6366   -0.5890 H   0  0  0  0  0  0  0  0  0  0  0  0
    2.8662   -2.4980    0.0589 H   0  0  0  0  0  0  0  0  0  0  0  0
    2.8538   -4.1816    0.6166 H   0  0  0  0  0  0  0  0  0  0  0  0
    0.9758   -0.5952    1.0708 N   0  0  0  0  0  0  0  0  0  0  0  0
    0.3258    0.6374    0.7059 C   0  0  2  0  0  0  0  0  0  0  0  0
   -1.0964    0.2955    0.2743 C   0  0  0  0  0  0  0  0  0  0  0  0
   -2.0371    0.2259    1.0626 O   0  0  0  0  0  0  0  0  0  0  0  0
    1.0660    1.3644   -0.4232 C   0  0  0  0  0  0  0  0  0  0  0  0
    2.4427    1.8851   -0.0124 C   0  0  0  0  0  0  0  0  0  0  0  0
    3.2473    2.6019   -1.1017 C   0  0  0  0  0  0  0  0  0  0  0  0
    2.7248    2.5517   -2.2524 O   0  5  0  0  0  0  0  0  0  0  0  0
    4.3142    3.1644   -0.7310 O   0  0  0  0  0  0  0  0  0  0  0  0
    1.9288   -0.5463    1.4242 H   0  0  0  0  0  0  0  0  0  0  0  0
    0.2809    1.2494    1.6132 H   0  0  0  0  0  0  0  0  0  0  0  0
    0.4570    2.1973   -0.7959 H   0  0  0  0  0  0  0  0  0  0  0  0
    1.1935    0.6803   -1.2728 H   0  0  0  0  0  0  0  0  0  0  0  0
    2.3486    2.5459    0.8576 H   0  0  0  0  0  0  0  0  0  0  0  0
    3.0534    1.0318    0.3091 H   0  0  0  0  0  0  0  0  0  0  0  0
   -1.1797    0.0322   -1.0859 N   0  0  0  0  0  0  0  0  0  0  0  0
   -2.4159   -0.3308   -1.7393 C   0  0  2  0  0  0  0  0  0  0  0  0
   -2.0702   -0.9718   -3.0769 C   0  0  0  0  0  0  0  0  0  0  0  0
   -1.0038   -0.7793   -3.6573 O   0  0  0  0  0  0  0  0  0  0  0  0
   -3.3156    0.8798   -1.9330 C   0  0  0  0  0  0  0  0  0  0  0  0
   -0.3505    0.1291   -1.6644 H   0  0  0  0  0  0  0  0  0  0  0  0
   -2.9085   -1.0686   -1.0966 H   0  0  0  0  0  0  0  0  0  0  0  0
   -2.8388    1.6300   -2.5744 H   0  0  0  0  0  0  0  0  0  0  0  0
   -4.2639    0.5983   -2.4025 H   0  0  0  0  0  0  0  0  0  0  0  0
   -3.5389    1.3571   -0.9728 H   0  0  0  0  0  0  0  0  0  0  0  0
   -3.1098   -1.7497   -3.5670 N   0  0  0  0  0  0  0  0  0  0  0  0
   -3.0310   -2.4527   -4.8262 C   0  0  0  0  0  0  0  0  0  0  0  0
   -3.9507   -1.8684   -3.0097 H   0  0  0  0  0  0  0  0  0  0  0  0
   -3.4434   -1.8204   -5.6262 H   0  0  0  0  0  0  0  0  0  0  0  0
   -1.9798   -2.6875   -5.0497 H   0  0  0  0  0  0  0  0  0  0  0  0
   -3.6094   -3.3861   -4.7617 H   0  0  0  0  0  0  0  0  0  0  0  0
  1  3  1  0  0  0  0
  1  7  1  0  0  0  0
  1  2  2  0  0  0  0
 33 34  1  0  0  0  0
 34 42  1  0  0  0  0
 34 35  2  0  0  0  0
  8  9  1  0  0  0  0
  9 17  1  0  0  0  0
  9 10  2  0  0  0  0
 18 19  1  0  0  0  0
 19 32  1  0  0  0  0
 19 20  2  0  0  0  0
 22 23  1  0  0  0  0
 23 24  1  0  0  0  0
 23 25  2  0  0  0  0
 33 36  1  0  0  0  0
  8 11  1  0  0  0  0
 42 43  1  0  0  0  0
 21 22  1  0  0  0  0
 18 21  1  0  0  0  0
 32 33  1  0  0  0  0
  7  8  1  0  0  0  0
 17 18  1  0  0  0  0
  3  4  1  0  0  0  0
  3  5  1  0  0  0  0
  3  6  1  0  0  0  0
 36 39  1  0  0  0  0
 36 40  1  0  0  0  0
 36 41  1  0  0  0  0
 11 14  1  0  0  0  0
 11 15  1  0  0  0  0
 11 16  1  0  0  0  0
 43 45  1  0  0  0  0
 43 46  1  0  0  0  0
 43 47  1  0  0  0  0
 22 30  1  0  0  0  0
 22 31  1  0  0  0  0
 21 28  1  0  0  0  0
 21 29  1  0  0  0  0
 33 38  1  0  0  0  0
  8 13  1  0  0  0  0
 18 27  1  0  0  0  0
 42 44  1  0  0  0  0
  7 12  1  0  0  0  0
 32 37  1  0  0  0  0
 17 26  1  0  0  0  0
M  CHG  1  24  -1
M  END
$$$$

  -OEChem-05262214473D

 47 46  0     1  0  0  0  0  0999 V2000
    0.5093   -4.7265    3.0306 C   0  0  0  0  0  0  0  0  0  0  0  0
    1.2735   -4.4402    3.9448 O   0  0  0  0  0  0  0  0  0  0  0  0
   -0.4465   -5.8608    3.1982 C   0  0  0  0  0  0  0  0  0  0  0  0
   -0.0219   -6.8213    2.8645 H   0  0  0  0  0  0  0  0  0  0  0  0
   -0.7314   -6.0185    4.2509 H   0  0  0  0  0  0  0  0  0  0  0  0
   -1.3983   -5.7596    2.6527 H   0  0  0  0  0  0  0  0  0  0  0  0
    0.4252   -4.0886    1.8040 N   0  0  0  0  0  0  0  0  0  0  0  0
    1.2532   -2.9707    1.4349 C   0  0  2  0  0  0  0  0  0  0  0  0
    0.3395   -1.8293    1.0083 C   0  0  0  0  0  0  0  0  0  0  0  0
   -0.8136   -2.0027    0.6194 O   0  0  0  0  0  0  0  0  0  0  0  0
    2.2176   -3.3411    0.3189 C   0  0  0  0  0  0  0  0  0  0  0  0
   -0.2574   -4.4279    1.1287 H   0  0  0  0  0  0  0  0  0  0  0  0
    1.8087   -2.6785    2.3327 H   0  0  0  0  0  0  0  0  0  0  0  0
    1.6793   -3.6366   -0.5890 H   0  0  0  0  0  0  0  0  0  0  0  0
    2.8662   -2.4980    0.0589 H   0  0  0  0  0  0  0  0  0  0  0  0
    2.8538   -4.1816    0.6166 H   0  0  0  0  0  0  0  0  0  0  0  0
    0.9758   -0.5952    1.0708 N   0  0  0  0  0  0  0  0  0  0  0  0
    0.3258    0.6374    0.7059 C   0  0  2  0  0  0  0  0  0  0  0  0
   -1.0964    0.2955    0.2743 C   0  0  0  0  0  0  0  0  0  0  0  0
   -2.0772    0.4823    0.9915 O   0  0  0  0  0  0  0  0  0  0  0  0
    1.0660    1.3644   -0.4232 C   0  0  0  0  0  0  0  0  0  0  0  0
    2.4427    1.8851   -0.0124 C   0  0  0  0  0  0  0  0  0  0  0  0
    3.2473    2.6019   -1.1017 C   0  0  0  0  0  0  0  0  0  0  0  0
    2.7248    2.5517   -2.2524 O   0  5  0  0  0  0  0  0  0  0  0  0
    4.3142    3.1644   -0.7310 O   0  0  0  0  0  0  0  0  0  0  0  0
    1.9288   -0.5463    1.4242 H   0  0  0  0  0  0  0  0  0  0  0  0
    0.2809    1.2494    1.6132 H   0  0  0  0  0  0  0  0  0  0  0  0
    0.4570    2.1973   -0.7959 H   0  0  0  0  0  0  0  0  0  0  0  0
    1.1935    0.6803   -1.2728 H   0  0  0  0  0  0  0  0  0  0  0  0
    2.3486    2.5459    0.8576 H   0  0  0  0  0  0  0  0  0  0  0  0
    3.0534    1.0318    0.3091 H   0  0  0  0  0  0  0  0  0  0  0  0
   -1.1338   -0.2850   -0.9858 N   0  0  0  0  0  0  0  0  0  0  0  0
   -2.3616   -0.7137   -1.6148 C   0  0  2  0  0  0  0  0  0  0  0  0
   -2.0034   -1.6825   -2.7339 C   0  0  0  0  0  0  0  0  0  0  0  0
   -0.8979   -1.7081   -3.2707 O   0  0  0  0  0  0  0  0  0  0  0  0
   -3.1506    0.4701   -2.1523 C   0  0  0  0  0  0  0  0  0  0  0  0
   -0.2721   -0.3870   -1.5138 H   0  0  0  0  0  0  0  0  0  0  0  0
   -2.9429   -1.2384   -0.8488 H   0  0  0  0  0  0  0  0  0  0  0  0
   -2.5841    1.0083   -2.9211 H   0  0  0  0  0  0  0  0  0  0  0  0
   -4.0943    0.1461   -2.6033 H   0  0  0  0  0  0  0  0  0  0  0  0
   -3.3816    1.1806   -1.3513 H   0  0  0  0  0  0  0  0  0  0  0  0
   -3.0769   -2.4859   -3.0923 N   0  0  0  0  0  0  0  0  0  0  0  0
   -2.9932   -3.4779   -4.1386 C   0  0  0  0  0  0  0  0  0  0  0  0
   -3.9510   -2.4094   -2.5805 H   0  0  0  0  0  0  0  0  0  0  0  0
   -3.3137   -3.0336   -5.0924 H   0  0  0  0  0  0  0  0  0  0  0  0
   -1.9546   -3.8291   -4.2285 H   0  0  0  0  0  0  0  0  0  0  0  0
   -3.6473   -4.3272   -3.8916 H   0  0  0  0  0  0  0  0  0  0  0  0
  1  3  1  0  0  0  0
  1  7  1  0  0  0  0
  1  2  2  0  0  0  0
 33 34  1  0  0  0  0
 34 42  1  0  0  0  0
 34 35  2  0  0  0  0
  8  9  1  0  0  0  0
  9 17  1  0  0  0  0
  9 10  2  0  0  0  0
 18 19  1  0  0  0  0
 19 32  1  0  0  0  0
 19 20  2  0  0  0  0
 22 23  1  0  0  0  0
 23 24  1  0  0  0  0
 23 25  2  0  0  0  0
 33 36  1  0  0  0  0
  8 11  1  0  0  0  0
 42 43  1  0  0  0  0
 21 22  1  0  0  0  0
 18 21  1  0  0  0  0
 32 33  1  0  0  0  0
  7  8  1  0  0  0  0
 17 18  1  0  0  0  0
  3  4  1  0  0  0  0
  3  5  1  0  0  0  0
  3  6  1  0  0  0  0
 36 39  1  0  0  0  0
 36 40  1  0  0  0  0
 36 41  1  0  0  0  0
 11 14  1  0  0  0  0
 11 15  1  0  0  0  0
 11 16  1  0  0  0  0
 43 45  1  0  0  0  0
 43 46  1  0  0  0  0
 43 47  1  0  0  0  0
 22 30  1  0  0  0  0
 22 31  1  0  0  0  0
 21 28  1  0  0  0  0
 21 29  1  0  0  0  0
 33 38  1  0  0  0  0
  8 13  1  0  0  0  0
 18 27  1  0  0  0  0
 42 44  1  0  0  0  0
  7 12  1  0  0  0  0
 32 37  1  0  0  0  0
 17 26  1  0  0  0  0
M  CHG  1  24  -1
M  END
$$$$

  -OEChem-05262214473D

 47 46  0     1  0  0  0  0  0999 V2000
    0.5093   -4.7265    3.0306 C   0  0  0  0  0  0  0  0  0  0  0  0
    1.2735   -4.4402    3.9448 O   0  0  0  0  0  0  0  0  0  0  0  0
   -0.4465   -5.8608    3.1982 C   0  0  0  0  0  0  0  0  0  0  0  0
   -0.0219   -6.8213    2.8645 H   0  0  0  0  0  0  0  0  0  0  0  0
   -0.7314   -6.0185    4.2509 H   0  0  0  0  0  0  0  0  0  0  0  0
   -1.3983   -5.7596    2.6527 H   0  0  0  0  0  0  0  0  0  0  0  0
    0.4252   -4.0886    1.8040 N   0  0  0  0  0  0  0  0  0  0  0  0
    1.2532   -2.9707    1.4349 C   0  0  2  0  0  0  0  0  0  0  0  0
    0.3395   -1.8293    1.0083 C   0  0  0  0  0  0  0  0  0  0  0  0
   -0.8136   -2.0027    0.6194 O   0  0  0  0  0  0  0  0  0  0  0  0
    2.2176   -3.3411    0.3189 C   0  0  0  0  0  0  0  0  0  0  0  0
   -0.2574   -4.4279    1.1287 H   0  0  0  0  0  0  0  0  0  0  0  0
    1.8087   -2.6785    2.3327 H   0  0  0  0  0  0  0  0  0  0  0  0
    1.6793   -3.6366   -0.5890 H   0  0  0  0  0  0  0  0  0  0  0  0
    2.8662   -2.4980    0.0589 H   0  0  0  0  0  0  0  0  0  0  0  0
    2.8538   -4.1816    0.6166 H   0  0  0  0  0  0  0  0  0  0  0  0
    0.9758   -0.5952    1.0708 N   0  0  0  0  0  0  0  0  0  0  0  0
    0.3258    0.6374    0.7059 C   0  0  2  0  0  0  0  0  0  0  0  0
   -1.0964    0.2955    0.2743 C   0  0  0  0  0  0  0  0  0  0  0  0
   -2.0930    0.7158    0.8587 O   0  0  0  0  0  0  0  0  0  0  0  0
    1.0660    1.3644   -0.4232 C   0  0  0  0  0  0  0  0  0  0  0  0
    2.4427    1.8851   -0.0124 C   0  0  0  0  0  0  0  0  0  0  0  0
    3.2473    2.6019   -1.1017 C   0  0  0  0  0  0  0  0  0  0  0  0
    2.7248    2.5517   -2.2524 O   0  5  0  0  0  0  0  0  0  0  0  0
    4.3142    3.1644   -0.7310 O   0  0  0  0  0  0  0  0  0  0  0  0
    1.9288   -0.5463    1.4242 H   0  0  0  0  0  0  0  0  0  0  0  0
    0.2809    1.2494    1.6132 H   0  0  0  0  0  0  0  0  0  0  0  0
    0.4570    2.1973   -0.7959 H   0  0  0  0  0  0  0  0  0  0  0  0
    1.1935    0.6803   -1.2728 H   0  0  0  0  0  0  0  0  0  0  0  0
    2.3486    2.5459    0.8576 H   0  0  0  0  0  0  0  0  0  0  0  0
    3.0534    1.0318    0.3091 H   0  0  0  0  0  0  0  0  0  0  0  0
   -1.1185   -0.5706   -0.8100 N   0  0  0  0  0  0  0  0  0  0  0  0
   -2.3445   -1.0574   -1.3989 C   0  0  2  0  0  0  0  0  0  0  0  0
   -2.0109   -2.2911   -2.2273 C   0  0  0  0  0  0  0  0  0  0  0  0
   -0.8860   -2.5197   -2.6670 O   0  0  0  0  0  0  0  0  0  0  0  0
   -3.0084    0.0093   -2.2557 C   0  0  0  0  0  0  0  0  0  0  0  0
   -0.2430   -0.8548   -1.2393 H   0  0  0  0  0  0  0  0  0  0  0  0
   -3.0029   -1.3402   -0.5704 H   0  0  0  0  0  0  0  0  0  0  0  0
   -2.3636    0.3055   -3.0911 H   0  0  0  0  0  0  0  0  0  0  0  0
   -3.9519   -0.3516   -2.6782 H   0  0  0  0  0  0  0  0  0  0  0  0
   -3.2206    0.9072   -1.6652 H   0  0  0  0  0  0  0  0  0  0  0  0
   -3.1266   -3.0847   -2.4542 N   0  0  0  0  0  0  0  0  0  0  0  0
   -3.0717   -4.3050   -3.2247 C   0  0  0  0  0  0  0  0  0  0  0  0
   -4.0157   -2.8283   -2.0353 H   0  0  0  0  0  0  0  0  0  0  0  0
   -3.3083   -4.0862   -4.2764 H   0  0  0  0  0  0  0  0  0  0  0  0
   -2.0615   -4.7354   -3.1582 H   0  0  0  0  0  0  0  0  0  0  0  0
   -3.8032   -5.0234   -2.8263 H   0  0  0  0  0  0  0  0  0  0  0  0
  1  3  1  0  0  0  0
  1  7  1  0  0  0  0
  1  2  2  0  0  0  0
 33 34  1  0  0  0  0
 34 42  1  0  0  0  0
 34 35  2  0  0  0  0
  8  9  1  0  0  0  0
  9 17  1  0  0  0  0
  9 10  2  0  0  0  0
 18 19  1  0  0  0  0
 19 32  1  0  0  0  0
 19 20  2  0  0  0  0
 22 23  1  0  0  0  0
 23 24  1  0  0  0  0
 23 25  2  0  0  0  0
 33 36  1  0  0  0  0
  8 11  1  0  0  0  0
 42 43  1  0  0  0  0
 21 22  1  0  0  0  0
 18 21  1  0  0  0  0
 32 33  1  0  0  0  0
  7  8  1  0  0  0  0
 17 18  1  0  0  0  0
  3  4  1  0  0  0  0
  3  5  1  0  0  0  0
  3  6  1  0  0  0  0
 36 39  1  0  0  0  0
 36 40  1  0  0  0  0
 36 41  1  0  0  0  0
 11 14  1  0  0  0  0
 11 15  1  0  0  0  0
 11 16  1  0  0  0  0
 43 45  1  0  0  0  0
 43 46  1  0  0  0  0
 43 47  1  0  0  0  0
 22 30  1  0  0  0  0
 22 31  1  0  0  0  0
 21 28  1  0  0  0  0
 21 29  1  0  0  0  0
 33 38  1  0  0  0  0
  8 13  1  0  0  0  0
 18 27  1  0  0  0  0
 42 44  1  0  0  0  0
  7 12  1  0  0  0  0
 32 37  1  0  0  0  0
 17 26  1  0  0  0  0
M  CHG  1  24  -1
M  END
$$$$

  -OEChem-05262214473D

 47 46  0     1  0  0  0  0  0999 V2000
    0.5093   -4.7265    3.0306 C   0  0  0  0  0  0  0  0  0  0  0  0
    1.2735   -4.4402    3.9448 O   0  0  0  0  0  0  0  0  0  0  0  0
   -0.4465   -5.8608    3.1982 C   0  0  0  0  0  0  0  0  0  0  0  0
   -0.0219   -6.8213    2.8645 H   0  0  0  0  0  0  0  0  0  0  0  0
   -0.7314   -6.0185    4.2509 H   0  0  0  0  0  0  0  0  0  0  0  0
   -1.3983   -5.7596    2.6527 H   0  0  0  0  0  0  0  0  0  0  0  0
    0.4252   -4.0886    1.8040 N   0  0  0  0  0  0  0  0  0  0  0  0
    1.2532   -2.9707    1.4349 C   0  0  2  0  0  0  0  0  0  0  0  0
    0.3395   -1.8293    1.0083 C   0  0  0  0  0  0  0  0  0  0  0  0
   -0.8136   -2.0027    0.6194 O   0  0  0  0  0  0  0  0  0  0  0  0
    2.2176   -3.3411    0.3189 C   0  0  0  0  0  0  0  0  0  0  0  0
   -0.2574   -4.4279    1.1287 H   0  0  0  0  0  0  0  0  0  0  0  0
    1.8087   -2.6785    2.3327 H   0  0  0  0  0  0  0  0  0  0  0  0
    1.6793   -3.6366   -0.5890 H   0  0  0  0  0  0  0  0  0  0  0  0
    2.8662   -2.4980    0.0589 H   0  0  0  0  0  0  0  0  0  0  0  0
    2.8538   -4.1816    0.6166 H   0  0  0  0  0  0  0  0  0  0  0  0
    0.9758   -0.5952    1.0708 N   0  0  0  0  0  0  0  0  0  0  0  0
    0.3258    0.6374    0.7059 C   0  0  2  0  0  0  0  0  0  0  0  0
   -1.0964    0.2955    0.2743 C   0  0  0  0  0  0  0  0  0  0  0  0
   -2.0834    0.9104    0.6730 O   0  0  0  0  0  0  0  0  0  0  0  0
    1.0660    1.3644   -0.4232 C   0  0  0  0  0  0  0  0  0  0  0  0
    2.4427    1.8851   -0.0124 C   0  0  0  0  0  0  0  0  0  0  0  0
    3.2473    2.6019   -1.1017 C   0  0  0  0  0  0  0  0  0  0  0  0
    2.7248    2.5517   -2.2524 O   0  5  0  0  0  0  0  0  0  0  0  0
    4.3142    3.1644   -0.7310 O   0  0  0  0  0  0  0  0  0  0  0  0
    1.9288   -0.5463    1.4242 H   0  0  0  0  0  0  0  0  0  0  0  0
    0.2809    1.2494    1.6132 H   0  0  0  0  0  0  0  0  0  0  0  0
    0.4570    2.1973   -0.7959 H   0  0  0  0  0  0  0  0  0  0  0  0
    1.1935    0.6803   -1.2728 H   0  0  0  0  0  0  0  0  0  0  0  0
    2.3486    2.5459    0.8576 H   0  0  0  0  0  0  0  0  0  0  0  0
    3.0534    1.0318    0.3091 H   0  0  0  0  0  0  0  0  0  0  0  0
   -1.1349   -0.8052   -0.5703 N   0  0  0  0  0  0  0  0  0  0  0  0
   -2.3657   -1.3386   -1.1065 C   0  0  2  0  0  0  0  0  0  0  0  0
   -2.0921   -2.7561   -1.5914 C   0  0  0  0  0  0  0  0  0  0  0  0
   -0.9690   -3.1588   -1.8873 O   0  0  0  0  0  0  0  0  0  0  0  0
   -2.8989   -0.4711   -2.2361 C   0  0  0  0  0  0  0  0  0  0  0  0
   -0.2650   -1.2426   -0.8595 H   0  0  0  0  0  0  0  0  0  0  0  0
   -3.0845   -1.3669   -0.2804 H   0  0  0  0  0  0  0  0  0  0  0  0
   -2.1922   -0.4306   -3.0729 H   0  0  0  0  0  0  0  0  0  0  0  0
   -3.8465   -0.8609   -2.6223 H   0  0  0  0  0  0  0  0  0  0  0  0
   -3.0669    0.5555   -1.8930 H   0  0  0  0  0  0  0  0  0  0  0  0
   -3.2555   -3.5055   -1.6961 N   0  0  0  0  0  0  0  0  0  0  0  0
   -3.2611   -4.8777   -2.1470 C   0  0  0  0  0  0  0  0  0  0  0  0
   -4.1406   -3.0966   -1.4113 H   0  0  0  0  0  0  0  0  0  0  0  0
   -3.4276   -4.9063   -3.2339 H   0  0  0  0  0  0  0  0  0  0  0  0
   -2.2933   -5.3447   -1.9119 H   0  0  0  0  0  0  0  0  0  0  0  0
   -4.0667   -5.4274   -1.6382 H   0  0  0  0  0  0  0  0  0  0  0  0
  1  3  1  0  0  0  0
  1  7  1  0  0  0  0
  1  2  2  0  0  0  0
 33 34  1  0  0  0  0
 34 42  1  0  0  0  0
 34 35  2  0  0  0  0
  8  9  1  0  0  0  0
  9 17  1  0  0  0  0
  9 10  2  0  0  0  0
 18 19  1  0  0  0  0
 19 32  1  0  0  0  0
 19 20  2  0  0  0  0
 22 23  1  0  0  0  0
 23 24  1  0  0  0  0
 23 25  2  0  0  0  0
 33 36  1  0  0  0  0
  8 11  1  0  0  0  0
 42 43  1  0  0  0  0
 21 22  1  0  0  0  0
 18 21  1  0  0  0  0
 32 33  1  0  0  0  0
  7  8  1  0  0  0  0
 17 18  1  0  0  0  0
  3  4  1  0  0  0  0
  3  5  1  0  0  0  0
  3  6  1  0  0  0  0
 36 39  1  0  0  0  0
 36 40  1  0  0  0  0
 36 41  1  0  0  0  0
 11 14  1  0  0  0  0
 11 15  1  0  0  0  0
 11 16  1  0  0  0  0
 43 45  1  0  0  0  0
 43 46  1  0  0  0  0
 43 47  1  0  0  0  0
 22 30  1  0  0  0  0
 22 31  1  0  0  0  0
 21 28  1  0  0  0  0
 21 29  1  0  0  0  0
 33 38  1  0  0  0  0
  8 13  1  0  0  0  0
 18 27  1  0  0  0  0
 42 44  1  0  0  0  0
  7 12  1  0  0  0  0
 32 37  1  0  0  0  0
 17 26  1  0  0  0  0
M  CHG  1  24  -1
M  END
$$$$

  -OEChem-05262214473D

 47 46  0     1  0  0  0  0  0999 V2000
    0.5093   -4.7265    3.0306 C   0  0  0  0  0  0  0  0  0  0  0  0
    1.2735   -4.4402    3.9448 O   0  0  0  0  0  0  0  0  0  0  0  0
   -0.4465   -5.8608    3.1982 C   0  0  0  0  0  0  0  0  0  0  0  0
   -0.0219   -6.8213    2.8645 H   0  0  0  0  0  0  0  0  0  0  0  0
   -0.7314   -6.0185    4.2509 H   0  0  0  0  0  0  0  0  0  0  0  0
   -1.3983   -5.7596    2.6527 H   0  0  0  0  0  0  0  0  0  0  0  0
    0.4252   -4.0886    1.8040 N   0  0  0  0  0  0  0  0  0  0  0  0
    1.2532   -2.9707    1.4349 C   0  0  2  0  0  0  0  0  0  0  0  0
    0.3395   -1.8293    1.0083 C   0  0  0  0  0  0  0  0  0  0  0  0
   -0.8136   -2.0027    0.6194 O   0  0  0  0  0  0  0  0  0  0  0  0
    2.2176   -3.3411    0.3189 C   0  0  0  0  0  0  0  0  0  0  0  0
   -0.2574   -4.4279    1.1287 H   0  0  0  0  0  0  0  0  0  0  0  0
    1.8087   -2.6785    2.3327 H   0  0  0  0  0  0  0  0  0  0  0  0
    1.6793   -3.6366   -0.5890 H   0  0  0  0  0  0  0  0  0  0  0  0
    2.8662   -2.4980    0.0589 H   0  0  0  0  0  0  0  0  0  0  0  0
    2.8538   -4.1816    0.6166 H   0  0  0  0  0  0  0  0  0  0  0  0
    0.9758   -0.5952    1.0708 N   0  0  0  0  0  0  0  0  0  0  0  0
    0.3258    0.6374    0.7059 C   0  0  2  0  0  0  0  0  0  0  0  0
   -1.0964    0.2955    0.2743 C   0  0  0  0  0  0  0  0  0  0  0  0
   -2.0492    1.0528    0.4473 O   0  0  0  0  0  0  0  0  0  0  0  0
    1.0660    1.3644   -0.4232 C   0  0  0  0  0  0  0  0  0  0  0  0
    2.4427    1.8851   -0.0124 C   0  0  0  0  0  0  0  0  0  0  0  0
    3.2473    2.6019   -1.1017 C   0  0  0  0  0  0  0  0  0  0  0  0
    2.7248    2.5517   -2.2524 O   0  5  0  0  0  0  0  0  0  0  0  0
    4.3142    3.1644   -0.7310 O   0  0  0  0  0  0  0  0  0  0  0  0
    1.9288   -0.5463    1.4242 H   0  0  0  0  0  0  0  0  0  0  0  0
    0.2809    1.2494    1.6132 H   0  0  0  0  0  0  0  0  0  0  0  0
    0.4570    2.1973   -0.7959 H   0  0  0  0  0  0  0  0  0  0  0  0
    1.1935    0.6803   -1.2728 H   0  0  0  0  0  0  0  0  0  0  0  0
    2.3486    2.5459    0.8576 H   0  0  0  0  0  0  0  0  0  0  0  0
    3.0534    1.0318    0.3091 H   0  0  0  0  0  0  0  0  0  0  0  0
   -1.1818   -0.9727   -0.2831 N   0  0  0  0  0  0  0  0  0  0  0  0
   -2.4237   -1.5380   -0.7574 C   0  0  2  0  0  0  0  0  0  0  0  0
   -2.2414   -3.0459   -0.8697 C   0  0  0  0  0  0  0  0  0  0  0  0
   -1.1412   -3.5819   -0.9848 O   0  0  0  0  0  0  0  0  0  0  0  0
   -2.8294   -0.9384   -2.0948 C   0  0  0  0  0  0  0  0  0  0  0  0
   -0.3367   -1.5239   -0.4003 H   0  0  0  0  0  0  0  0  0  0  0  0
   -3.1821   -1.3167    0.0014 H   0  0  0  0  0  0  0  0  0  0  0  0
   -2.0816   -1.1498   -2.8677 H   0  0  0  0  0  0  0  0  0  0  0  0
   -3.7852   -1.3470   -2.4391 H   0  0  0  0  0  0  0  0  0  0  0  0
   -2.9310    0.1496   -2.0193 H   0  0  0  0  0  0  0  0  0  0  0  0
   -3.4548   -3.7196   -0.8698 N   0  0  0  0  0  0  0  0  0  0  0  0
   -3.5486   -5.1567   -0.9787 C   0  0  0  0  0  0  0  0  0  0  0  0
   -4.3171   -3.1960   -0.7510 H   0  0  0  0  0  0  0  0  0  0  0  0
   -3.6633   -5.4382   -2.0359 H   0  0  0  0  0  0  0  0  0  0  0  0
   -2.6341   -5.6154   -0.5745 H   0  0  0  0  0  0  0  0  0  0  0  0
   -4.4197   -5.5115   -0.4084 H   0  0  0  0  0  0  0  0  0  0  0  0
  1  3  1  0  0  0  0
  1  7  1  0  0  0  0
  1  2  2  0  0  0  0
 33 34  1  0  0  0  0
 34 42  1  0  0  0  0
 34 35  2  0  0  0  0
  8  9  1  0  0  0  0
  9 17  1  0  0  0  0
  9 10  2  0  0  0  0
 18 19  1  0  0  0  0
 19 32  1  0  0  0  0
 19 20  2  0  0  0  0
 22 23  1  0  0  0  0
 23 24  1  0  0  0  0
 23 25  2  0  0  0  0
 33 36  1  0  0  0  0
  8 11  1  0  0  0  0
 42 43  1  0  0  0  0
 21 22  1  0  0  0  0
 18 21  1  0  0  0  0
 32 33  1  0  0  0  0
  7  8  1  0  0  0  0
 17 18  1  0  0  0  0
  3  4  1  0  0  0  0
  3  5  1  0  0  0  0
  3  6  1  0  0  0  0
 36 39  1  0  0  0  0
 36 40  1  0  0  0  0
 36 41  1  0  0  0  0
 11 14  1  0  0  0  0
 11 15  1  0  0  0  0
 11 16  1  0  0  0  0
 43 45  1  0  0  0  0
 43 46  1  0  0  0  0
 43 47  1  0  0  0  0
 22 30  1  0  0  0  0
 22 31  1  0  0  0  0
 21 28  1  0  0  0  0
 21 29  1  0  0  0  0
 33 38  1  0  0  0  0
  8 13  1  0  0  0  0
 18 27  1  0  0  0  0
 42 44  1  0  0  0  0
  7 12  1  0  0  0  0
 32 37  1  0  0  0  0
 17 26  1  0  0  0  0
M  CHG  1  24  -1
M  END
$$$$

  -OEChem-05262214473D

 47 46  0     1  0  0  0  0  0999 V2000
    0.5093   -4.7265    3.0306 C   0  0  0  0  0  0  0  0  0  0  0  0
    1.2735   -4.4402    3.9448 O   0  0  0  0  0  0  0  0  0  0  0  0
   -0.4465   -5.8608    3.1982 C   0  0  0  0  0  0  0  0  0  0  0  0
   -0.0219   -6.8213    2.8645 H   0  0  0  0  0  0  0  0  0  0  0  0
   -0.7314   -6.0185    4.2509 H   0  0  0  0  0  0  0  0  0  0  0  0
   -1.3983   -5.7596    2.6527 H   0  0  0  0  0  0  0  0  0  0  0  0
    0.4252   -4.0886    1.8040 N   0  0  0  0  0  0  0  0  0  0  0  0
    1.2532   -2.9707    1.4349 C   0  0  2  0  0  0  0  0  0  0  0  0
    0.3395   -1.8293    1.0083 C   0  0  0  0  0  0  0  0  0  0  0  0
   -0.8136   -2.0027    0.6194 O   0  0  0  0  0  0  0  0  0  0  0  0
    2.2176   -3.3411    0.3189 C   0  0  0  0  0  0  0  0  0  0  0  0
   -0.2574   -4.4279    1.1287 H   0  0  0  0  0  0  0  0  0  0  0  0
    1.8087   -2.6785    2.3327 H   0  0  0  0  0  0  0  0  0  0  0  0
    1.6793   -3.6366   -0.5890 H   0  0  0  0  0  0  0  0  0  0  0  0
    2.8662   -2.4980    0.0589 H   0  0  0  0  0  0  0  0  0  0  0  0
    2.8538   -4.1816    0.6166 H   0  0  0  0  0  0  0  0  0  0  0  0
    0.9758   -0.5952    1.0708 N   0  0  0  0  0  0  0  0  0  0  0  0
    0.3258    0.6374    0.7059 C   0  0  2  0  0  0  0  0  0  0  0  0
   -1.0964    0.2955    0.2743 C   0  0  0  0  0  0  0  0  0  0  0  0
   -1.9926    1.1335    0.1969 O   0  0  0  0  0  0  0  0  0  0  0  0
    1.0660    1.3644   -0.4232 C   0  0  0  0  0  0  0  0  0  0  0  0
    2.4427    1.8851   -0.0124 C   0  0  0  0  0  0  0  0  0  0  0  0
    3.2473    2.6019   -1.1017 C   0  0  0  0  0  0  0  0  0  0  0  0
    2.7248    2.5517   -2.2524 O   0  5  0  0  0  0  0  0  0  0  0  0
    4.3142    3.1644   -0.7310 O   0  0  0  0  0  0  0  0  0  0  0  0
    1.9288   -0.5463    1.4242 H   0  0  0  0  0  0  0  0  0  0  0  0
    0.2809    1.2494    1.6132 H   0  0  0  0  0  0  0  0  0  0  0  0
    0.4570    2.1973   -0.7959 H   0  0  0  0  0  0  0  0  0  0  0  0
    1.1935    0.6803   -1.2728 H   0  0  0  0  0  0  0  0  0  0  0  0
    2.3486    2.5459    0.8576 H   0  0  0  0  0  0  0  0  0  0  0  0
    3.0534    1.0318    0.3091 H   0  0  0  0  0  0  0  0  0  0  0  0
   -1.2560   -1.0618    0.0320 N   0  0  0  0  0  0  0  0  0  0  0  0
   -2.5145   -1.6422   -0.3754 C   0  0  2  0  0  0  0  0  0  0  0  0
   -2.4488   -3.1406   -0.1113 C   0  0  0  0  0  0  0  0  0  0  0  0
   -1.3909   -3.7600   -0.0208 O   0  0  0  0  0  0  0  0  0  0  0  0
   -2.8048   -1.3608   -1.8415 C   0  0  0  0  0  0  0  0  0  0  0  0
   -0.4533   -1.6796    0.1069 H   0  0  0  0  0  0  0  0  0  0  0  0
   -3.2890   -1.1931    0.2559 H   0  0  0  0  0  0  0  0  0  0  0  0
   -2.0393   -1.8031   -2.4896 H   0  0  0  0  0  0  0  0  0  0  0  0
   -3.7722   -1.7768   -2.1414 H   0  0  0  0  0  0  0  0  0  0  0  0
   -2.8222   -0.2829   -2.0355 H   0  0  0  0  0  0  0  0  0  0  0  0
   -3.7109   -3.7124   -0.0316 N   0  0  0  0  0  0  0  0  0  0  0  0
   -3.9144   -5.1233    0.2004 C   0  0  0  0  0  0  0  0  0  0  0  0
   -4.5331   -3.1198   -0.0995 H   0  0  0  0  0  0  0  0  0  0  0  0
   -3.9995   -5.6455   -0.7640 H   0  0  0  0  0  0  0  0  0  0  0  0
   -3.0607   -5.5291    0.7630 H   0  0  0  0  0  0  0  0  0  0  0  0
   -4.8382   -5.2701    0.7794 H   0  0  0  0  0  0  0  0  0  0  0  0
  1  3  1  0  0  0  0
  1  7  1  0  0  0  0
  1  2  2  0  0  0  0
 33 34  1  0  0  0  0
 34 42  1  0  0  0  0
 34 35  2  0  0  0  0
  8  9  1  0  0  0  0
  9 17  1  0  0  0  0
  9 10  2  0  0  0  0
 18 19  1  0  0  0  0
 19 32  1  0  0  0  0
 19 20  2  0  0  0  0
 22 23  1  0  0  0  0
 23 24  1  0  0  0  0
 23 25  2  0  0  0  0
 33 36  1  0  0  0  0
  8 11  1  0  0  0  0
 42 43  1  0  0  0  0
 21 22  1  0  0  0  0
 18 21  1  0  0  0  0
 32 33  1  0  0  0  0
  7  8  1  0  0  0  0
 17 18  1  0  0  0  0
  3  4  1  0  0  0  0
  3  5  1  0  0  0  0
  3  6  1  0  0  0  0
 36 39  1  0  0  0  0
 36 40  1  0  0  0  0
 36 41  1  0  0  0  0
 11 14  1  0  0  0  0
 11 15  1  0  0  0  0
 11 16  1  0  0  0  0
 43 45  1  0  0  0  0
 43 46  1  0  0  0  0
 43 47  1  0  0  0  0
 22 30  1  0  0  0  0
 22 31  1  0  0  0  0
 21 28  1  0  0  0  0
 21 29  1  0  0  0  0
 33 38  1  0  0  0  0
  8 13  1  0  0  0  0
 18 27  1  0  0  0  0
 42 44  1  0  0  0  0
  7 12  1  0  0  0  0
 32 37  1  0  0  0  0
 17 26  1  0  0  0  0
M  CHG  1  24  -1
M  END
$$$$

  -OEChem-05262214473D

 47 46  0     1  0  0  0  0  0999 V2000
    0.5093   -4.7265    3.0306 C   0  0  0  0  0  0  0  0  0  0  0  0
    1.2735   -4.4402    3.9448 O   0  0  0  0  0  0  0  0  0  0  0  0
   -0.4465   -5.8608    3.1982 C   0  0  0  0  0  0  0  0  0  0  0  0
   -0.0219   -6.8213    2.8645 H   0  0  0  0  0  0  0  0  0  0  0  0
   -0.7314   -6.0185    4.2509 H   0  0  0  0  0  0  0  0  0  0  0  0
   -1.3983   -5.7596    2.6527 H   0  0  0  0  0  0  0  0  0  0  0  0
    0.4252   -4.0886    1.8040 N   0  0  0  0  0  0  0  0  0  0  0  0
    1.2532   -2.9707    1.4349 C   0  0  2  0  0  0  0  0  0  0  0  0
    0.3395   -1.8293    1.0083 C   0  0  0  0  0  0  0  0  0  0  0  0
   -0.8136   -2.0027    0.6194 O   0  0  0  0  0  0  0  0  0  0  0  0
    2.2176   -3.3411    0.3189 C   0  0  0  0  0  0  0  0  0  0  0  0
   -0.2574   -4.4279    1.1287 H   0  0  0  0  0  0  0  0  0  0  0  0
    1.8087   -2.6785    2.3327 H   0  0  0  0  0  0  0  0  0  0  0  0
    1.6793   -3.6366   -0.5890 H   0  0  0  0  0  0  0  0  0  0  0  0
    2.8662   -2.4980    0.0589 H   0  0  0  0  0  0  0  0  0  0  0  0
    2.8538   -4.1816    0.6166 H   0  0  0  0  0  0  0  0  0  0  0  0
    0.9758   -0.5952    1.0708 N   0  0  0  0  0  0  0  0  0  0  0  0
    0.3258    0.6374    0.7059 C   0  0  2  0  0  0  0  0  0  0  0  0
   -1.0964    0.2955    0.2743 C   0  0  0  0  0  0  0  0  0  0  0  0
   -1.9174    1.1467   -0.0612 O   0  0  0  0  0  0  0  0  0  0  0  0
    1.0660    1.3644   -0.4232 C   0  0  0  0  0  0  0  0  0  0  0  0
    2.4427    1.8851   -0.0124 C   0  0  0  0  0  0  0  0  0  0  0  0
    3.2473    2.6019   -1.1017 C   0  0  0  0  0  0  0  0  0  0  0  0
    2.7248    2.5517   -2.2524 O   0  5  0  0  0  0  0  0  0  0  0  0
    4.3142    3.1644   -0.7310 O   0  0  0  0  0  0  0  0  0  0  0  0
    1.9288   -0.5463    1.4242 H   0  0  0  0  0  0  0  0  0  0  0  0
    0.2809    1.2494    1.6132 H   0  0  0  0  0  0  0  0  0  0  0  0
    0.4570    2.1973   -0.7959 H   0  0  0  0  0  0  0  0  0  0  0  0
    1.1935    0.6803   -1.2728 H   0  0  0  0  0  0  0  0  0  0  0  0
    2.3486    2.5459    0.8576 H   0  0  0  0  0  0  0  0  0  0  0  0
    3.0534    1.0318    0.3091 H   0  0  0  0  0  0  0  0  0  0  0  0
   -1.3525   -1.0663    0.3536 N   0  0  0  0  0  0  0  0  0  0  0  0
   -2.6321   -1.6439    0.0134 C   0  0  2  0  0  0  0  0  0  0  0  0
   -2.7001   -3.0339    0.6320 C   0  0  0  0  0  0  0  0  0  0  0  0
   -1.7010   -3.6812    0.9388 O   0  0  0  0  0  0  0  0  0  0  0  0
   -2.8266   -1.7095   -1.4935 C   0  0  0  0  0  0  0  0  0  0  0  0
   -0.6067   -1.6990    0.6277 H   0  0  0  0  0  0  0  0  0  0  0  0
   -3.3980   -1.0044    0.4656 H   0  0  0  0  0  0  0  0  0  0  0  0
   -2.0683   -2.3459   -1.9641 H   0  0  0  0  0  0  0  0  0  0  0  0
   -3.8085   -2.1211   -1.7493 H   0  0  0  0  0  0  0  0  0  0  0  0
   -2.7477   -0.7126   -1.9404 H   0  0  0  0  0  0  0  0  0  0  0  0
   -4.0064   -3.4843    0.7615 N   0  0  0  0  0  0  0  0  0  0  0  0
   -4.3338   -4.7796    1.3101 C   0  0  0  0  0  0  0  0  0  0  0  0
   -4.7740   -2.8730    0.4988 H   0  0  0  0  0  0  0  0  0  0  0  0
   -4.4131   -5.5141    0.4951 H   0  0  0  0  0  0  0  0  0  0  0  0
   -3.5441   -5.0917    2.0093 H   0  0  0  0  0  0  0  0  0  0  0  0
   -5.2936   -4.7195    1.8441 H   0  0  0  0  0  0  0  0  0  0  0  0
  1  3  1  0  0  0  0
  1  7  1  0  0  0  0
  1  2  2  0  0  0  0
 33 34  1  0  0  0  0
 34 42  1  0  0  0  0
 34 35  2  0  0  0  0
  8  9  1  0  0  0  0
  9 17  1  0  0  0  0
  9 10  2  0  0  0  0
 18 19  1  0  0  0  0
 19 32  1  0  0  0  0
 19 20  2  0  0  0  0
 22 23  1  0  0  0  0
 23 24  1  0  0  0  0
 23 25  2  0  0  0  0
 33 36  1  0  0  0  0
  8 11  1  0  0  0  0
 42 43  1  0  0  0  0
 21 22  1  0  0  0  0
 18 21  1  0  0  0  0
 32 33  1  0  0  0  0
  7  8  1  0  0  0  0
 17 18  1  0  0  0  0
  3  4  1  0  0  0  0
  3  5  1  0  0  0  0
  3  6  1  0  0  0  0
 36 39  1  0  0  0  0
 36 40  1  0  0  0  0
 36 41  1  0  0  0  0
 11 14  1  0  0  0  0
 11 15  1  0  0  0  0
 11 16  1  0  0  0  0
 43 45  1  0  0  0  0
 43 46  1  0  0  0  0
 43 47  1  0  0  0  0
 22 30  1  0  0  0  0
 22 31  1  0  0  0  0
 21 28  1  0  0  0  0
 21 29  1  0  0  0  0
 33 38  1  0  0  0  0
  8 13  1  0  0  0  0
 18 27  1  0  0  0  0
 42 44  1  0  0  0  0
  7 12  1  0  0  0  0
 32 37  1  0  0  0  0
 17 26  1  0  0  0  0
M  CHG  1  24  -1
M  END
$$$$

  -OEChem-05262214473D

 47 46  0     1  0  0  0  0  0999 V2000
    0.5093   -4.7265    3.0306 C   0  0  0  0  0  0  0  0  0  0  0  0
    1.2735   -4.4402    3.9448 O   0  0  0  0  0  0  0  0  0  0  0  0
   -0.4465   -5.8608    3.1982 C   0  0  0  0  0  0  0  0  0  0  0  0
   -0.0219   -6.8213    2.8645 H   0  0  0  0  0  0  0  0  0  0  0  0
   -0.7314   -6.0185    4.2509 H   0  0  0  0  0  0  0  0  0  0  0  0
   -1.3983   -5.7596    2.6527 H   0  0  0  0  0  0  0  0  0  0  0  0
    0.4252   -4.0886    1.8040 N   0  0  0  0  0  0  0  0  0  0  0  0
    1.2532   -2.9707    1.4349 C   0  0  2  0  0  0  0  0  0  0  0  0
    0.3395   -1.8293    1.0083 C   0  0  0  0  0  0  0  0  0  0  0  0
   -0.8136   -2.0027    0.6194 O   0  0  0  0  0  0  0  0  0  0  0  0
    2.2176   -3.3411    0.3189 C   0  0  0  0  0  0  0  0  0  0  0  0
   -0.2574   -4.4279    1.1287 H   0  0  0  0  0  0  0  0  0  0  0  0
    1.8087   -2.6785    2.3327 H   0  0  0  0  0  0  0  0  0  0  0  0
    1.6793   -3.6366   -0.5890 H   0  0  0  0  0  0  0  0  0  0  0  0
    2.8662   -2.4980    0.0589 H   0  0  0  0  0  0  0  0  0  0  0  0
    2.8538   -4.1816    0.6166 H   0  0  0  0  0  0  0  0  0  0  0  0
    0.9758   -0.5952    1.0708 N   0  0  0  0  0  0  0  0  0  0  0  0
    0.3258    0.6374    0.7059 C   0  0  2  0  0  0  0  0  0  0  0  0
   -1.0964    0.2955    0.2743 C   0  0  0  0  0  0  0  0  0  0  0  0
   -1.8289    1.0918   -0.3093 O   0  0  0  0  0  0  0  0  0  0  0  0
    1.0660    1.3644   -0.4232 C   0  0  0  0  0  0  0  0  0  0  0  0
    2.4427    1.8851   -0.0124 C   0  0  0  0  0  0  0  0  0  0  0  0
    3.2473    2.6019   -1.1017 C   0  0  0  0  0  0  0  0  0  0  0  0
    2.7248    2.5517   -2.2524 O   0  5  0  0  0  0  0  0  0  0  0  0
    4.3142    3.1644   -0.7310 O   0  0  0  0  0  0  0  0  0  0  0  0
    1.9288   -0.5463    1.4242 H   0  0  0  0  0  0  0  0  0  0  0  0
    0.2809    1.2494    1.6132 H   0  0  0  0  0  0  0  0  0  0  0  0
    0.4570    2.1973   -0.7959 H   0  0  0  0  0  0  0  0  0  0  0  0
    1.1935    0.6803   -1.2728 H   0  0  0  0  0  0  0  0  0  0  0  0
    2.3486    2.5459    0.8576 H   0  0  0  0  0  0  0  0  0  0  0  0
    3.0534    1.0318    0.3091 H   0  0  0  0  0  0  0  0  0  0  0  0
   -1.4647   -0.9860    0.6597 N   0  0  0  0  0  0  0  0  0  0  0  0
   -2.7684   -1.5431    0.3826 C   0  0  2  0  0  0  0  0  0  0  0  0
   -2.9781   -2.7330    1.3098 C   0  0  0  0  0  0  0  0  0  0  0  0
   -2.0505   -3.3507    1.8287 O   0  0  0  0  0  0  0  0  0  0  0  0
   -2.8934   -1.9607   -1.0744 C   0  0  0  0  0  0  0  0  0  0  0  0
   -0.7865   -1.5807    1.1265 H   0  0  0  0  0  0  0  0  0  0  0  0
   -3.5016   -0.7636    0.6163 H   0  0  0  0  0  0  0  0  0  0  0  0
   -2.1665   -2.7412   -1.3273 H   0  0  0  0  0  0  0  0  0  0  0  0
   -3.8915   -2.3564   -1.2895 H   0  0  0  0  0  0  0  0  0  0  0  0
   -2.7128   -1.1101   -1.7405 H   0  0  0  0  0  0  0  0  0  0  0  0
   -4.3212   -3.0509    1.4553 N   0  0  0  0  0  0  0  0  0  0  0  0
   -4.7781   -4.1490    2.2746 C   0  0  0  0  0  0  0  0  0  0  0  0
   -5.0233   -2.4727    1.0033 H   0  0  0  0  0  0  0  0  0  0  0  0
   -4.8762   -5.0530    1.6556 H   0  0  0  0  0  0  0  0  0  0  0  0
   -4.0513   -4.3330    3.0795 H   0  0  0  0  0  0  0  0  0  0  0  0
   -5.7550   -3.8974    2.7132 H   0  0  0  0  0  0  0  0  0  0  0  0
  1  3  1  0  0  0  0
  1  7  1  0  0  0  0
  1  2  2  0  0  0  0
 33 34  1  0  0  0  0
 34 42  1  0  0  0  0
 34 35  2  0  0  0  0
  8  9  1  0  0  0  0
  9 17  1  0  0  0  0
  9 10  2  0  0  0  0
 18 19  1  0  0  0  0
 19 32  1  0  0  0  0
 19 20  2  0  0  0  0
 22 23  1  0  0  0  0
 23 24  1  0  0  0  0
 23 25  2  0  0  0  0
 33 36  1  0  0  0  0
  8 11  1  0  0  0  0
 42 43  1  0  0  0  0
 21 22  1  0  0  0  0
 18 21  1  0  0  0  0
 32 33  1  0  0  0  0
  7  8  1  0  0  0  0
 17 18  1  0  0  0  0
  3  4  1  0  0  0  0
  3  5  1  0  0  0  0
  3  6  1  0  0  0  0
 36 39  1  0  0  0  0
 36 40  1  0  0  0  0
 36 41  1  0  0  0  0
 11 14  1  0  0  0  0
 11 15  1  0  0  0  0
 11 16  1  0  0  0  0
 43 45  1  0  0  0  0
 43 46  1  0  0  0  0
 43 47  1  0  0  0  0
 22 30  1  0  0  0  0
 22 31  1  0  0  0  0
 21 28  1  0  0  0  0
 21 29  1  0  0  0  0
 33 38  1  0  0  0  0
  8 13  1  0  0  0  0
 18 27  1  0  0  0  0
 42 44  1  0  0  0  0
  7 12  1  0  0  0  0
 32 37  1  0  0  0  0
 17 26  1  0  0  0  0
M  CHG  1  24  -1
M  END
$$$$

  -OEChem-05262214473D

 47 46  0     1  0  0  0  0  0999 V2000
    0.5093   -4.7265    3.0306 C   0  0  0  0  0  0  0  0  0  0  0  0
    1.2735   -4.4402    3.9448 O   0  0  0  0  0  0  0  0  0  0  0  0
   -0.4465   -5.8608    3.1982 C   0  0  0  0  0  0  0  0  0  0  0  0
   -0.0219   -6.8213    2.8645 H   0  0  0  0  0  0  0  0  0  0  0  0
   -0.7314   -6.0185    4.2509 H   0  0  0  0  0  0  0  0  0  0  0  0
   -1.3983   -5.7596    2.6527 H   0  0  0  0  0  0  0  0  0  0  0  0
    0.4252   -4.0886    1.8040 N   0  0  0  0  0  0  0  0  0  0  0  0
    1.2532   -2.9707    1.4349 C   0  0  2  0  0  0  0  0  0  0  0  0
    0.3395   -1.8293    1.0083 C   0  0  0  0  0  0  0  0  0  0  0  0
   -0.8136   -2.0027    0.6194 O   0  0  0  0  0  0  0  0  0  0  0  0
    2.2176   -3.3411    0.3189 C   0  0  0  0  0  0  0  0  0  0  0  0
   -0.2574   -4.4279    1.1287 H   0  0  0  0  0  0  0  0  0  0  0  0
    1.8087   -2.6785    2.3327 H   0  0  0  0  0  0  0  0  0  0  0  0
    1.6793   -3.6366   -0.5890 H   0  0  0  0  0  0  0  0  0  0  0  0
    2.8662   -2.4980    0.0589 H   0  0  0  0  0  0  0  0  0  0  0  0
    2.8538   -4.1816    0.6166 H   0  0  0  0  0  0  0  0  0  0  0  0
    0.9758   -0.5952    1.0708 N   0  0  0  0  0  0  0  0  0  0  0  0
    0.3258    0.6374    0.7059 C   0  0  2  0  0  0  0  0  0  0  0  0
   -1.0964    0.2955    0.2743 C   0  0  0  0  0  0  0  0  0  0  0  0
   -1.7331    0.9723   -0.5306 O   0  0  0  0  0  0  0  0  0  0  0  0
    1.0660    1.3644   -0.4232 C   0  0  0  0  0  0  0  0  0  0  0  0
    2.4427    1.8851   -0.0124 C   0  0  0  0  0  0  0  0  0  0  0  0
    3.2473    2.6019   -1.1017 C   0  0  0  0  0  0  0  0  0  0  0  0
    2.7248    2.5517   -2.2524 O   0  5  0  0  0  0  0  0  0  0  0  0
    4.3142    3.1644   -0.7310 O   0  0  0  0  0  0  0  0  0  0  0  0
    1.9288   -0.5463    1.4242 H   0  0  0  0  0  0  0  0  0  0  0  0
    0.2809    1.2494    1.6132 H   0  0  0  0  0  0  0  0  0  0  0  0
    0.4570    2.1973   -0.7959 H   0  0  0  0  0  0  0  0  0  0  0  0
    1.1935    0.6803   -1.2728 H   0  0  0  0  0  0  0  0  0  0  0  0
    2.3486    2.5459    0.8576 H   0  0  0  0  0  0  0  0  0  0  0  0
    3.0534    1.0318    0.3091 H   0  0  0  0  0  0  0  0  0  0  0  0
   -1.5850   -0.8263    0.9294 N   0  0  0  0  0  0  0  0  0  0  0  0
   -2.9140   -1.3467    0.7069 C   0  0  2  0  0  0  0  0  0  0  0  0
   -3.2639   -2.2584    1.8756 C   0  0  0  0  0  0  0  0  0  0  0  0
   -2.4156   -2.7911    2.5882 O   0  0  0  0  0  0  0  0  0  0  0  0
   -3.0006   -2.0973   -0.6128 C   0  0  0  0  0  0  0  0  0  0  0  0
   -0.9804   -1.3330    1.5694 H   0  0  0  0  0  0  0  0  0  0  0  0
   -3.5928   -0.4870    0.6977 H   0  0  0  0  0  0  0  0  0  0  0  0
   -2.3273   -2.9622   -0.6224 H   0  0  0  0  0  0  0  0  0  0  0  0
   -4.0155   -2.4666   -0.7935 H   0  0  0  0  0  0  0  0  0  0  0  0
   -2.7199   -1.4484   -1.4494 H   0  0  0  0  0  0  0  0  0  0  0  0
   -4.6337   -2.4418    2.0027 N   0  0  0  0  0  0  0  0  0  0  0  0
   -5.2170   -3.2746    3.0284 C   0  0  0  0  0  0  0  0  0  0  0  0
   -5.2641   -1.9459    1.3794 H   0  0  0  0  0  0  0  0  0  0  0  0
   -5.3569   -4.2936    2.6384 H   0  0  0  0  0  0  0  0  0  0  0  0
   -4.5477   -3.3047    3.9007 H   0  0  0  0  0  0  0  0  0  0  0  0
   -6.1909   -2.8597    3.3275 H   0  0  0  0  0  0  0  0  0  0  0  0
  1  3  1  0  0  0  0
  1  7  1  0  0  0  0
  1  2  2  0  0  0  0
 33 34  1  0  0  0  0
 34 42  1  0  0  0  0
 34 35  2  0  0  0  0
  8  9  1  0  0  0  0
  9 17  1  0  0  0  0
  9 10  2  0  0  0  0
 18 19  1  0  0  0  0
 19 32  1  0  0  0  0
 19 20  2  0  0  0  0
 22 23  1  0  0  0  0
 23 24  1  0  0  0  0
 23 25  2  0  0  0  0
 33 36  1  0  0  0  0
  8 11  1  0  0  0  0
 42 43  1  0  0  0  0
 21 22  1  0  0  0  0
 18 21  1  0  0  0  0
 32 33  1  0  0  0  0
  7  8  1  0  0  0  0
 17 18  1  0  0  0  0
  3  4  1  0  0  0  0
  3  5  1  0  0  0  0
  3  6  1  0  0  0  0
 36 39  1  0  0  0  0
 36 40  1  0  0  0  0
 36 41  1  0  0  0  0
 11 14  1  0  0  0  0
 11 15  1  0  0  0  0
 11 16  1  0  0  0  0
 43 45  1  0  0  0  0
 43 46  1  0  0  0  0
 43 47  1  0  0  0  0
 22 30  1  0  0  0  0
 22 31  1  0  0  0  0
 21 28  1  0  0  0  0
 21 29  1  0  0  0  0
 33 38  1  0  0  0  0
  8 13  1  0  0  0  0
 18 27  1  0  0  0  0
 42 44  1  0  0  0  0
  7 12  1  0  0  0  0
 32 37  1  0  0  0  0
 17 26  1  0  0  0  0
M  CHG  1  24  -1
M  END
$$$$

  -OEChem-05262214473D

 47 46  0     1  0  0  0  0  0999 V2000
    0.5093   -4.7265    3.0306 C   0  0  0  0  0  0  0  0  0  0  0  0
    1.2735   -4.4402    3.9448 O   0  0  0  0  0  0  0  0  0  0  0  0
   -0.4465   -5.8608    3.1982 C   0  0  0  0  0  0  0  0  0  0  0  0
   -0.0219   -6.8213    2.8645 H   0  0  0  0  0  0  0  0  0  0  0  0
   -0.7314   -6.0185    4.2509 H   0  0  0  0  0  0  0  0  0  0  0  0
   -1.3983   -5.7596    2.6527 H   0  0  0  0  0  0  0  0  0  0  0  0
    0.4252   -4.0886    1.8040 N   0  0  0  0  0  0  0  0  0  0  0  0
    1.2532   -2.9707    1.4349 C   0  0  2  0  0  0  0  0  0  0  0  0
    0.3395   -1.8293    1.0083 C   0  0  0  0  0  0  0  0  0  0  0  0
   -0.8136   -2.0027    0.6194 O   0  0  0  0  0  0  0  0  0  0  0  0
    2.2176   -3.3411    0.3189 C   0  0  0  0  0  0  0  0  0  0  0  0
   -0.2574   -4.4279    1.1287 H   0  0  0  0  0  0  0  0  0  0  0  0
    1.8087   -2.6785    2.3327 H   0  0  0  0  0  0  0  0  0  0  0  0
    1.6793   -3.6366   -0.5890 H   0  0  0  0  0  0  0  0  0  0  0  0
    2.8662   -2.4980    0.0589 H   0  0  0  0  0  0  0  0  0  0  0  0
    2.8538   -4.1816    0.6166 H   0  0  0  0  0  0  0  0  0  0  0  0
    0.9758   -0.5952    1.0708 N   0  0  0  0  0  0  0  0  0  0  0  0
    0.3258    0.6374    0.7059 C   0  0  2  0  0  0  0  0  0  0  0  0
   -1.0964    0.2955    0.2743 C   0  0  0  0  0  0  0  0  0  0  0  0
   -1.6364    0.7965   -0.7099 O   0  0  0  0  0  0  0  0  0  0  0  0
    1.0660    1.3644   -0.4232 C   0  0  0  0  0  0  0  0  0  0  0  0
    2.4427    1.8851   -0.0124 C   0  0  0  0  0  0  0  0  0  0  0  0
    3.2473    2.6019   -1.1017 C   0  0  0  0  0  0  0  0  0  0  0  0
    2.7248    2.5517   -2.2524 O   0  5  0  0  0  0  0  0  0  0  0  0
    4.3142    3.1644   -0.7310 O   0  0  0  0  0  0  0  0  0  0  0  0
    1.9288   -0.5463    1.4242 H   0  0  0  0  0  0  0  0  0  0  0  0
    0.2809    1.2494    1.6132 H   0  0  0  0  0  0  0  0  0  0  0  0
    0.4570    2.1973   -0.7959 H   0  0  0  0  0  0  0  0  0  0  0  0
    1.1935    0.6803   -1.2728 H   0  0  0  0  0  0  0  0  0  0  0  0
    2.3486    2.5459    0.8576 H   0  0  0  0  0  0  0  0  0  0  0  0
    3.0534    1.0318    0.3091 H   0  0  0  0  0  0  0  0  0  0  0  0
   -1.7051   -0.5982    1.1445 N   0  0  0  0  0  0  0  0  0  0  0  0
   -3.0591   -1.0680    0.9644 C   0  0  2  0  0  0  0  0  0  0  0  0
   -3.5380   -1.6425    2.2911 C   0  0  0  0  0  0  0  0  0  0  0  0
   -2.7712   -2.0405    3.1656 O   0  0  0  0  0  0  0  0  0  0  0  0
   -3.1409   -2.1100   -0.1403 C   0  0  0  0  0  0  0  0  0  0  0  0
   -1.1753   -0.9726    1.9261 H   0  0  0  0  0  0  0  0  0  0  0  0
   -3.6654   -0.1935    0.7043 H   0  0  0  0  0  0  0  0  0  0  0  0
   -2.5397   -2.9938    0.1025 H   0  0  0  0  0  0  0  0  0  0  0  0
   -4.1722   -2.4442   -0.2949 H   0  0  0  0  0  0  0  0  0  0  0  0
   -2.7683   -1.7044   -1.0870 H   0  0  0  0  0  0  0  0  0  0  0  0
   -4.9227   -1.6984    2.3662 N   0  0  0  0  0  0  0  0  0  0  0  0
   -5.6207   -2.2159    3.5199 C   0  0  0  0  0  0  0  0  0  0  0  0
   -5.4799   -1.3286    1.6016 H   0  0  0  0  0  0  0  0  0  0  0  0
   -5.8228   -3.2877    3.3765 H   0  0  0  0  0  0  0  0  0  0  0  0
   -4.9995   -2.0769    4.4170 H   0  0  0  0  0  0  0  0  0  0  0  0
   -6.5715   -1.6772    3.6452 H   0  0  0  0  0  0  0  0  0  0  0  0
  1  3  1  0  0  0  0
  1  7  1  0  0  0  0
  1  2  2  0  0  0  0
 33 34  1  0  0  0  0
 34 42  1  0  0  0  0
 34 35  2  0  0  0  0
  8  9  1  0  0  0  0
  9 17  1  0  0  0  0
  9 10  2  0  0  0  0
 18 19  1  0  0  0  0
 19 32  1  0  0  0  0
 19 20  2  0  0  0  0
 22 23  1  0  0  0  0
 23 24  1  0  0  0  0
 23 25  2  0  0  0  0
 33 36  1  0  0  0  0
  8 11  1  0  0  0  0
 42 43  1  0  0  0  0
 21 22  1  0  0  0  0
 18 21  1  0  0  0  0
 32 33  1  0  0  0  0
  7  8  1  0  0  0  0
 17 18  1  0  0  0  0
  3  4  1  0  0  0  0
  3  5  1  0  0  0  0
  3  6  1  0  0  0  0
 36 39  1  0  0  0  0
 36 40  1  0  0  0  0
 36 41  1  0  0  0  0
 11 14  1  0  0  0  0
 11 15  1  0  0  0  0
 11 16  1  0  0  0  0
 43 45  1  0  0  0  0
 43 46  1  0  0  0  0
 43 47  1  0  0  0  0
 22 30  1  0  0  0  0
 22 31  1  0  0  0  0
 21 28  1  0  0  0  0
 21 29  1  0  0  0  0
 33 38  1  0  0  0  0
  8 13  1  0  0  0  0
 18 27  1  0  0  0  0
 42 44  1  0  0  0  0
  7 12  1  0  0  0  0
 32 37  1  0  0  0  0
 17 26  1  0  0  0  0
M  CHG  1  24  -1
M  END
$$$$

  -OEChem-05262214473D

 47 46  0     1  0  0  0  0  0999 V2000
    0.5093   -4.7265    3.0306 C   0  0  0  0  0  0  0  0  0  0  0  0
    1.2735   -4.4402    3.9448 O   0  0  0  0  0  0  0  0  0  0  0  0
   -0.4465   -5.8608    3.1982 C   0  0  0  0  0  0  0  0  0  0  0  0
   -0.0219   -6.8213    2.8645 H   0  0  0  0  0  0  0  0  0  0  0  0
   -0.7314   -6.0185    4.2509 H   0  0  0  0  0  0  0  0  0  0  0  0
   -1.3983   -5.7596    2.6527 H   0  0  0  0  0  0  0  0  0  0  0  0
    0.4252   -4.0886    1.8040 N   0  0  0  0  0  0  0  0  0  0  0  0
    1.2532   -2.9707    1.4349 C   0  0  2  0  0  0  0  0  0  0  0  0
    0.3395   -1.8293    1.0083 C   0  0  0  0  0  0  0  0  0  0  0  0
   -0.8136   -2.0027    0.6194 O   0  0  0  0  0  0  0  0  0  0  0  0
    2.2176   -3.3411    0.3189 C   0  0  0  0  0  0  0  0  0  0  0  0
   -0.2574   -4.4279    1.1287 H   0  0  0  0  0  0  0  0  0  0  0  0
    1.8087   -2.6785    2.3327 H   0  0  0  0  0  0  0  0  0  0  0  0
    1.6793   -3.6366   -0.5890 H   0  0  0  0  0  0  0  0  0  0  0  0
    2.8662   -2.4980    0.0589 H   0  0  0  0  0  0  0  0  0  0  0  0
    2.8538   -4.1816    0.6166 H   0  0  0  0  0  0  0  0  0  0  0  0
    0.9758   -0.5952    1.0708 N   0  0  0  0  0  0  0  0  0  0  0  0
    0.3258    0.6374    0.7059 C   0  0  2  0  0  0  0  0  0  0  0  0
   -1.0964    0.2955    0.2743 C   0  0  0  0  0  0  0  0  0  0  0  0
   -1.5455    0.5763   -0.8351 O   0  0  0  0  0  0  0  0  0  0  0  0
    1.0660    1.3644   -0.4232 C   0  0  0  0  0  0  0  0  0  0  0  0
    2.4427    1.8851   -0.0124 C   0  0  0  0  0  0  0  0  0  0  0  0
    3.2473    2.6019   -1.1017 C   0  0  0  0  0  0  0  0  0  0  0  0
    2.7248    2.5517   -2.2524 O   0  5  0  0  0  0  0  0  0  0  0  0
    4.3142    3.1644   -0.7310 O   0  0  0  0  0  0  0  0  0  0  0  0
    1.9288   -0.5463    1.4242 H   0  0  0  0  0  0  0  0  0  0  0  0
    0.2809    1.2494    1.6132 H   0  0  0  0  0  0  0  0  0  0  0  0
    0.4570    2.1973   -0.7959 H   0  0  0  0  0  0  0  0  0  0  0  0
    1.1935    0.6803   -1.2728 H   0  0  0  0  0  0  0  0  0  0  0  0
    2.3486    2.5459    0.8576 H   0  0  0  0  0  0  0  0  0  0  0  0
    3.0534    1.0318    0.3091 H   0  0  0  0  0  0  0  0  0  0  0  0
   -1.8169   -0.3171    1.2902 N   0  0  0  0  0  0  0  0  0  0  0  0
   -3.1939   -0.7261    1.1374 C   0  0  2  0  0  0  0  0  0  0  0  0
   -3.7818   -0.9272    2.5278 C   0  0  0  0  0  0  0  0  0  0  0  0
   -3.0933   -1.1501    3.5215 O   0  0  0  0  0  0  0  0  0  0  0  0
   -3.3049   -1.9979    0.3111 C   0  0  0  0  0  0  0  0  0  0  0  0
   -1.3578   -0.5240    2.1724 H   0  0  0  0  0  0  0  0  0  0  0  0
   -3.7144    0.0969    0.6357 H   0  0  0  0  0  0  0  0  0  0  0  0
   -2.7892   -2.8337    0.7980 H   0  0  0  0  0  0  0  0  0  0  0  0
   -4.3508   -2.2908    0.1721 H   0  0  0  0  0  0  0  0  0  0  0  0
   -2.8549   -1.8606   -0.6780 H   0  0  0  0  0  0  0  0  0  0  0  0
   -5.1685   -0.8714    2.5212 N   0  0  0  0  0  0  0  0  0  0  0  0
   -5.9615   -1.0451    3.7157 C   0  0  0  0  0  0  0  0  0  0  0  0
   -5.6561   -0.6630    1.6548 H   0  0  0  0  0  0  0  0  0  0  0  0
   -6.2418   -2.1037    3.8196 H   0  0  0  0  0  0  0  0  0  0  0  0
   -5.3759   -0.7332    4.5930 H   0  0  0  0  0  0  0  0  0  0  0  0
   -6.8710   -0.4305    3.6445 H   0  0  0  0  0  0  0  0  0  0  0  0
  1  3  1  0  0  0  0
  1  7  1  0  0  0  0
  1  2  2  0  0  0  0
 33 34  1  0  0  0  0
 34 42  1  0  0  0  0
 34 35  2  0  0  0  0
  8  9  1  0  0  0  0
  9 17  1  0  0  0  0
  9 10  2  0  0  0  0
 18 19  1  0  0  0  0
 19 32  1  0  0  0  0
 19 20  2  0  0  0  0
 22 23  1  0  0  0  0
 23 24  1  0  0  0  0
 23 25  2  0  0  0  0
 33 36  1  0  0  0  0
  8 11  1  0  0  0  0
 42 43  1  0  0  0  0
 21 22  1  0  0  0  0
 18 21  1  0  0  0  0
 32 33  1  0  0  0  0
  7  8  1  0  0  0  0
 17 18  1  0  0  0  0
  3  4  1  0  0  0  0
  3  5  1  0  0  0  0
  3  6  1  0  0  0  0
 36 39  1  0  0  0  0
 36 40  1  0  0  0  0
 36 41  1  0  0  0  0
 11 14  1  0  0  0  0
 11 15  1  0  0  0  0
 11 16  1  0  0  0  0
 43 45  1  0  0  0  0
 43 46  1  0  0  0  0
 43 47  1  0  0  0  0
 22 30  1  0  0  0  0
 22 31  1  0  0  0  0
 21 28  1  0  0  0  0
 21 29  1  0  0  0  0
 33 38  1  0  0  0  0
  8 13  1  0  0  0  0
 18 27  1  0  0  0  0
 42 44  1  0  0  0  0
  7 12  1  0  0  0  0
 32 37  1  0  0  0  0
 17 26  1  0  0  0  0
M  CHG  1  24  -1
M  END
$$$$

  -OEChem-05262214473D

 47 46  0     1  0  0  0  0  0999 V2000
    0.5093   -4.7265    3.0306 C   0  0  0  0  0  0  0  0  0  0  0  0
    1.2735   -4.4402    3.9448 O   0  0  0  0  0  0  0  0  0  0  0  0
   -0.4465   -5.8608    3.1982 C   0  0  0  0  0  0  0  0  0  0  0  0
   -0.0219   -6.8213    2.8645 H   0  0  0  0  0  0  0  0  0  0  0  0
   -0.7314   -6.0185    4.2509 H   0  0  0  0  0  0  0  0  0  0  0  0
   -1.3983   -5.7596    2.6527 H   0  0  0  0  0  0  0  0  0  0  0  0
    0.4252   -4.0886    1.8040 N   0  0  0  0  0  0  0  0  0  0  0  0
    1.2532   -2.9707    1.4349 C   0  0  2  0  0  0  0  0  0  0  0  0
    0.3395   -1.8293    1.0083 C   0  0  0  0  0  0  0  0  0  0  0  0
   -0.8136   -2.0027    0.6194 O   0  0  0  0  0  0  0  0  0  0  0  0
    2.2176   -3.3411    0.3189 C   0  0  0  0  0  0  0  0  0  0  0  0
   -0.2574   -4.4279    1.1287 H   0  0  0  0  0  0  0  0  0  0  0  0
    1.8087   -2.6785    2.3327 H   0  0  0  0  0  0  0  0  0  0  0  0
    1.6793   -3.6366   -0.5890 H   0  0  0  0  0  0  0  0  0  0  0  0
    2.8662   -2.4980    0.0589 H   0  0  0  0  0  0  0  0  0  0  0  0
    2.8538   -4.1816    0.6166 H   0  0  0  0  0  0  0  0  0  0  0  0
    0.9758   -0.5952    1.0708 N   0  0  0  0  0  0  0  0  0  0  0  0
    0.3258    0.6374    0.7059 C   0  0  2  0  0  0  0  0  0  0  0  0
   -1.0964    0.2955    0.2743 C   0  0  0  0  0  0  0  0  0  0  0  0
   -1.4665    0.3268   -0.8976 O   0  0  0  0  0  0  0  0  0  0  0  0
    1.0660    1.3644   -0.4232 C   0  0  0  0  0  0  0  0  0  0  0  0
    2.4427    1.8851   -0.0124 C   0  0  0  0  0  0  0  0  0  0  0  0
    3.2473    2.6019   -1.1017 C   0  0  0  0  0  0  0  0  0  0  0  0
    2.7248    2.5517   -2.2524 O   0  5  0  0  0  0  0  0  0  0  0  0
    4.3142    3.1644   -0.7310 O   0  0  0  0  0  0  0  0  0  0  0  0
    1.9288   -0.5463    1.4242 H   0  0  0  0  0  0  0  0  0  0  0  0
    0.2809    1.2494    1.6132 H   0  0  0  0  0  0  0  0  0  0  0  0
    0.4570    2.1973   -0.7959 H   0  0  0  0  0  0  0  0  0  0  0  0
    1.1935    0.6803   -1.2728 H   0  0  0  0  0  0  0  0  0  0  0  0
    2.3486    2.5459    0.8576 H   0  0  0  0  0  0  0  0  0  0  0  0
    3.0534    1.0318    0.3091 H   0  0  0  0  0  0  0  0  0  0  0  0
   -1.9127   -0.0022    1.3566 N   0  0  0  0  0  0  0  0  0  0  0  0
   -3.3090   -0.3441    1.2142 C   0  0  2  0  0  0  0  0  0  0  0  0
   -3.9786   -0.1613    2.5697 C   0  0  0  0  0  0  0  0  0  0  0  0
   -3.3598   -0.1805    3.6317 O   0  0  0  0  0  0  0  0  0  0  0  0
   -3.4812   -1.7687    0.7106 C   0  0  0  0  0  0  0  0  0  0  0  0
   -1.5156   -0.0180    2.2914 H   0  0  0  0  0  0  0  0  0  0  0  0
   -3.7364    0.3645    0.4964 H   0  0  0  0  0  0  0  0  0  0  0  0
   -3.0589   -2.4930    1.4166 H   0  0  0  0  0  0  0  0  0  0  0  0
   -4.5392   -2.0168    0.5759 H   0  0  0  0  0  0  0  0  0  0  0  0
   -2.9736   -1.9065   -0.2503 H   0  0  0  0  0  0  0  0  0  0  0  0
   -5.3544   -0.0172    2.4570 N   0  0  0  0  0  0  0  0  0  0  0  0
   -6.2164    0.1580    3.6025 C   0  0  0  0  0  0  0  0  0  0  0  0
   -5.7805    0.0057    1.5352 H   0  0  0  0  0  0  0  0  0  0  0  0
   -6.5856   -0.8225    3.9376 H   0  0  0  0  0  0  0  0  0  0  0  0
   -5.6513    0.6348    4.4170 H   0  0  0  0  0  0  0  0  0  0  0  0
   -7.0689    0.7956    3.3256 H   0  0  0  0  0  0  0  0  0  0  0  0
  1  3  1  0  0  0  0
  1  7  1  0  0  0  0
  1  2  2  0  0  0  0
 33 34  1  0  0  0  0
 34 42  1  0  0  0  0
 34 35  2  0  0  0  0
  8  9  1  0  0  0  0
  9 17  1  0  0  0  0
  9 10  2  0  0  0  0
 18 19  1  0  0  0  0
 19 32  1  0  0  0  0
 19 20  2  0  0  0  0
 22 23  1  0  0  0  0
 23 24  1  0  0  0  0
 23 25  2  0  0  0  0
 33 36  1  0  0  0  0
  8 11  1  0  0  0  0
 42 43  1  0  0  0  0
 21 22  1  0  0  0  0
 18 21  1  0  0  0  0
 32 33  1  0  0  0  0
  7  8  1  0  0  0  0
 17 18  1  0  0  0  0
  3  4  1  0  0  0  0
  3  5  1  0  0  0  0
  3  6  1  0  0  0  0
 36 39  1  0  0  0  0
 36 40  1  0  0  0  0
 36 41  1  0  0  0  0
 11 14  1  0  0  0  0
 11 15  1  0  0  0  0
 11 16  1  0  0  0  0
 43 45  1  0  0  0  0
 43 46  1  0  0  0  0
 43 47  1  0  0  0  0
 22 30  1  0  0  0  0
 22 31  1  0  0  0  0
 21 28  1  0  0  0  0
 21 29  1  0  0  0  0
 33 38  1  0  0  0  0
  8 13  1  0  0  0  0
 18 27  1  0  0  0  0
 42 44  1  0  0  0  0
  7 12  1  0  0  0  0
 32 37  1  0  0  0  0
 17 26  1  0  0  0  0
M  CHG  1  24  -1
M  END
$$$$

  -OEChem-05262214473D

 47 46  0     1  0  0  0  0  0999 V2000
    0.5093   -4.7265    3.0306 C   0  0  0  0  0  0  0  0  0  0  0  0
    1.2735   -4.4402    3.9448 O   0  0  0  0  0  0  0  0  0  0  0  0
   -0.4465   -5.8608    3.1982 C   0  0  0  0  0  0  0  0  0  0  0  0
   -0.0219   -6.8213    2.8645 H   0  0  0  0  0  0  0  0  0  0  0  0
   -0.7314   -6.0185    4.2509 H   0  0  0  0  0  0  0  0  0  0  0  0
   -1.3983   -5.7596    2.6527 H   0  0  0  0  0  0  0  0  0  0  0  0
    0.4252   -4.0886    1.8040 N   0  0  0  0  0  0  0  0  0  0  0  0
    1.2532   -2.9707    1.4349 C   0  0  2  0  0  0  0  0  0  0  0  0
    0.3395   -1.8293    1.0083 C   0  0  0  0  0  0  0  0  0  0  0  0
   -0.8136   -2.0027    0.6194 O   0  0  0  0  0  0  0  0  0  0  0  0
    2.2176   -3.3411    0.3189 C   0  0  0  0  0  0  0  0  0  0  0  0
   -0.2574   -4.4279    1.1287 H   0  0  0  0  0  0  0  0  0  0  0  0
    1.8087   -2.6785    2.3327 H   0  0  0  0  0  0  0  0  0  0  0  0
    1.6793   -3.6366   -0.5890 H   0  0  0  0  0  0  0  0  0  0  0  0
    2.8662   -2.4980    0.0589 H   0  0  0  0  0  0  0  0  0  0  0  0
    2.8538   -4.1816    0.6166 H   0  0  0  0  0  0  0  0  0  0  0  0
    0.9758   -0.5952    1.0708 N   0  0  0  0  0  0  0  0  0  0  0  0
    0.3258    0.6374    0.7059 C   0  0  2  0  0  0  0  0  0  0  0  0
   -1.0964    0.2955    0.2743 C   0  0  0  0  0  0  0  0  0  0  0  0
   -1.4049    0.0648   -0.8931 O   0  0  0  0  0  0  0  0  0  0  0  0
    1.0660    1.3644   -0.4232 C   0  0  0  0  0  0  0  0  0  0  0  0
    2.4427    1.8851   -0.0124 C   0  0  0  0  0  0  0  0  0  0  0  0
    3.2473    2.6019   -1.1017 C   0  0  0  0  0  0  0  0  0  0  0  0
    2.7248    2.5517   -2.2524 O   0  5  0  0  0  0  0  0  0  0  0  0
    4.3142    3.1644   -0.7310 O   0  0  0  0  0  0  0  0  0  0  0  0
    1.9288   -0.5463    1.4242 H   0  0  0  0  0  0  0  0  0  0  0  0
    0.2809    1.2494    1.6132 H   0  0  0  0  0  0  0  0  0  0  0  0
    0.4570    2.1973   -0.7959 H   0  0  0  0  0  0  0  0  0  0  0  0
    1.1935    0.6803   -1.2728 H   0  0  0  0  0  0  0  0  0  0  0  0
    2.3486    2.5459    0.8576 H   0  0  0  0  0  0  0  0  0  0  0  0
    3.0534    1.0318    0.3091 H   0  0  0  0  0  0  0  0  0  0  0  0
   -1.9861    0.3249    1.3392 N   0  0  0  0  0  0  0  0  0  0  0  0
   -3.3966    0.0517    1.1894 C   0  0  2  0  0  0  0  0  0  0  0  0
   -4.1151    0.6031    2.4139 C   0  0  0  0  0  0  0  0  0  0  0  0
   -3.5526    0.8022    3.4886 O   0  0  0  0  0  0  0  0  0  0  0  0
   -3.6579   -1.4380    1.0309 C   0  0  0  0  0  0  0  0  0  0  0  0
   -1.6378    0.5111    2.2751 H   0  0  0  0  0  0  0  0  0  0  0  0
   -3.7300    0.5909    0.2960 H   0  0  0  0  0  0  0  0  0  0  0  0
   -3.3303   -1.9948    1.9163 H   0  0  0  0  0  0  0  0  0  0  0  0
   -4.7245   -1.6408    0.8888 H   0  0  0  0  0  0  0  0  0  0  0  0
   -3.1166   -1.8388    0.1671 H   0  0  0  0  0  0  0  0  0  0  0  0
   -5.4676    0.8060    2.1780 N   0  0  0  0  0  0  0  0  0  0  0  0
   -6.3679    1.3115    3.1880 C   0  0  0  0  0  0  0  0  0  0  0  0
   -5.8448    0.6319    1.2511 H   0  0  0  0  0  0  0  0  0  0  0  0
   -6.8307    0.4688    3.7224 H   0  0  0  0  0  0  0  0  0  0  0  0
   -5.8069    1.9338    3.9007 H   0  0  0  0  0  0  0  0  0  0  0  0
   -7.1518    1.9174    2.7101 H   0  0  0  0  0  0  0  0  0  0  0  0
  1  3  1  0  0  0  0
  1  7  1  0  0  0  0
  1  2  2  0  0  0  0
 33 34  1  0  0  0  0
 34 42  1  0  0  0  0
 34 35  2  0  0  0  0
  8  9  1  0  0  0  0
  9 17  1  0  0  0  0
  9 10  2  0  0  0  0
 18 19  1  0  0  0  0
 19 32  1  0  0  0  0
 19 20  2  0  0  0  0
 22 23  1  0  0  0  0
 23 24  1  0  0  0  0
 23 25  2  0  0  0  0
 33 36  1  0  0  0  0
  8 11  1  0  0  0  0
 42 43  1  0  0  0  0
 21 22  1  0  0  0  0
 18 21  1  0  0  0  0
 32 33  1  0  0  0  0
  7  8  1  0  0  0  0
 17 18  1  0  0  0  0
  3  4  1  0  0  0  0
  3  5  1  0  0  0  0
  3  6  1  0  0  0  0
 36 39  1  0  0  0  0
 36 40  1  0  0  0  0
 36 41  1  0  0  0  0
 11 14  1  0  0  0  0
 11 15  1  0  0  0  0
 11 16  1  0  0  0  0
 43 45  1  0  0  0  0
 43 46  1  0  0  0  0
 43 47  1  0  0  0  0
 22 30  1  0  0  0  0
 22 31  1  0  0  0  0
 21 28  1  0  0  0  0
 21 29  1  0  0  0  0
 33 38  1  0  0  0  0
  8 13  1  0  0  0  0
 18 27  1  0  0  0  0
 42 44  1  0  0  0  0
  7 12  1  0  0  0  0
 32 37  1  0  0  0  0
 17 26  1  0  0  0  0
M  CHG  1  24  -1
M  END
$$$$

  -OEChem-05262214473D

 47 46  0     1  0  0  0  0  0999 V2000
    0.5093   -4.7265    3.0306 C   0  0  0  0  0  0  0  0  0  0  0  0
    1.2735   -4.4402    3.9448 O   0  0  0  0  0  0  0  0  0  0  0  0
   -0.4465   -5.8608    3.1982 C   0  0  0  0  0  0  0  0  0  0  0  0
   -0.0219   -6.8213    2.8645 H   0  0  0  0  0  0  0  0  0  0  0  0
   -0.7314   -6.0185    4.2509 H   0  0  0  0  0  0  0  0  0  0  0  0
   -1.3983   -5.7596    2.6527 H   0  0  0  0  0  0  0  0  0  0  0  0
    0.4252   -4.0886    1.8040 N   0  0  0  0  0  0  0  0  0  0  0  0
    1.2532   -2.9707    1.4349 C   0  0  2  0  0  0  0  0  0  0  0  0
    0.3395   -1.8293    1.0083 C   0  0  0  0  0  0  0  0  0  0  0  0
   -0.8136   -2.0027    0.6194 O   0  0  0  0  0  0  0  0  0  0  0  0
    2.2176   -3.3411    0.3189 C   0  0  0  0  0  0  0  0  0  0  0  0
   -0.2574   -4.4279    1.1287 H   0  0  0  0  0  0  0  0  0  0  0  0
    1.8087   -2.6785    2.3327 H   0  0  0  0  0  0  0  0  0  0  0  0
    1.6793   -3.6366   -0.5890 H   0  0  0  0  0  0  0  0  0  0  0  0
    2.8662   -2.4980    0.0589 H   0  0  0  0  0  0  0  0  0  0  0  0
    2.8538   -4.1816    0.6166 H   0  0  0  0  0  0  0  0  0  0  0  0
    0.9758   -0.5952    1.0708 N   0  0  0  0  0  0  0  0  0  0  0  0
    0.3258    0.6374    0.7059 C   0  0  2  0  0  0  0  0  0  0  0  0
   -1.0964    0.2955    0.2743 C   0  0  0  0  0  0  0  0  0  0  0  0
   -1.3648   -0.1916   -0.8220 O   0  0  0  0  0  0  0  0  0  0  0  0
    1.0660    1.3644   -0.4232 C   0  0  0  0  0  0  0  0  0  0  0  0
    2.4427    1.8851   -0.0124 C   0  0  0  0  0  0  0  0  0  0  0  0
    3.2473    2.6019   -1.1017 C   0  0  0  0  0  0  0  0  0  0  0  0
    2.7248    2.5517   -2.2524 O   0  5  0  0  0  0  0  0  0  0  0  0
    4.3142    3.1644   -0.7310 O   0  0  0  0  0  0  0  0  0  0  0  0
    1.9288   -0.5463    1.4242 H   0  0  0  0  0  0  0  0  0  0  0  0
    0.2809    1.2494    1.6132 H   0  0  0  0  0  0  0  0  0  0  0  0
    0.4570    2.1973   -0.7959 H   0  0  0  0  0  0  0  0  0  0  0  0
    1.1935    0.6803   -1.2728 H   0  0  0  0  0  0  0  0  0  0  0  0
    2.3486    2.5459    0.8576 H   0  0  0  0  0  0  0  0  0  0  0  0
    3.0534    1.0318    0.3091 H   0  0  0  0  0  0  0  0  0  0  0  0
   -2.0320    0.6421    1.2392 N   0  0  0  0  0  0  0  0  0  0  0  0
   -3.4509    0.4346    1.0649 C   0  0  2  0  0  0  0  0  0  0  0  0
   -4.1818    1.3138    2.0710 C   0  0  0  0  0  0  0  0  0  0  0  0
   -3.6585    1.7310    3.1021 O   0  0  0  0  0  0  0  0  0  0  0  0
   -3.8229   -1.0283    1.2501 C   0  0  0  0  0  0  0  0  0  0  0  0
   -1.7162    1.0271    2.1245 H   0  0  0  0  0  0  0  0  0  0  0  0
   -3.6957    0.7608    0.0482 H   0  0  0  0  0  0  0  0  0  0  0  0
   -3.5849   -1.3731    2.2630 H   0  0  0  0  0  0  0  0  0  0  0  0
   -4.8942   -1.1886    1.0896 H   0  0  0  0  0  0  0  0  0  0  0  0
   -3.2739   -1.6623    0.5456 H   0  0  0  0  0  0  0  0  0  0  0  0
   -5.5005    1.5421    1.7033 N   0  0  0  0  0  0  0  0  0  0  0  0
   -6.4057    2.3368    2.5003 C   0  0  0  0  0  0  0  0  0  0  0  0
   -5.8446    1.1729    0.8219 H   0  0  0  0  0  0  0  0  0  0  0  0
   -6.9603    1.6820    3.1886 H   0  0  0  0  0  0  0  0  0  0  0  0
   -5.8321    3.0754    3.0795 H   0  0  0  0  0  0  0  0  0  0  0  0
   -7.1140    2.8585    1.8400 H   0  0  0  0  0  0  0  0  0  0  0  0
  1  3  1  0  0  0  0
  1  7  1  0  0  0  0
  1  2  2  0  0  0  0
 33 34  1  0  0  0  0
 34 42  1  0  0  0  0
 34 35  2  0  0  0  0
  8  9  1  0  0  0  0
  9 17  1  0  0  0  0
  9 10  2  0  0  0  0
 18 19  1  0  0  0  0
 19 32  1  0  0  0  0
 19 20  2  0  0  0  0
 22 23  1  0  0  0  0
 23 24  1  0  0  0  0
 23 25  2  0  0  0  0
 33 36  1  0  0  0  0
  8 11  1  0  0  0  0
 42 43  1  0  0  0  0
 21 22  1  0  0  0  0
 18 21  1  0  0  0  0
 32 33  1  0  0  0  0
  7  8  1  0  0  0  0
 17 18  1  0  0  0  0
  3  4  1  0  0  0  0
  3  5  1  0  0  0  0
  3  6  1  0  0  0  0
 36 39  1  0  0  0  0
 36 40  1  0  0  0  0
 36 41  1  0  0  0  0
 11 14  1  0  0  0  0
 11 15  1  0  0  0  0
 11 16  1  0  0  0  0
 43 45  1  0  0  0  0
 43 46  1  0  0  0  0
 43 47  1  0  0  0  0
 22 30  1  0  0  0  0
 22 31  1  0  0  0  0
 21 28  1  0  0  0  0
 21 29  1  0  0  0  0
 33 38  1  0  0  0  0
  8 13  1  0  0  0  0
 18 27  1  0  0  0  0
 42 44  1  0  0  0  0
  7 12  1  0  0  0  0
 32 37  1  0  0  0  0
 17 26  1  0  0  0  0
M  CHG  1  24  -1
M  END
$$$$

  -OEChem-05262214473D

 47 46  0     1  0  0  0  0  0999 V2000
    0.5093   -4.7265    3.0306 C   0  0  0  0  0  0  0  0  0  0  0  0
    1.2735   -4.4402    3.9448 O   0  0  0  0  0  0  0  0  0  0  0  0
   -0.4465   -5.8608    3.1982 C   0  0  0  0  0  0  0  0  0  0  0  0
   -0.0219   -6.8213    2.8645 H   0  0  0  0  0  0  0  0  0  0  0  0
   -0.7314   -6.0185    4.2509 H   0  0  0  0  0  0  0  0  0  0  0  0
   -1.3983   -5.7596    2.6527 H   0  0  0  0  0  0  0  0  0  0  0  0
    0.4252   -4.0886    1.8040 N   0  0  0  0  0  0  0  0  0  0  0  0
    1.2532   -2.9707    1.4349 C   0  0  2  0  0  0  0  0  0  0  0  0
    0.3395   -1.8293    1.0083 C   0  0  0  0  0  0  0  0  0  0  0  0
   -0.8136   -2.0027    0.6194 O   0  0  0  0  0  0  0  0  0  0  0  0
    2.2176   -3.3411    0.3189 C   0  0  0  0  0  0  0  0  0  0  0  0
   -0.2574   -4.4279    1.1287 H   0  0  0  0  0  0  0  0  0  0  0  0
    1.8087   -2.6785    2.3327 H   0  0  0  0  0  0  0  0  0  0  0  0
    1.6793   -3.6366   -0.5890 H   0  0  0  0  0  0  0  0  0  0  0  0
    2.8662   -2.4980    0.0589 H   0  0  0  0  0  0  0  0  0  0  0  0
    2.8538   -4.1816    0.6166 H   0  0  0  0  0  0  0  0  0  0  0  0
    0.9758   -0.5952    1.0708 N   0  0  0  0  0  0  0  0  0  0  0  0
    0.3258    0.6374    0.7059 C   0  0  2  0  0  0  0  0  0  0  0  0
   -1.0964    0.2955    0.2743 C   0  0  0  0  0  0  0  0  0  0  0  0
   -1.3490   -0.4251   -0.6891 O   0  0  0  0  0  0  0  0  0  0  0  0
    1.0660    1.3644   -0.4232 C   0  0  0  0  0  0  0  0  0  0  0  0
    2.4427    1.8851   -0.0124 C   0  0  0  0  0  0  0  0  0  0  0  0
    3.2473    2.6019   -1.1017 C   0  0  0  0  0  0  0  0  0  0  0  0
    2.7248    2.5517   -2.2524 O   0  5  0  0  0  0  0  0  0  0  0  0
    4.3142    3.1644   -0.7310 O   0  0  0  0  0  0  0  0  0  0  0  0
    1.9288   -0.5463    1.4242 H   0  0  0  0  0  0  0  0  0  0  0  0
    0.2809    1.2494    1.6132 H   0  0  0  0  0  0  0  0  0  0  0  0
    0.4570    2.1973   -0.7959 H   0  0  0  0  0  0  0  0  0  0  0  0
    1.1935    0.6803   -1.2728 H   0  0  0  0  0  0  0  0  0  0  0  0
    2.3486    2.5459    0.8576 H   0  0  0  0  0  0  0  0  0  0  0  0
    3.0534    1.0318    0.3091 H   0  0  0  0  0  0  0  0  0  0  0  0
   -2.0472    0.9278    1.0633 N   0  0  0  0  0  0  0  0  0  0  0  0
   -3.4680    0.7783    0.8491 C   0  0  2  0  0  0  0  0  0  0  0  0
   -4.1744    1.9224    1.5643 C   0  0  0  0  0  0  0  0  0  0  0  0
   -3.6704    2.5426    2.4984 O   0  0  0  0  0  0  0  0  0  0  0  0
   -3.9651   -0.5675    1.3535 C   0  0  0  0  0  0  0  0  0  0  0  0
   -1.7454    1.4950    1.8500 H   0  0  0  0  0  0  0  0  0  0  0  0
   -3.6357    0.8625   -0.2302 H   0  0  0  0  0  0  0  0  0  0  0  0
   -3.8055   -0.6703    2.4331 H   0  0  0  0  0  0  0  0  0  0  0  0
   -5.0366   -0.6909    1.1646 H   0  0  0  0  0  0  0  0  0  0  0  0
   -3.4349   -1.3889    0.8595 H   0  0  0  0  0  0  0  0  0  0  0  0
   -5.4508    2.1410    1.0652 N   0  0  0  0  0  0  0  0  0  0  0  0
   -6.3272    3.1639    1.5865 C   0  0  0  0  0  0  0  0  0  0  0  0
   -5.7798    1.5918    0.2766 H   0  0  0  0  0  0  0  0  0  0  0  0
   -6.9657    2.7346    2.3726 H   0  0  0  0  0  0  0  0  0  0  0  0
   -5.7252    3.9817    2.0093 H   0  0  0  0  0  0  0  0  0  0  0  0
   -6.9580    3.5547    0.7746 H   0  0  0  0  0  0  0  0  0  0  0  0
  1  3  1  0  0  0  0
  1  7  1  0  0  0  0
  1  2  2  0  0  0  0
 33 34  1  0  0  0  0
 34 42  1  0  0  0  0
 34 35  2  0  0  0  0
  8  9  1  0  0  0  0
  9 17  1  0  0  0  0
  9 10  2  0  0  0  0
 18 19  1  0  0  0  0
 19 32  1  0  0  0  0
 19 20  2  0  0  0  0
 22 23  1  0  0  0  0
 23 24  1  0  0  0  0
 23 25  2  0  0  0  0
 33 36  1  0  0  0  0
  8 11  1  0  0  0  0
 42 43  1  0  0  0  0
 21 22  1  0  0  0  0
 18 21  1  0  0  0  0
 32 33  1  0  0  0  0
  7  8  1  0  0  0  0
 17 18  1  0  0  0  0
  3  4  1  0  0  0  0
  3  5  1  0  0  0  0
  3  6  1  0  0  0  0
 36 39  1  0  0  0  0
 36 40  1  0  0  0  0
 36 41  1  0  0  0  0
 11 14  1  0  0  0  0
 11 15  1  0  0  0  0
 11 16  1  0  0  0  0
 43 45  1  0  0  0  0
 43 46  1  0  0  0  0
 43 47  1  0  0  0  0
 22 30  1  0  0  0  0
 22 31  1  0  0  0  0
 21 28  1  0  0  0  0
 21 29  1  0  0  0  0
 33 38  1  0  0  0  0
  8 13  1  0  0  0  0
 18 27  1  0  0  0  0
 42 44  1  0  0  0  0
  7 12  1  0  0  0  0
 32 37  1  0  0  0  0
 17 26  1  0  0  0  0
M  CHG  1  24  -1
M  END
$$$$

  -OEChem-05262214473D

 47 46  0     1  0  0  0  0  0999 V2000
    0.5093   -4.7265    3.0306 C   0  0  0  0  0  0  0  0  0  0  0  0
    1.2735   -4.4402    3.9448 O   0  0  0  0  0  0  0  0  0  0  0  0
   -0.4465   -5.8608    3.1982 C   0  0  0  0  0  0  0  0  0  0  0  0
   -0.0219   -6.8213    2.8645 H   0  0  0  0  0  0  0  0  0  0  0  0
   -0.7314   -6.0185    4.2509 H   0  0  0  0  0  0  0  0  0  0  0  0
   -1.3983   -5.7596    2.6527 H   0  0  0  0  0  0  0  0  0  0  0  0
    0.4252   -4.0886    1.8040 N   0  0  0  0  0  0  0  0  0  0  0  0
    1.2532   -2.9707    1.4349 C   0  0  2  0  0  0  0  0  0  0  0  0
    0.3395   -1.8293    1.0083 C   0  0  0  0  0  0  0  0  0  0  0  0
   -0.8136   -2.0027    0.6194 O   0  0  0  0  0  0  0  0  0  0  0  0
    2.2176   -3.3411    0.3189 C   0  0  0  0  0  0  0  0  0  0  0  0
   -0.2574   -4.4279    1.1287 H   0  0  0  0  0  0  0  0  0  0  0  0
    1.8087   -2.6785    2.3327 H   0  0  0  0  0  0  0  0  0  0  0  0
    1.6793   -3.6366   -0.5890 H   0  0  0  0  0  0  0  0  0  0  0  0
    2.8662   -2.4980    0.0589 H   0  0  0  0  0  0  0  0  0  0  0  0
    2.8538   -4.1816    0.6166 H   0  0  0  0  0  0  0  0  0  0  0  0
    0.9758   -0.5952    1.0708 N   0  0  0  0  0  0  0  0  0  0  0  0
    0.3258    0.6374    0.7059 C   0  0  2  0  0  0  0  0  0  0  0  0
   -1.0964    0.2955    0.2743 C   0  0  0  0  0  0  0  0  0  0  0  0
   -1.3586   -0.6197   -0.5035 O   0  0  0  0  0  0  0  0  0  0  0  0
    1.0660    1.3644   -0.4232 C   0  0  0  0  0  0  0  0  0  0  0  0
    2.4427    1.8851   -0.0124 C   0  0  0  0  0  0  0  0  0  0  0  0
    3.2473    2.6019   -1.1017 C   0  0  0  0  0  0  0  0  0  0  0  0
    2.7248    2.5517   -2.2524 O   0  5  0  0  0  0  0  0  0  0  0  0
    4.3142    3.1644   -0.7310 O   0  0  0  0  0  0  0  0  0  0  0  0
    1.9288   -0.5463    1.4242 H   0  0  0  0  0  0  0  0  0  0  0  0
    0.2809    1.2494    1.6132 H   0  0  0  0  0  0  0  0  0  0  0  0
    0.4570    2.1973   -0.7959 H   0  0  0  0  0  0  0  0  0  0  0  0
    1.1935    0.6803   -1.2728 H   0  0  0  0  0  0  0  0  0  0  0  0
    2.3486    2.5459    0.8576 H   0  0  0  0  0  0  0  0  0  0  0  0
    3.0534    1.0318    0.3091 H   0  0  0  0  0  0  0  0  0  0  0  0
   -2.0309    1.1623    0.8237 N   0  0  0  0  0  0  0  0  0  0  0  0
   -3.4468    1.0595    0.5567 C   0  0  2  0  0  0  0  0  0  0  0  0
   -4.0932    2.3874    0.9285 C   0  0  0  0  0  0  0  0  0  0  0  0
   -3.5874    3.1817    1.7187 O   0  0  0  0  0  0  0  0  0  0  0  0
   -4.0746   -0.0871    1.3339 C   0  0  0  0  0  0  0  0  0  0  0  0
   -1.7233    1.8828    1.4702 H   0  0  0  0  0  0  0  0  0  0  0  0
   -3.5541    0.8892   -0.5202 H   0  0  0  0  0  0  0  0  0  0  0  0
   -3.9769    0.0658    2.4149 H   0  0  0  0  0  0  0  0  0  0  0  0
   -5.1420   -0.1817    1.1086 H   0  0  0  0  0  0  0  0  0  0  0  0
   -3.5885   -1.0372    1.0874 H   0  0  0  0  0  0  0  0  0  0  0  0
   -5.3219    2.5618    0.3072 N   0  0  0  0  0  0  0  0  0  0  0  0
   -6.1377    3.7365    0.5088 C   0  0  0  0  0  0  0  0  0  0  0  0
   -5.6550    1.8601   -0.3473 H   0  0  0  0  0  0  0  0  0  0  0  0
   -6.8465    3.5547    1.3301 H   0  0  0  0  0  0  0  0  0  0  0  0
   -5.4934    4.5910    0.7629 H   0  0  0  0  0  0  0  0  0  0  0  0
   -6.6946    3.9587   -0.4135 H   0  0  0  0  0  0  0  0  0  0  0  0
  1  3  1  0  0  0  0
  1  7  1  0  0  0  0
  1  2  2  0  0  0  0
 33 34  1  0  0  0  0
 34 42  1  0  0  0  0
 34 35  2  0  0  0  0
  8  9  1  0  0  0  0
  9 17  1  0  0  0  0
  9 10  2  0  0  0  0
 18 19  1  0  0  0  0
 19 32  1  0  0  0  0
 19 20  2  0  0  0  0
 22 23  1  0  0  0  0
 23 24  1  0  0  0  0
 23 25  2  0  0  0  0
 33 36  1  0  0  0  0
  8 11  1  0  0  0  0
 42 43  1  0  0  0  0
 21 22  1  0  0  0  0
 18 21  1  0  0  0  0
 32 33  1  0  0  0  0
  7  8  1  0  0  0  0
 17 18  1  0  0  0  0
  3  4  1  0  0  0  0
  3  5  1  0  0  0  0
  3  6  1  0  0  0  0
 36 39  1  0  0  0  0
 36 40  1  0  0  0  0
 36 41  1  0  0  0  0
 11 14  1  0  0  0  0
 11 15  1  0  0  0  0
 11 16  1  0  0  0  0
 43 45  1  0  0  0  0
 43 46  1  0  0  0  0
 43 47  1  0  0  0  0
 22 30  1  0  0  0  0
 22 31  1  0  0  0  0
 21 28  1  0  0  0  0
 21 29  1  0  0  0  0
 33 38  1  0  0  0  0
  8 13  1  0  0  0  0
 18 27  1  0  0  0  0
 42 44  1  0  0  0  0
  7 12  1  0  0  0  0
 32 37  1  0  0  0  0
 17 26  1  0  0  0  0
M  CHG  1  24  -1
M  END
$$$$

  -OEChem-05262214473D

 47 46  0     1  0  0  0  0  0999 V2000
    0.5093   -4.7265    3.0306 C   0  0  0  0  0  0  0  0  0  0  0  0
    1.2735   -4.4402    3.9448 O   0  0  0  0  0  0  0  0  0  0  0  0
   -0.4465   -5.8608    3.1982 C   0  0  0  0  0  0  0  0  0  0  0  0
   -0.0219   -6.8213    2.8645 H   0  0  0  0  0  0  0  0  0  0  0  0
   -0.7314   -6.0185    4.2509 H   0  0  0  0  0  0  0  0  0  0  0  0
   -1.3983   -5.7596    2.6527 H   0  0  0  0  0  0  0  0  0  0  0  0
    0.4252   -4.0886    1.8040 N   0  0  0  0  0  0  0  0  0  0  0  0
    1.2532   -2.9707    1.4349 C   0  0  2  0  0  0  0  0  0  0  0  0
    0.3395   -1.8293    1.0083 C   0  0  0  0  0  0  0  0  0  0  0  0
   -0.8136   -2.0027    0.6194 O   0  0  0  0  0  0  0  0  0  0  0  0
    2.2176   -3.3411    0.3189 C   0  0  0  0  0  0  0  0  0  0  0  0
   -0.2574   -4.4279    1.1287 H   0  0  0  0  0  0  0  0  0  0  0  0
    1.8087   -2.6785    2.3327 H   0  0  0  0  0  0  0  0  0  0  0  0
    1.6793   -3.6366   -0.5890 H   0  0  0  0  0  0  0  0  0  0  0  0
    2.8662   -2.4980    0.0589 H   0  0  0  0  0  0  0  0  0  0  0  0
    2.8538   -4.1816    0.6166 H   0  0  0  0  0  0  0  0  0  0  0  0
    0.9758   -0.5952    1.0708 N   0  0  0  0  0  0  0  0  0  0  0  0
    0.3258    0.6374    0.7059 C   0  0  2  0  0  0  0  0  0  0  0  0
   -1.0964    0.2955    0.2743 C   0  0  0  0  0  0  0  0  0  0  0  0
   -1.3928   -0.7621   -0.2778 O   0  0  0  0  0  0  0  0  0  0  0  0
    1.0660    1.3644   -0.4232 C   0  0  0  0  0  0  0  0  0  0  0  0
    2.4427    1.8851   -0.0124 C   0  0  0  0  0  0  0  0  0  0  0  0
    3.2473    2.6019   -1.1017 C   0  0  0  0  0  0  0  0  0  0  0  0
    2.7248    2.5517   -2.2524 O   0  5  0  0  0  0  0  0  0  0  0  0
    4.3142    3.1644   -0.7310 O   0  0  0  0  0  0  0  0  0  0  0  0
    1.9288   -0.5463    1.4242 H   0  0  0  0  0  0  0  0  0  0  0  0
    0.2809    1.2494    1.6132 H   0  0  0  0  0  0  0  0  0  0  0  0
    0.4570    2.1973   -0.7959 H   0  0  0  0  0  0  0  0  0  0  0  0
    1.1935    0.6803   -1.2728 H   0  0  0  0  0  0  0  0  0  0  0  0
    2.3486    2.5459    0.8576 H   0  0  0  0  0  0  0  0  0  0  0  0
    3.0534    1.0318    0.3091 H   0  0  0  0  0  0  0  0  0  0  0  0
   -1.9840    1.3298    0.5365 N   0  0  0  0  0  0  0  0  0  0  0  0
   -3.3888    1.2589    0.2076 C   0  0  2  0  0  0  0  0  0  0  0  0
   -3.9438    2.6772    0.2068 C   0  0  0  0  0  0  0  0  0  0  0  0
   -3.4152    3.6047    0.8161 O   0  0  0  0  0  0  0  0  0  0  0  0
   -4.1441    0.3802    1.1926 C   0  0  0  0  0  0  0  0  0  0  0  0
   -1.6516    2.1641    1.0110 H   0  0  0  0  0  0  0  0  0  0  0  0
   -3.4565    0.8391   -0.8020 H   0  0  0  0  0  0  0  0  0  0  0  0
   -4.0875    0.7850    2.2097 H   0  0  0  0  0  0  0  0  0  0  0  0
   -5.2033    0.3045    0.9255 H   0  0  0  0  0  0  0  0  0  0  0  0
   -3.7244   -0.6313    1.2137 H   0  0  0  0  0  0  0  0  0  0  0  0
   -5.1226    2.7759   -0.5191 N   0  0  0  0  0  0  0  0  0  0  0  0
   -5.8503    4.0156   -0.6595 C   0  0  0  0  0  0  0  0  0  0  0  0
   -5.4785    1.9595   -1.0076 H   0  0  0  0  0  0  0  0  0  0  0  0
   -6.6108    4.0866    0.1321 H   0  0  0  0  0  0  0  0  0  0  0  0
   -5.1526    4.8617   -0.5745 H   0  0  0  0  0  0  0  0  0  0  0  0
   -6.3416    4.0428   -1.6433 H   0  0  0  0  0  0  0  0  0  0  0  0
  1  3  1  0  0  0  0
  1  7  1  0  0  0  0
  1  2  2  0  0  0  0
 33 34  1  0  0  0  0
 34 42  1  0  0  0  0
 34 35  2  0  0  0  0
  8  9  1  0  0  0  0
  9 17  1  0  0  0  0
  9 10  2  0  0  0  0
 18 19  1  0  0  0  0
 19 32  1  0  0  0  0
 19 20  2  0  0  0  0
 22 23  1  0  0  0  0
 23 24  1  0  0  0  0
 23 25  2  0  0  0  0
 33 36  1  0  0  0  0
  8 11  1  0  0  0  0
 42 43  1  0  0  0  0
 21 22  1  0  0  0  0
 18 21  1  0  0  0  0
 32 33  1  0  0  0  0
  7  8  1  0  0  0  0
 17 18  1  0  0  0  0
  3  4  1  0  0  0  0
  3  5  1  0  0  0  0
  3  6  1  0  0  0  0
 36 39  1  0  0  0  0
 36 40  1  0  0  0  0
 36 41  1  0  0  0  0
 11 14  1  0  0  0  0
 11 15  1  0  0  0  0
 11 16  1  0  0  0  0
 43 45  1  0  0  0  0
 43 46  1  0  0  0  0
 43 47  1  0  0  0  0
 22 30  1  0  0  0  0
 22 31  1  0  0  0  0
 21 28  1  0  0  0  0
 21 29  1  0  0  0  0
 33 38  1  0  0  0  0
  8 13  1  0  0  0  0
 18 27  1  0  0  0  0
 42 44  1  0  0  0  0
  7 12  1  0  0  0  0
 32 37  1  0  0  0  0
 17 26  1  0  0  0  0
M  CHG  1  24  -1
M  END
$$$$

  -OEChem-05262214473D

 47 46  0     1  0  0  0  0  0999 V2000
    0.5093   -4.7265    3.0306 C   0  0  0  0  0  0  0  0  0  0  0  0
    1.2735   -4.4402    3.9448 O   0  0  0  0  0  0  0  0  0  0  0  0
   -0.4465   -5.8608    3.1982 C   0  0  0  0  0  0  0  0  0  0  0  0
   -0.0219   -6.8213    2.8645 H   0  0  0  0  0  0  0  0  0  0  0  0
   -0.7314   -6.0185    4.2509 H   0  0  0  0  0  0  0  0  0  0  0  0
   -1.3983   -5.7596    2.6527 H   0  0  0  0  0  0  0  0  0  0  0  0
    0.4252   -4.0886    1.8040 N   0  0  0  0  0  0  0  0  0  0  0  0
    1.2532   -2.9707    1.4349 C   0  0  2  0  0  0  0  0  0  0  0  0
    0.3395   -1.8293    1.0083 C   0  0  0  0  0  0  0  0  0  0  0  0
   -0.8136   -2.0027    0.6194 O   0  0  0  0  0  0  0  0  0  0  0  0
    2.2176   -3.3411    0.3189 C   0  0  0  0  0  0  0  0  0  0  0  0
   -0.2574   -4.4279    1.1287 H   0  0  0  0  0  0  0  0  0  0  0  0
    1.8087   -2.6785    2.3327 H   0  0  0  0  0  0  0  0  0  0  0  0
    1.6793   -3.6366   -0.5890 H   0  0  0  0  0  0  0  0  0  0  0  0
    2.8662   -2.4980    0.0589 H   0  0  0  0  0  0  0  0  0  0  0  0
    2.8538   -4.1816    0.6166 H   0  0  0  0  0  0  0  0  0  0  0  0
    0.9758   -0.5952    1.0708 N   0  0  0  0  0  0  0  0  0  0  0  0
    0.3258    0.6374    0.7059 C   0  0  2  0  0  0  0  0  0  0  0  0
   -1.0964    0.2955    0.2743 C   0  0  0  0  0  0  0  0  0  0  0  0
   -1.4495   -0.8427   -0.0274 O   0  0  0  0  0  0  0  0  0  0  0  0
    1.0660    1.3644   -0.4232 C   0  0  0  0  0  0  0  0  0  0  0  0
    2.4427    1.8851   -0.0124 C   0  0  0  0  0  0  0  0  0  0  0  0
    3.2473    2.6019   -1.1017 C   0  0  0  0  0  0  0  0  0  0  0  0
    2.7248    2.5517   -2.2524 O   0  5  0  0  0  0  0  0  0  0  0  0
    4.3142    3.1644   -0.7310 O   0  0  0  0  0  0  0  0  0  0  0  0
    1.9288   -0.5463    1.4242 H   0  0  0  0  0  0  0  0  0  0  0  0
    0.2809    1.2494    1.6132 H   0  0  0  0  0  0  0  0  0  0  0  0
    0.4570    2.1973   -0.7959 H   0  0  0  0  0  0  0  0  0  0  0  0
    1.1935    0.6803   -1.2728 H   0  0  0  0  0  0  0  0  0  0  0  0
    2.3486    2.5459    0.8576 H   0  0  0  0  0  0  0  0  0  0  0  0
    3.0534    1.0318    0.3091 H   0  0  0  0  0  0  0  0  0  0  0  0
   -1.9098    1.4189    0.2214 N   0  0  0  0  0  0  0  0  0  0  0  0
   -3.2979    1.3631   -0.1744 C   0  0  2  0  0  0  0  0  0  0  0  0
   -3.7365    2.7719   -0.5516 C   0  0  0  0  0  0  0  0  0  0  0  0
   -3.1655    3.7829   -0.1478 O   0  0  0  0  0  0  0  0  0  0  0  0
   -4.1687    0.8026    0.9393 C   0  0  0  0  0  0  0  0  0  0  0  0
   -1.5351    2.3197    0.5037 H   0  0  0  0  0  0  0  0  0  0  0  0
   -3.3496    0.7154   -1.0564 H   0  0  0  0  0  0  0  0  0  0  0  0
   -4.1298    1.4382    1.8315 H   0  0  0  0  0  0  0  0  0  0  0  0
   -5.2162    0.7343    0.6277 H   0  0  0  0  0  0  0  0  0  0  0  0
   -3.8333   -0.1988    1.2298 H   0  0  0  0  0  0  0  0  0  0  0  0
   -4.8665    2.7686   -1.3573 N   0  0  0  0  0  0  0  0  0  0  0  0
   -5.4844    3.9821   -1.8386 C   0  0  0  0  0  0  0  0  0  0  0  0
   -5.2625    1.8832   -1.6591 H   0  0  0  0  0  0  0  0  0  0  0  0
   -6.2746    4.2939   -1.1398 H   0  0  0  0  0  0  0  0  0  0  0  0
   -4.7260    4.7755   -1.9120 H   0  0  0  0  0  0  0  0  0  0  0  0
   -5.9231    3.8014   -2.8311 H   0  0  0  0  0  0  0  0  0  0  0  0
  1  3  1  0  0  0  0
  1  7  1  0  0  0  0
  1  2  2  0  0  0  0
 33 34  1  0  0  0  0
 34 42  1  0  0  0  0
 34 35  2  0  0  0  0
  8  9  1  0  0  0  0
  9 17  1  0  0  0  0
  9 10  2  0  0  0  0
 18 19  1  0  0  0  0
 19 32  1  0  0  0  0
 19 20  2  0  0  0  0
 22 23  1  0  0  0  0
 23 24  1  0  0  0  0
 23 25  2  0  0  0  0
 33 36  1  0  0  0  0
  8 11  1  0  0  0  0
 42 43  1  0  0  0  0
 21 22  1  0  0  0  0
 18 21  1  0  0  0  0
 32 33  1  0  0  0  0
  7  8  1  0  0  0  0
 17 18  1  0  0  0  0
  3  4  1  0  0  0  0
  3  5  1  0  0  0  0
  3  6  1  0  0  0  0
 36 39  1  0  0  0  0
 36 40  1  0  0  0  0
 36 41  1  0  0  0  0
 11 14  1  0  0  0  0
 11 15  1  0  0  0  0
 11 16  1  0  0  0  0
 43 45  1  0  0  0  0
 43 46  1  0  0  0  0
 43 47  1  0  0  0  0
 22 30  1  0  0  0  0
 22 31  1  0  0  0  0
 21 28  1  0  0  0  0
 21 29  1  0  0  0  0
 33 38  1  0  0  0  0
  8 13  1  0  0  0  0
 18 27  1  0  0  0  0
 42 44  1  0  0  0  0
  7 12  1  0  0  0  0
 32 37  1  0  0  0  0
 17 26  1  0  0  0  0
M  CHG  1  24  -1
M  END
$$$$

  -OEChem-05262214473D

 47 46  0     1  0  0  0  0  0999 V2000
    0.5093   -4.7265    3.0306 C   0  0  0  0  0  0  0  0  0  0  0  0
    1.2735   -4.4402    3.9448 O   0  0  0  0  0  0  0  0  0  0  0  0
   -0.4465   -5.8608    3.1982 C   0  0  0  0  0  0  0  0  0  0  0  0
   -0.0219   -6.8213    2.8645 H   0  0  0  0  0  0  0  0  0  0  0  0
   -0.7314   -6.0185    4.2509 H   0  0  0  0  0  0  0  0  0  0  0  0
   -1.3983   -5.7596    2.6527 H   0  0  0  0  0  0  0  0  0  0  0  0
    0.4252   -4.0886    1.8040 N   0  0  0  0  0  0  0  0  0  0  0  0
    1.2532   -2.9707    1.4349 C   0  0  2  0  0  0  0  0  0  0  0  0
    0.3395   -1.8293    1.0083 C   0  0  0  0  0  0  0  0  0  0  0  0
   -0.8136   -2.0027    0.6194 O   0  0  0  0  0  0  0  0  0  0  0  0
    2.2176   -3.3411    0.3189 C   0  0  0  0  0  0  0  0  0  0  0  0
   -0.2574   -4.4279    1.1287 H   0  0  0  0  0  0  0  0  0  0  0  0
    1.8087   -2.6785    2.3327 H   0  0  0  0  0  0  0  0  0  0  0  0
    1.6793   -3.6366   -0.5890 H   0  0  0  0  0  0  0  0  0  0  0  0
    2.8662   -2.4980    0.0589 H   0  0  0  0  0  0  0  0  0  0  0  0
    2.8538   -4.1816    0.6166 H   0  0  0  0  0  0  0  0  0  0  0  0
    0.9758   -0.5952    1.0708 N   0  0  0  0  0  0  0  0  0  0  0  0
    0.3258    0.6374    0.7059 C   0  0  2  0  0  0  0  0  0  0  0  0
   -1.1730    0.3634    0.6399 C   0  0  0  0  0  0  0  0  0  0  0  0
   -1.6597   -0.7487    0.8339 O   0  0  0  0  0  0  0  0  0  0  0  0
    0.8295    1.1759   -0.6385 C   0  0  0  0  0  0  0  0  0  0  0  0
    2.2888    1.6285   -0.6050 C   0  0  0  0  0  0  0  0  0  0  0  0
    2.8636    2.1562   -1.9237 C   0  0  0  0  0  0  0  0  0  0  0  0
    2.0933    2.0216   -2.9178 O   0  5  0  0  0  0  0  0  0  0  0  0
    4.0146    2.6701   -1.8668 O   0  0  0  0  0  0  0  0  0  0  0  0
    1.9288   -0.5463    1.4242 H   0  0  0  0  0  0  0  0  0  0  0  0
    0.5186    1.3467    1.5180 H   0  0  0  0  0  0  0  0  0  0  0  0
    0.1967    2.0084   -0.9703 H   0  0  0  0  0  0  0  0  0  0  0  0
    0.7263    0.3951   -1.4038 H   0  0  0  0  0  0  0  0  0  0  0  0
    2.4279    2.3859    0.1756 H   0  0  0  0  0  0  0  0  0  0  0  0
    2.9106    0.7700   -0.3207 H   0  0  0  0  0  0  0  0  0  0  0  0
   -1.8957    1.4965    0.2933 N   0  0  0  0  0  0  0  0  0  0  0  0
   -3.3331    1.4953    0.1497 C   0  0  2  0  0  0  0  0  0  0  0  0
   -3.7264    2.7278   -0.6539 C   0  0  0  0  0  0  0  0  0  0  0  0
   -3.0169    3.7281   -0.7384 O   0  0  0  0  0  0  0  0  0  0  0  0
   -4.0245    1.4862    1.5042 C   0  0  0  0  0  0  0  0  0  0  0  0
   -1.4091    2.3789    0.1661 H   0  0  0  0  0  0  0  0  0  0  0  0
   -3.5940    0.5928   -0.4136 H   0  0  0  0  0  0  0  0  0  0  0  0
   -3.7750    2.3830    2.0831 H   0  0  0  0  0  0  0  0  0  0  0  0
   -5.1135    1.4566    1.3936 H   0  0  0  0  0  0  0  0  0  0  0  0
   -3.7175    0.6148    2.0926 H   0  0  0  0  0  0  0  0  0  0  0  0
   -4.9821    2.5961   -1.2303 N   0  0  0  0  0  0  0  0  0  0  0  0
   -5.5850    3.6356   -2.0316 C   0  0  0  0  0  0  0  0  0  0  0  0
   -5.4919    1.7241   -1.1236 H   0  0  0  0  0  0  0  0  0  0  0  0
   -6.2080    4.2777   -1.3917 H   0  0  0  0  0  0  0  0  0  0  0  0
   -4.7955    4.2412   -2.5007 H   0  0  0  0  0  0  0  0  0  0  0  0
   -6.2105    3.1796   -2.8132 H   0  0  0  0  0  0  0  0  0  0  0  0
  1  3  1  0  0  0  0
  1  7  1  0  0  0  0
  1  2  2  0  0  0  0
 33 34  1  0  0  0  0
 34 42  1  0  0  0  0
 34 35  2  0  0  0  0
  8  9  1  0  0  0  0
  9 17  1  0  0  0  0
  9 10  2  0  0  0  0
 18 19  1  0  0  0  0
 19 32  1  0  0  0  0
 19 20  2  0  0  0  0
 22 23  1  0  0  0  0
 23 24  1  0  0  0  0
 23 25  2  0  0  0  0
 33 36  1  0  0  0  0
  8 11  1  0  0  0  0
 42 43  1  0  0  0  0
 21 22  1  0  0  0  0
 18 21  1  0  0  0  0
 32 33  1  0  0  0  0
  7  8  1  0  0  0  0
 17 18  1  0  0  0  0
  3  4  1  0  0  0  0
  3  5  1  0  0  0  0
  3  6  1  0  0  0  0
 36 39  1  0  0  0  0
 36 40  1  0  0  0  0
 36 41  1  0  0  0  0
 11 14  1  0  0  0  0
 11 15  1  0  0  0  0
 11 16  1  0  0  0  0
 43 45  1  0  0  0  0
 43 46  1  0  0  0  0
 43 47  1  0  0  0  0
 22 30  1  0  0  0  0
 22 31  1  0  0  0  0
 21 28  1  0  0  0  0
 21 29  1  0  0  0  0
 33 38  1  0  0  0  0
  8 13  1  0  0  0  0
 18 27  1  0  0  0  0
 42 44  1  0  0  0  0
  7 12  1  0  0  0  0
 32 37  1  0  0  0  0
 17 26  1  0  0  0  0
M  CHG  1  24  -1
M  END
$$$$

  -OEChem-05262214473D

 47 46  0     1  0  0  0  0  0999 V2000
    0.5093   -4.7265    3.0306 C   0  0  0  0  0  0  0  0  0  0  0  0
    1.2735   -4.4402    3.9448 O   0  0  0  0  0  0  0  0  0  0  0  0
   -0.4465   -5.8608    3.1982 C   0  0  0  0  0  0  0  0  0  0  0  0
   -0.0219   -6.8213    2.8645 H   0  0  0  0  0  0  0  0  0  0  0  0
   -0.7314   -6.0185    4.2509 H   0  0  0  0  0  0  0  0  0  0  0  0
   -1.3983   -5.7596    2.6527 H   0  0  0  0  0  0  0  0  0  0  0  0
    0.4252   -4.0886    1.8040 N   0  0  0  0  0  0  0  0  0  0  0  0
    1.2532   -2.9707    1.4349 C   0  0  2  0  0  0  0  0  0  0  0  0
    0.3395   -1.8293    1.0083 C   0  0  0  0  0  0  0  0  0  0  0  0
   -0.8136   -2.0027    0.6194 O   0  0  0  0  0  0  0  0  0  0  0  0
    2.2176   -3.3411    0.3189 C   0  0  0  0  0  0  0  0  0  0  0  0
   -0.2574   -4.4279    1.1287 H   0  0  0  0  0  0  0  0  0  0  0  0
    1.8087   -2.6785    2.3327 H   0  0  0  0  0  0  0  0  0  0  0  0
    1.6793   -3.6366   -0.5890 H   0  0  0  0  0  0  0  0  0  0  0  0
    2.8662   -2.4980    0.0589 H   0  0  0  0  0  0  0  0  0  0  0  0
    2.8538   -4.1816    0.6166 H   0  0  0  0  0  0  0  0  0  0  0  0
    0.9758   -0.5952    1.0708 N   0  0  0  0  0  0  0  0  0  0  0  0
    0.3258    0.6374    0.7059 C   0  0  2  0  0  0  0  0  0  0  0  0
   -1.1730    0.3634    0.6399 C   0  0  0  0  0  0  0  0  0  0  0  0
   -1.6871   -0.6601    1.0865 O   0  0  0  0  0  0  0  0  0  0  0  0
    0.8295    1.1759   -0.6385 C   0  0  0  0  0  0  0  0  0  0  0  0
    2.2888    1.6285   -0.6050 C   0  0  0  0  0  0  0  0  0  0  0  0
    2.8636    2.1562   -1.9237 C   0  0  0  0  0  0  0  0  0  0  0  0
    2.0933    2.0216   -2.9178 O   0  5  0  0  0  0  0  0  0  0  0  0
    4.0146    2.6701   -1.8668 O   0  0  0  0  0  0  0  0  0  0  0  0
    1.9288   -0.5463    1.4242 H   0  0  0  0  0  0  0  0  0  0  0  0
    0.5186    1.3467    1.5180 H   0  0  0  0  0  0  0  0  0  0  0  0
    0.1967    2.0084   -0.9703 H   0  0  0  0  0  0  0  0  0  0  0  0
    0.7263    0.3951   -1.4038 H   0  0  0  0  0  0  0  0  0  0  0  0
    2.4279    2.3859    0.1756 H   0  0  0  0  0  0  0  0  0  0  0  0
    2.9106    0.7700   -0.3207 H   0  0  0  0  0  0  0  0  0  0  0  0
   -1.8597    1.3746   -0.0175 N   0  0  0  0  0  0  0  0  0  0  0  0
   -3.2890    1.3444   -0.2248 C   0  0  2  0  0  0  0  0  0  0  0  0
   -3.6245    2.3336   -1.3332 C   0  0  0  0  0  0  0  0  0  0  0  0
   -2.8948    3.2757   -1.6349 O   0  0  0  0  0  0  0  0  0  0  0  0
   -4.0407    1.6840    1.0528 C   0  0  0  0  0  0  0  0  0  0  0  0
   -1.3528    2.1930   -0.3412 H   0  0  0  0  0  0  0  0  0  0  0  0
   -3.5398    0.3295   -0.5521 H   0  0  0  0  0  0  0  0  0  0  0  0
   -3.8023    2.6973    1.3961 H   0  0  0  0  0  0  0  0  0  0  0  0
   -5.1240    1.6328    0.9013 H   0  0  0  0  0  0  0  0  0  0  0  0
   -3.7757    0.9895    1.8573 H   0  0  0  0  0  0  0  0  0  0  0  0
   -4.8549    2.0660   -1.9167 N   0  0  0  0  0  0  0  0  0  0  0  0
   -5.4031    2.8703   -2.9838 C   0  0  0  0  0  0  0  0  0  0  0  0
   -5.3840    1.2526   -1.6165 H   0  0  0  0  0  0  0  0  0  0  0  0
   -6.0432    3.6574   -2.5587 H   0  0  0  0  0  0  0  0  0  0  0  0
   -4.5831    3.3323   -3.5529 H   0  0  0  0  0  0  0  0  0  0  0  0
   -6.0006    2.2336   -3.6529 H   0  0  0  0  0  0  0  0  0  0  0  0
  1  3  1  0  0  0  0
  1  7  1  0  0  0  0
  1  2  2  0  0  0  0
 33 34  1  0  0  0  0
 34 42  1  0  0  0  0
 34 35  2  0  0  0  0
  8  9  1  0  0  0  0
  9 17  1  0  0  0  0
  9 10  2  0  0  0  0
 18 19  1  0  0  0  0
 19 32  1  0  0  0  0
 19 20  2  0  0  0  0
 22 23  1  0  0  0  0
 23 24  1  0  0  0  0
 23 25  2  0  0  0  0
 33 36  1  0  0  0  0
  8 11  1  0  0  0  0
 42 43  1  0  0  0  0
 21 22  1  0  0  0  0
 18 21  1  0  0  0  0
 32 33  1  0  0  0  0
  7  8  1  0  0  0  0
 17 18  1  0  0  0  0
  3  4  1  0  0  0  0
  3  5  1  0  0  0  0
  3  6  1  0  0  0  0
 36 39  1  0  0  0  0
 36 40  1  0  0  0  0
 36 41  1  0  0  0  0
 11 14  1  0  0  0  0
 11 15  1  0  0  0  0
 11 16  1  0  0  0  0
 43 45  1  0  0  0  0
 43 46  1  0  0  0  0
 43 47  1  0  0  0  0
 22 30  1  0  0  0  0
 22 31  1  0  0  0  0
 21 28  1  0  0  0  0
 21 29  1  0  0  0  0
 33 38  1  0  0  0  0
  8 13  1  0  0  0  0
 18 27  1  0  0  0  0
 42 44  1  0  0  0  0
  7 12  1  0  0  0  0
 32 37  1  0  0  0  0
 17 26  1  0  0  0  0
M  CHG  1  24  -1
M  END
$$$$

  -OEChem-05262214473D

 47 46  0     1  0  0  0  0  0999 V2000
    0.5093   -4.7265    3.0306 C   0  0  0  0  0  0  0  0  0  0  0  0
    1.2735   -4.4402    3.9448 O   0  0  0  0  0  0  0  0  0  0  0  0
   -0.4465   -5.8608    3.1982 C   0  0  0  0  0  0  0  0  0  0  0  0
   -0.0219   -6.8213    2.8645 H   0  0  0  0  0  0  0  0  0  0  0  0
   -0.7314   -6.0185    4.2509 H   0  0  0  0  0  0  0  0  0  0  0  0
   -1.3983   -5.7596    2.6527 H   0  0  0  0  0  0  0  0  0  0  0  0
    0.4252   -4.0886    1.8040 N   0  0  0  0  0  0  0  0  0  0  0  0
    1.2532   -2.9707    1.4349 C   0  0  2  0  0  0  0  0  0  0  0  0
    0.3395   -1.8293    1.0083 C   0  0  0  0  0  0  0  0  0  0  0  0
   -0.8136   -2.0027    0.6194 O   0  0  0  0  0  0  0  0  0  0  0  0
    2.2176   -3.3411    0.3189 C   0  0  0  0  0  0  0  0  0  0  0  0
   -0.2574   -4.4279    1.1287 H   0  0  0  0  0  0  0  0  0  0  0  0
    1.8087   -2.6785    2.3327 H   0  0  0  0  0  0  0  0  0  0  0  0
    1.6793   -3.6366   -0.5890 H   0  0  0  0  0  0  0  0  0  0  0  0
    2.8662   -2.4980    0.0589 H   0  0  0  0  0  0  0  0  0  0  0  0
    2.8538   -4.1816    0.6166 H   0  0  0  0  0  0  0  0  0  0  0  0
    0.9758   -0.5952    1.0708 N   0  0  0  0  0  0  0  0  0  0  0  0
    0.3258    0.6374    0.7059 C   0  0  2  0  0  0  0  0  0  0  0  0
   -1.1730    0.3634    0.6399 C   0  0  0  0  0  0  0  0  0  0  0  0
   -1.7242   -0.5100    1.3068 O   0  0  0  0  0  0  0  0  0  0  0  0
    0.8295    1.1759   -0.6385 C   0  0  0  0  0  0  0  0  0  0  0  0
    2.2888    1.6285   -0.6050 C   0  0  0  0  0  0  0  0  0  0  0  0
    2.8636    2.1562   -1.9237 C   0  0  0  0  0  0  0  0  0  0  0  0
    2.0933    2.0216   -2.9178 O   0  5  0  0  0  0  0  0  0  0  0  0
    4.0146    2.6701   -1.8668 O   0  0  0  0  0  0  0  0  0  0  0  0
    1.9288   -0.5463    1.4242 H   0  0  0  0  0  0  0  0  0  0  0  0
    0.5186    1.3467    1.5180 H   0  0  0  0  0  0  0  0  0  0  0  0
    0.1967    2.0084   -0.9703 H   0  0  0  0  0  0  0  0  0  0  0  0
    0.7263    0.3951   -1.4038 H   0  0  0  0  0  0  0  0  0  0  0  0
    2.4279    2.3859    0.1756 H   0  0  0  0  0  0  0  0  0  0  0  0
    2.9106    0.7700   -0.3207 H   0  0  0  0  0  0  0  0  0  0  0  0
   -1.8119    1.1774   -0.2850 N   0  0  0  0  0  0  0  0  0  0  0  0
   -3.2307    1.1028   -0.5462 C   0  0  2  0  0  0  0  0  0  0  0  0
   -3.4988    1.7789   -1.8842 C   0  0  0  0  0  0  0  0  0  0  0  0
   -2.7402    2.6094   -2.3801 O   0  0  0  0  0  0  0  0  0  0  0  0
   -4.0333    1.7604    0.5656 C   0  0  0  0  0  0  0  0  0  0  0  0
   -1.2769    1.8838   -0.7814 H   0  0  0  0  0  0  0  0  0  0  0  0
   -3.4839    0.0393   -0.6165 H   0  0  0  0  0  0  0  0  0  0  0  0
   -3.7931    2.8265    0.6513 H   0  0  0  0  0  0  0  0  0  0  0  0
   -5.1093    1.6780    0.3804 H   0  0  0  0  0  0  0  0  0  0  0  0
   -3.8167    1.2923    1.5320 H   0  0  0  0  0  0  0  0  0  0  0  0
   -4.7062    1.3780   -2.4389 N   0  0  0  0  0  0  0  0  0  0  0  0
   -5.1918    1.8868   -3.7004 C   0  0  0  0  0  0  0  0  0  0  0  0
   -5.2621    0.6705   -1.9676 H   0  0  0  0  0  0  0  0  0  0  0  0
   -5.8368    2.7595   -3.5204 H   0  0  0  0  0  0  0  0  0  0  0  0
   -4.3391    2.1845   -4.3283 H   0  0  0  0  0  0  0  0  0  0  0  0
   -5.7694    1.1038   -4.2135 H   0  0  0  0  0  0  0  0  0  0  0  0
  1  3  1  0  0  0  0
  1  7  1  0  0  0  0
  1  2  2  0  0  0  0
 33 34  1  0  0  0  0
 34 42  1  0  0  0  0
 34 35  2  0  0  0  0
  8  9  1  0  0  0  0
  9 17  1  0  0  0  0
  9 10  2  0  0  0  0
 18 19  1  0  0  0  0
 19 32  1  0  0  0  0
 19 20  2  0  0  0  0
 22 23  1  0  0  0  0
 23 24  1  0  0  0  0
 23 25  2  0  0  0  0
 33 36  1  0  0  0  0
  8 11  1  0  0  0  0
 42 43  1  0  0  0  0
 21 22  1  0  0  0  0
 18 21  1  0  0  0  0
 32 33  1  0  0  0  0
  7  8  1  0  0  0  0
 17 18  1  0  0  0  0
  3  4  1  0  0  0  0
  3  5  1  0  0  0  0
  3  6  1  0  0  0  0
 36 39  1  0  0  0  0
 36 40  1  0  0  0  0
 36 41  1  0  0  0  0
 11 14  1  0  0  0  0
 11 15  1  0  0  0  0
 11 16  1  0  0  0  0
 43 45  1  0  0  0  0
 43 46  1  0  0  0  0
 43 47  1  0  0  0  0
 22 30  1  0  0  0  0
 22 31  1  0  0  0  0
 21 28  1  0  0  0  0
 21 29  1  0  0  0  0
 33 38  1  0  0  0  0
  8 13  1  0  0  0  0
 18 27  1  0  0  0  0
 42 44  1  0  0  0  0
  7 12  1  0  0  0  0
 32 37  1  0  0  0  0
 17 26  1  0  0  0  0
M  CHG  1  24  -1
M  END
$$$$

  -OEChem-05262214473D

 47 46  0     1  0  0  0  0  0999 V2000
    0.5093   -4.7265    3.0306 C   0  0  0  0  0  0  0  0  0  0  0  0
    1.2735   -4.4402    3.9448 O   0  0  0  0  0  0  0  0  0  0  0  0
   -0.4465   -5.8608    3.1982 C   0  0  0  0  0  0  0  0  0  0  0  0
   -0.0219   -6.8213    2.8645 H   0  0  0  0  0  0  0  0  0  0  0  0
   -0.7314   -6.0185    4.2509 H   0  0  0  0  0  0  0  0  0  0  0  0
   -1.3983   -5.7596    2.6527 H   0  0  0  0  0  0  0  0  0  0  0  0
    0.4252   -4.0886    1.8040 N   0  0  0  0  0  0  0  0  0  0  0  0
    1.2532   -2.9707    1.4349 C   0  0  2  0  0  0  0  0  0  0  0  0
    0.3395   -1.8293    1.0083 C   0  0  0  0  0  0  0  0  0  0  0  0
   -0.8136   -2.0027    0.6194 O   0  0  0  0  0  0  0  0  0  0  0  0
    2.2176   -3.3411    0.3189 C   0  0  0  0  0  0  0  0  0  0  0  0
   -0.2574   -4.4279    1.1287 H   0  0  0  0  0  0  0  0  0  0  0  0
    1.8087   -2.6785    2.3327 H   0  0  0  0  0  0  0  0  0  0  0  0
    1.6793   -3.6366   -0.5890 H   0  0  0  0  0  0  0  0  0  0  0  0
    2.8662   -2.4980    0.0589 H   0  0  0  0  0  0  0  0  0  0  0  0
    2.8538   -4.1816    0.6166 H   0  0  0  0  0  0  0  0  0  0  0  0
    0.9758   -0.5952    1.0708 N   0  0  0  0  0  0  0  0  0  0  0  0
    0.3258    0.6374    0.7059 C   0  0  2  0  0  0  0  0  0  0  0  0
   -1.1730    0.3634    0.6399 C   0  0  0  0  0  0  0  0  0  0  0  0
   -1.7686   -0.3086    1.4796 O   0  0  0  0  0  0  0  0  0  0  0  0
    0.8295    1.1759   -0.6385 C   0  0  0  0  0  0  0  0  0  0  0  0
    2.2888    1.6285   -0.6050 C   0  0  0  0  0  0  0  0  0  0  0  0
    2.8636    2.1562   -1.9237 C   0  0  0  0  0  0  0  0  0  0  0  0
    2.0933    2.0216   -2.9178 O   0  5  0  0  0  0  0  0  0  0  0  0
    4.0146    2.6701   -1.8668 O   0  0  0  0  0  0  0  0  0  0  0  0
    1.9288   -0.5463    1.4242 H   0  0  0  0  0  0  0  0  0  0  0  0
    0.5186    1.3467    1.5180 H   0  0  0  0  0  0  0  0  0  0  0  0
    0.1967    2.0084   -0.9703 H   0  0  0  0  0  0  0  0  0  0  0  0
    0.7263    0.3951   -1.4038 H   0  0  0  0  0  0  0  0  0  0  0  0
    2.4279    2.3859    0.1756 H   0  0  0  0  0  0  0  0  0  0  0  0
    2.9106    0.7700   -0.3207 H   0  0  0  0  0  0  0  0  0  0  0  0
   -1.7555    0.9183   -0.4910 N   0  0  0  0  0  0  0  0  0  0  0  0
   -3.1622    0.7871   -0.7924 C   0  0  2  0  0  0  0  0  0  0  0  0
   -3.3580    1.1016   -2.2696 C   0  0  0  0  0  0  0  0  0  0  0  0
   -2.5636    1.7745   -2.9232 O   0  0  0  0  0  0  0  0  0  0  0  0
   -4.0026    1.7103    0.0760 C   0  0  0  0  0  0  0  0  0  0  0  0
   -1.1865    1.4723   -1.1243 H   0  0  0  0  0  0  0  0  0  0  0  0
   -3.4302   -0.2580   -0.6022 H   0  0  0  0  0  0  0  0  0  0  0  0
   -3.7482    2.7617   -0.1006 H   0  0  0  0  0  0  0  0  0  0  0  0
   -5.0704    1.5889   -0.1336 H   0  0  0  0  0  0  0  0  0  0  0  0
   -3.8379    1.5025    1.1388 H   0  0  0  0  0  0  0  0  0  0  0  0
   -4.5459    0.5788   -2.7614 N   0  0  0  0  0  0  0  0  0  0  0  0
   -4.9654    0.7522   -4.1326 C   0  0  0  0  0  0  0  0  0  0  0  0
   -5.1346    0.0176   -2.1531 H   0  0  0  0  0  0  0  0  0  0  0  0
   -5.6027    1.6453   -4.2114 H   0  0  0  0  0  0  0  0  0  0  0  0
   -4.0802    0.8758   -4.7738 H   0  0  0  0  0  0  0  0  0  0  0  0
   -5.5326   -0.1326   -4.4570 H   0  0  0  0  0  0  0  0  0  0  0  0
  1  3  1  0  0  0  0
  1  7  1  0  0  0  0
  1  2  2  0  0  0  0
 33 34  1  0  0  0  0
 34 42  1  0  0  0  0
 34 35  2  0  0  0  0
  8  9  1  0  0  0  0
  9 17  1  0  0  0  0
  9 10  2  0  0  0  0
 18 19  1  0  0  0  0
 19 32  1  0  0  0  0
 19 20  2  0  0  0  0
 22 23  1  0  0  0  0
 23 24  1  0  0  0  0
 23 25  2  0  0  0  0
 33 36  1  0  0  0  0
  8 11  1  0  0  0  0
 42 43  1  0  0  0  0
 21 22  1  0  0  0  0
 18 21  1  0  0  0  0
 32 33  1  0  0  0  0
  7  8  1  0  0  0  0
 17 18  1  0  0  0  0
  3  4  1  0  0  0  0
  3  5  1  0  0  0  0
  3  6  1  0  0  0  0
 36 39  1  0  0  0  0
 36 40  1  0  0  0  0
 36 41  1  0  0  0  0
 11 14  1  0  0  0  0
 11 15  1  0  0  0  0
 11 16  1  0  0  0  0
 43 45  1  0  0  0  0
 43 46  1  0  0  0  0
 43 47  1  0  0  0  0
 22 30  1  0  0  0  0
 22 31  1  0  0  0  0
 21 28  1  0  0  0  0
 21 29  1  0  0  0  0
 33 38  1  0  0  0  0
  8 13  1  0  0  0  0
 18 27  1  0  0  0  0
 42 44  1  0  0  0  0
  7 12  1  0  0  0  0
 32 37  1  0  0  0  0
 17 26  1  0  0  0  0
M  CHG  1  24  -1
M  END
$$$$

  -OEChem-05262214473D

 47 46  0     1  0  0  0  0  0999 V2000
    0.5093   -4.7265    3.0306 C   0  0  0  0  0  0  0  0  0  0  0  0
    1.2735   -4.4402    3.9448 O   0  0  0  0  0  0  0  0  0  0  0  0
   -0.4465   -5.8608    3.1982 C   0  0  0  0  0  0  0  0  0  0  0  0
   -0.0219   -6.8213    2.8645 H   0  0  0  0  0  0  0  0  0  0  0  0
   -0.7314   -6.0185    4.2509 H   0  0  0  0  0  0  0  0  0  0  0  0
   -1.3983   -5.7596    2.6527 H   0  0  0  0  0  0  0  0  0  0  0  0
    0.4252   -4.0886    1.8040 N   0  0  0  0  0  0  0  0  0  0  0  0
    1.2532   -2.9707    1.4349 C   0  0  2  0  0  0  0  0  0  0  0  0
    0.3395   -1.8293    1.0083 C   0  0  0  0  0  0  0  0  0  0  0  0
   -0.8136   -2.0027    0.6194 O   0  0  0  0  0  0  0  0  0  0  0  0
    2.2176   -3.3411    0.3189 C   0  0  0  0  0  0  0  0  0  0  0  0
   -0.2574   -4.4279    1.1287 H   0  0  0  0  0  0  0  0  0  0  0  0
    1.8087   -2.6785    2.3327 H   0  0  0  0  0  0  0  0  0  0  0  0
    1.6793   -3.6366   -0.5890 H   0  0  0  0  0  0  0  0  0  0  0  0
    2.8662   -2.4980    0.0589 H   0  0  0  0  0  0  0  0  0  0  0  0
    2.8538   -4.1816    0.6166 H   0  0  0  0  0  0  0  0  0  0  0  0
    0.9758   -0.5952    1.0708 N   0  0  0  0  0  0  0  0  0  0  0  0
    0.3258    0.6374    0.7059 C   0  0  2  0  0  0  0  0  0  0  0  0
   -1.1730    0.3634    0.6399 C   0  0  0  0  0  0  0  0  0  0  0  0
   -1.8173   -0.0695    1.5932 O   0  0  0  0  0  0  0  0  0  0  0  0
    0.8295    1.1759   -0.6385 C   0  0  0  0  0  0  0  0  0  0  0  0
    2.2888    1.6285   -0.6050 C   0  0  0  0  0  0  0  0  0  0  0  0
    2.8636    2.1562   -1.9237 C   0  0  0  0  0  0  0  0  0  0  0  0
    2.0933    2.0216   -2.9178 O   0  5  0  0  0  0  0  0  0  0  0  0
    4.0146    2.6701   -1.8668 O   0  0  0  0  0  0  0  0  0  0  0  0
    1.9288   -0.5463    1.4242 H   0  0  0  0  0  0  0  0  0  0  0  0
    0.5186    1.3467    1.5180 H   0  0  0  0  0  0  0  0  0  0  0  0
    0.1967    2.0084   -0.9703 H   0  0  0  0  0  0  0  0  0  0  0  0
    0.7263    0.3951   -1.4038 H   0  0  0  0  0  0  0  0  0  0  0  0
    2.4279    2.3859    0.1756 H   0  0  0  0  0  0  0  0  0  0  0  0
    2.9106    0.7700   -0.3207 H   0  0  0  0  0  0  0  0  0  0  0  0
   -1.6943    0.6150   -0.6215 N   0  0  0  0  0  0  0  0  0  0  0  0
   -3.0880    0.4187   -0.9467 C   0  0  2  0  0  0  0  0  0  0  0  0
   -3.2117    0.3477   -2.4630 C   0  0  0  0  0  0  0  0  0  0  0  0
   -2.3772    0.8278   -3.2273 O   0  0  0  0  0  0  0  0  0  0  0  0
   -3.9507    1.5369   -0.3827 C   0  0  0  0  0  0  0  0  0  0  0  0
   -1.0879    0.9866   -1.3468 H   0  0  0  0  0  0  0  0  0  0  0  0
   -3.3823   -0.5421   -0.5103 H   0  0  0  0  0  0  0  0  0  0  0  0
   -3.6705    2.5074   -0.8083 H   0  0  0  0  0  0  0  0  0  0  0  0
   -5.0100    1.3717   -0.6056 H   0  0  0  0  0  0  0  0  0  0  0  0
   -3.8376    1.6058    0.7046 H   0  0  0  0  0  0  0  0  0  0  0  0
   -4.3850   -0.2769   -2.8622 N   0  0  0  0  0  0  0  0  0  0  0  0
   -4.7392   -0.4561   -4.2509 C   0  0  0  0  0  0  0  0  0  0  0  0
   -5.0101   -0.6617   -2.1602 H   0  0  0  0  0  0  0  0  0  0  0  0
   -5.3569    0.3907   -4.5846 H   0  0  0  0  0  0  0  0  0  0  0  0
   -3.8241   -0.5045   -4.8593 H   0  0  0  0  0  0  0  0  0  0  0  0
   -5.3064   -1.3915   -4.3667 H   0  0  0  0  0  0  0  0  0  0  0  0
  1  3  1  0  0  0  0
  1  7  1  0  0  0  0
  1  2  2  0  0  0  0
 33 34  1  0  0  0  0
 34 42  1  0  0  0  0
 34 35  2  0  0  0  0
  8  9  1  0  0  0  0
  9 17  1  0  0  0  0
  9 10  2  0  0  0  0
 18 19  1  0  0  0  0
 19 32  1  0  0  0  0
 19 20  2  0  0  0  0
 22 23  1  0  0  0  0
 23 24  1  0  0  0  0
 23 25  2  0  0  0  0
 33 36  1  0  0  0  0
  8 11  1  0  0  0  0
 42 43  1  0  0  0  0
 21 22  1  0  0  0  0
 18 21  1  0  0  0  0
 32 33  1  0  0  0  0
  7  8  1  0  0  0  0
 17 18  1  0  0  0  0
  3  4  1  0  0  0  0
  3  5  1  0  0  0  0
  3  6  1  0  0  0  0
 36 39  1  0  0  0  0
 36 40  1  0  0  0  0
 36 41  1  0  0  0  0
 11 14  1  0  0  0  0
 11 15  1  0  0  0  0
 11 16  1  0  0  0  0
 43 45  1  0  0  0  0
 43 46  1  0  0  0  0
 43 47  1  0  0  0  0
 22 30  1  0  0  0  0
 22 31  1  0  0  0  0
 21 28  1  0  0  0  0
 21 29  1  0  0  0  0
 33 38  1  0  0  0  0
  8 13  1  0  0  0  0
 18 27  1  0  0  0  0
 42 44  1  0  0  0  0
  7 12  1  0  0  0  0
 32 37  1  0  0  0  0
 17 26  1  0  0  0  0
M  CHG  1  24  -1
M  END
$$$$

  -OEChem-05262214473D

 47 46  0     1  0  0  0  0  0999 V2000
    0.5093   -4.7265    3.0306 C   0  0  0  0  0  0  0  0  0  0  0  0
    1.2735   -4.4402    3.9448 O   0  0  0  0  0  0  0  0  0  0  0  0
   -0.4465   -5.8608    3.1982 C   0  0  0  0  0  0  0  0  0  0  0  0
   -0.0219   -6.8213    2.8645 H   0  0  0  0  0  0  0  0  0  0  0  0
   -0.7314   -6.0185    4.2509 H   0  0  0  0  0  0  0  0  0  0  0  0
   -1.3983   -5.7596    2.6527 H   0  0  0  0  0  0  0  0  0  0  0  0
    0.4252   -4.0886    1.8040 N   0  0  0  0  0  0  0  0  0  0  0  0
    1.2532   -2.9707    1.4349 C   0  0  2  0  0  0  0  0  0  0  0  0
    0.3395   -1.8293    1.0083 C   0  0  0  0  0  0  0  0  0  0  0  0
   -0.8136   -2.0027    0.6194 O   0  0  0  0  0  0  0  0  0  0  0  0
    2.2176   -3.3411    0.3189 C   0  0  0  0  0  0  0  0  0  0  0  0
   -0.2574   -4.4279    1.1287 H   0  0  0  0  0  0  0  0  0  0  0  0
    1.8087   -2.6785    2.3327 H   0  0  0  0  0  0  0  0  0  0  0  0
    1.6793   -3.6366   -0.5890 H   0  0  0  0  0  0  0  0  0  0  0  0
    2.8662   -2.4980    0.0589 H   0  0  0  0  0  0  0  0  0  0  0  0
    2.8538   -4.1816    0.6166 H   0  0  0  0  0  0  0  0  0  0  0  0
    0.9758   -0.5952    1.0708 N   0  0  0  0  0  0  0  0  0  0  0  0
    0.3258    0.6374    0.7059 C   0  0  2  0  0  0  0  0  0  0  0  0
   -1.1730    0.3634    0.6399 C   0  0  0  0  0  0  0  0  0  0  0  0
   -1.8670    0.1908    1.6399 O   0  0  0  0  0  0  0  0  0  0  0  0
    0.8295    1.1759   -0.6385 C   0  0  0  0  0  0  0  0  0  0  0  0
    2.2888    1.6285   -0.6050 C   0  0  0  0  0  0  0  0  0  0  0  0
    2.8636    2.1562   -1.9237 C   0  0  0  0  0  0  0  0  0  0  0  0
    2.0933    2.0216   -2.9178 O   0  5  0  0  0  0  0  0  0  0  0  0
    4.0146    2.6701   -1.8668 O   0  0  0  0  0  0  0  0  0  0  0  0
    1.9288   -0.5463    1.4242 H   0  0  0  0  0  0  0  0  0  0  0  0
    0.5186    1.3467    1.5180 H   0  0  0  0  0  0  0  0  0  0  0  0
    0.1967    2.0084   -0.9703 H   0  0  0  0  0  0  0  0  0  0  0  0
    0.7263    0.3951   -1.4038 H   0  0  0  0  0  0  0  0  0  0  0  0
    2.4279    2.3859    0.1756 H   0  0  0  0  0  0  0  0  0  0  0  0
    2.9106    0.7700   -0.3207 H   0  0  0  0  0  0  0  0  0  0  0  0
   -1.6325    0.2882   -0.6676 N   0  0  0  0  0  0  0  0  0  0  0  0
   -3.0134    0.0228   -0.9986 C   0  0  2  0  0  0  0  0  0  0  0  0
   -3.0698   -0.4313   -2.4512 C   0  0  0  0  0  0  0  0  0  0  0  0
   -2.1936   -0.1659   -3.2715 O   0  0  0  0  0  0  0  0  0  0  0  0
   -3.8812    1.2522   -0.7793 C   0  0  0  0  0  0  0  0  0  0  0  0
   -0.9878    0.4597   -1.4335 H   0  0  0  0  0  0  0  0  0  0  0  0
   -3.3435   -0.7937   -0.3471 H   0  0  0  0  0  0  0  0  0  0  0  0
   -3.5655    2.0809   -1.4236 H   0  0  0  0  0  0  0  0  0  0  0  0
   -4.9320    1.0412   -1.0034 H   0  0  0  0  0  0  0  0  0  0  0  0
   -3.8160    1.5951    0.2589 H   0  0  0  0  0  0  0  0  0  0  0  0
   -4.2345   -1.1309   -2.7345 N   0  0  0  0  0  0  0  0  0  0  0  0
   -4.5288   -1.6560   -4.0473 C   0  0  0  0  0  0  0  0  0  0  0  0
   -4.8971   -1.3210   -1.9885 H   0  0  0  0  0  0  0  0  0  0  0  0
   -5.1162   -0.9188   -4.6144 H   0  0  0  0  0  0  0  0  0  0  0  0
   -3.5882   -1.8625   -4.5789 H   0  0  0  0  0  0  0  0  0  0  0  0
   -5.1062   -2.5871   -3.9487 H   0  0  0  0  0  0  0  0  0  0  0  0
  1  3  1  0  0  0  0
  1  7  1  0  0  0  0
  1  2  2  0  0  0  0
 33 34  1  0  0  0  0
 34 42  1  0  0  0  0
 34 35  2  0  0  0  0
  8  9  1  0  0  0  0
  9 17  1  0  0  0  0
  9 10  2  0  0  0  0
 18 19  1  0  0  0  0
 19 32  1  0  0  0  0
 19 20  2  0  0  0  0
 22 23  1  0  0  0  0
 23 24  1  0  0  0  0
 23 25  2  0  0  0  0
 33 36  1  0  0  0  0
  8 11  1  0  0  0  0
 42 43  1  0  0  0  0
 21 22  1  0  0  0  0
 18 21  1  0  0  0  0
 32 33  1  0  0  0  0
  7  8  1  0  0  0  0
 17 18  1  0  0  0  0
  3  4  1  0  0  0  0
  3  5  1  0  0  0  0
  3  6  1  0  0  0  0
 36 39  1  0  0  0  0
 36 40  1  0  0  0  0
 36 41  1  0  0  0  0
 11 14  1  0  0  0  0
 11 15  1  0  0  0  0
 11 16  1  0  0  0  0
 43 45  1  0  0  0  0
 43 46  1  0  0  0  0
 43 47  1  0  0  0  0
 22 30  1  0  0  0  0
 22 31  1  0  0  0  0
 21 28  1  0  0  0  0
 21 29  1  0  0  0  0
 33 38  1  0  0  0  0
  8 13  1  0  0  0  0
 18 27  1  0  0  0  0
 42 44  1  0  0  0  0
  7 12  1  0  0  0  0
 32 37  1  0  0  0  0
 17 26  1  0  0  0  0
M  CHG  1  24  -1
M  END
$$$$

  -OEChem-05262214473D

 47 46  0     1  0  0  0  0  0999 V2000
    0.5093   -4.7265    3.0306 C   0  0  0  0  0  0  0  0  0  0  0  0
    1.2735   -4.4402    3.9448 O   0  0  0  0  0  0  0  0  0  0  0  0
   -0.4465   -5.8608    3.1982 C   0  0  0  0  0  0  0  0  0  0  0  0
   -0.0219   -6.8213    2.8645 H   0  0  0  0  0  0  0  0  0  0  0  0
   -0.7314   -6.0185    4.2509 H   0  0  0  0  0  0  0  0  0  0  0  0
   -1.3983   -5.7596    2.6527 H   0  0  0  0  0  0  0  0  0  0  0  0
    0.4252   -4.0886    1.8040 N   0  0  0  0  0  0  0  0  0  0  0  0
    1.2532   -2.9707    1.4349 C   0  0  2  0  0  0  0  0  0  0  0  0
    0.3395   -1.8293    1.0083 C   0  0  0  0  0  0  0  0  0  0  0  0
   -0.8136   -2.0027    0.6194 O   0  0  0  0  0  0  0  0  0  0  0  0
    2.2176   -3.3411    0.3189 C   0  0  0  0  0  0  0  0  0  0  0  0
   -0.2574   -4.4279    1.1287 H   0  0  0  0  0  0  0  0  0  0  0  0
    1.8087   -2.6785    2.3327 H   0  0  0  0  0  0  0  0  0  0  0  0
    1.6793   -3.6366   -0.5890 H   0  0  0  0  0  0  0  0  0  0  0  0
    2.8662   -2.4980    0.0589 H   0  0  0  0  0  0  0  0  0  0  0  0
    2.8538   -4.1816    0.6166 H   0  0  0  0  0  0  0  0  0  0  0  0
    0.9758   -0.5952    1.0708 N   0  0  0  0  0  0  0  0  0  0  0  0
    0.3258    0.6374    0.7059 C   0  0  2  0  0  0  0  0  0  0  0  0
   -1.1730    0.3634    0.6399 C   0  0  0  0  0  0  0  0  0  0  0  0
   -1.9142    0.4547    1.6165 O   0  0  0  0  0  0  0  0  0  0  0  0
    0.8295    1.1759   -0.6385 C   0  0  0  0  0  0  0  0  0  0  0  0
    2.2888    1.6285   -0.6050 C   0  0  0  0  0  0  0  0  0  0  0  0
    2.8636    2.1562   -1.9237 C   0  0  0  0  0  0  0  0  0  0  0  0
    2.0933    2.0216   -2.9178 O   0  5  0  0  0  0  0  0  0  0  0  0
    4.0146    2.6701   -1.8668 O   0  0  0  0  0  0  0  0  0  0  0  0
    1.9288   -0.5463    1.4242 H   0  0  0  0  0  0  0  0  0  0  0  0
    0.5186    1.3467    1.5180 H   0  0  0  0  0  0  0  0  0  0  0  0
    0.1967    2.0084   -0.9703 H   0  0  0  0  0  0  0  0  0  0  0  0
    0.7263    0.3951   -1.4038 H   0  0  0  0  0  0  0  0  0  0  0  0
    2.4279    2.3859    0.1756 H   0  0  0  0  0  0  0  0  0  0  0  0
    2.9106    0.7700   -0.3207 H   0  0  0  0  0  0  0  0  0  0  0  0
   -1.5744   -0.0398   -0.6260 N   0  0  0  0  0  0  0  0  0  0  0  0
   -2.9433   -0.3737   -0.9446 C   0  0  2  0  0  0  0  0  0  0  0  0
   -2.9420   -1.1824   -2.2351 C   0  0  0  0  0  0  0  0  0  0  0  0
   -2.0253   -1.1391   -3.0529 O   0  0  0  0  0  0  0  0  0  0  0  0
   -3.7988    0.8755   -1.0868 C   0  0  0  0  0  0  0  0  0  0  0  0
   -0.8929   -0.0724   -1.3785 H   0  0  0  0  0  0  0  0  0  0  0  0
   -3.3164   -0.9956   -0.1236 H   0  0  0  0  0  0  0  0  0  0  0  0
   -3.4401    1.5112   -1.9046 H   0  0  0  0  0  0  0  0  0  0  0  0
   -4.8419    0.6199   -1.3000 H   0  0  0  0  0  0  0  0  0  0  0  0
   -3.7746    1.4711   -0.1678 H   0  0  0  0  0  0  0  0  0  0  0  0
   -4.1046   -1.9250   -2.3868 N   0  0  0  0  0  0  0  0  0  0  0  0
   -4.3485   -2.7655   -3.5357 C   0  0  0  0  0  0  0  0  0  0  0  0
   -4.8034   -1.9154   -1.6497 H   0  0  0  0  0  0  0  0  0  0  0  0
   -4.8969   -2.1940   -4.2990 H   0  0  0  0  0  0  0  0  0  0  0  0
   -3.3886   -3.1054   -3.9516 H   0  0  0  0  0  0  0  0  0  0  0  0
   -4.9457   -3.6378   -3.2316 H   0  0  0  0  0  0  0  0  0  0  0  0
  1  3  1  0  0  0  0
  1  7  1  0  0  0  0
  1  2  2  0  0  0  0
 33 34  1  0  0  0  0
 34 42  1  0  0  0  0
 34 35  2  0  0  0  0
  8  9  1  0  0  0  0
  9 17  1  0  0  0  0
  9 10  2  0  0  0  0
 18 19  1  0  0  0  0
 19 32  1  0  0  0  0
 19 20  2  0  0  0  0
 22 23  1  0  0  0  0
 23 24  1  0  0  0  0
 23 25  2  0  0  0  0
 33 36  1  0  0  0  0
  8 11  1  0  0  0  0
 42 43  1  0  0  0  0
 21 22  1  0  0  0  0
 18 21  1  0  0  0  0
 32 33  1  0  0  0  0
  7  8  1  0  0  0  0
 17 18  1  0  0  0  0
  3  4  1  0  0  0  0
  3  5  1  0  0  0  0
  3  6  1  0  0  0  0
 36 39  1  0  0  0  0
 36 40  1  0  0  0  0
 36 41  1  0  0  0  0
 11 14  1  0  0  0  0
 11 15  1  0  0  0  0
 11 16  1  0  0  0  0
 43 45  1  0  0  0  0
 43 46  1  0  0  0  0
 43 47  1  0  0  0  0
 22 30  1  0  0  0  0
 22 31  1  0  0  0  0
 21 28  1  0  0  0  0
 21 29  1  0  0  0  0
 33 38  1  0  0  0  0
  8 13  1  0  0  0  0
 18 27  1  0  0  0  0
 42 44  1  0  0  0  0
  7 12  1  0  0  0  0
 32 37  1  0  0  0  0
 17 26  1  0  0  0  0
M  CHG  1  24  -1
M  END
$$$$

  -OEChem-05262214473D

 47 46  0     1  0  0  0  0  0999 V2000
    0.5093   -4.7265    3.0306 C   0  0  0  0  0  0  0  0  0  0  0  0
    1.2735   -4.4402    3.9448 O   0  0  0  0  0  0  0  0  0  0  0  0
   -0.4465   -5.8608    3.1982 C   0  0  0  0  0  0  0  0  0  0  0  0
   -0.0219   -6.8213    2.8645 H   0  0  0  0  0  0  0  0  0  0  0  0
   -0.7314   -6.0185    4.2509 H   0  0  0  0  0  0  0  0  0  0  0  0
   -1.3983   -5.7596    2.6527 H   0  0  0  0  0  0  0  0  0  0  0  0
    0.4252   -4.0886    1.8040 N   0  0  0  0  0  0  0  0  0  0  0  0
    1.2532   -2.9707    1.4349 C   0  0  2  0  0  0  0  0  0  0  0  0
    0.3395   -1.8293    1.0083 C   0  0  0  0  0  0  0  0  0  0  0  0
   -0.8136   -2.0027    0.6194 O   0  0  0  0  0  0  0  0  0  0  0  0
    2.2176   -3.3411    0.3189 C   0  0  0  0  0  0  0  0  0  0  0  0
   -0.2574   -4.4279    1.1287 H   0  0  0  0  0  0  0  0  0  0  0  0
    1.8087   -2.6785    2.3327 H   0  0  0  0  0  0  0  0  0  0  0  0
    1.6793   -3.6366   -0.5890 H   0  0  0  0  0  0  0  0  0  0  0  0
    2.8662   -2.4980    0.0589 H   0  0  0  0  0  0  0  0  0  0  0  0
    2.8538   -4.1816    0.6166 H   0  0  0  0  0  0  0  0  0  0  0  0
    0.9758   -0.5952    1.0708 N   0  0  0  0  0  0  0  0  0  0  0  0
    0.3258    0.6374    0.7059 C   0  0  2  0  0  0  0  0  0  0  0  0
   -1.1730    0.3634    0.6399 C   0  0  0  0  0  0  0  0  0  0  0  0
   -1.9558    0.7042    1.5245 O   0  0  0  0  0  0  0  0  0  0  0  0
    0.8295    1.1759   -0.6385 C   0  0  0  0  0  0  0  0  0  0  0  0
    2.2888    1.6285   -0.6050 C   0  0  0  0  0  0  0  0  0  0  0  0
    2.8636    2.1562   -1.9237 C   0  0  0  0  0  0  0  0  0  0  0  0
    2.0933    2.0216   -2.9178 O   0  5  0  0  0  0  0  0  0  0  0  0
    4.0146    2.6701   -1.8668 O   0  0  0  0  0  0  0  0  0  0  0  0
    1.9288   -0.5463    1.4242 H   0  0  0  0  0  0  0  0  0  0  0  0
    0.5186    1.3467    1.5180 H   0  0  0  0  0  0  0  0  0  0  0  0
    0.1967    2.0084   -0.9703 H   0  0  0  0  0  0  0  0  0  0  0  0
    0.7263    0.3951   -1.4038 H   0  0  0  0  0  0  0  0  0  0  0  0
    2.4279    2.3859    0.1756 H   0  0  0  0  0  0  0  0  0  0  0  0
    2.9106    0.7700   -0.3207 H   0  0  0  0  0  0  0  0  0  0  0  0
   -1.5238   -0.3468   -0.4998 N   0  0  0  0  0  0  0  0  0  0  0  0
   -2.8825   -0.7437   -0.7883 C   0  0  2  0  0  0  0  0  0  0  0  0
   -2.8370   -1.8543   -1.8294 C   0  0  0  0  0  0  0  0  0  0  0  0
   -1.8837   -2.0255   -2.5864 O   0  0  0  0  0  0  0  0  0  0  0  0
   -3.7091    0.4326   -1.2841 C   0  0  0  0  0  0  0  0  0  0  0  0
   -0.8098   -0.5734   -1.1858 H   0  0  0  0  0  0  0  0  0  0  0  0
   -3.3029   -1.1341    0.1449 H   0  0  0  0  0  0  0  0  0  0  0  0
   -3.3031    0.8372   -2.2184 H   0  0  0  0  0  0  0  0  0  0  0  0
   -4.7459    0.1365   -1.4751 H   0  0  0  0  0  0  0  0  0  0  0  0
   -3.7161    1.2424   -0.5466 H   0  0  0  0  0  0  0  0  0  0  0  0
   -4.0042   -2.6050   -1.8430 N   0  0  0  0  0  0  0  0  0  0  0  0
   -4.2105   -3.7092   -2.7509 C   0  0  0  0  0  0  0  0  0  0  0  0
   -4.7352   -2.4045   -1.1668 H   0  0  0  0  0  0  0  0  0  0  0  0
   -4.7141   -3.3480   -3.6598 H   0  0  0  0  0  0  0  0  0  0  0  0
   -3.2388   -4.1487   -3.0203 H   0  0  0  0  0  0  0  0  0  0  0  0
   -4.8358   -4.4721   -2.2641 H   0  0  0  0  0  0  0  0  0  0  0  0
  1  3  1  0  0  0  0
  1  7  1  0  0  0  0
  1  2  2  0  0  0  0
 33 34  1  0  0  0  0
 34 42  1  0  0  0  0
 34 35  2  0  0  0  0
  8  9  1  0  0  0  0
  9 17  1  0  0  0  0
  9 10  2  0  0  0  0
 18 19  1  0  0  0  0
 19 32  1  0  0  0  0
 19 20  2  0  0  0  0
 22 23  1  0  0  0  0
 23 24  1  0  0  0  0
 23 25  2  0  0  0  0
 33 36  1  0  0  0  0
  8 11  1  0  0  0  0
 42 43  1  0  0  0  0
 21 22  1  0  0  0  0
 18 21  1  0  0  0  0
 32 33  1  0  0  0  0
  7  8  1  0  0  0  0
 17 18  1  0  0  0  0
  3  4  1  0  0  0  0
  3  5  1  0  0  0  0
  3  6  1  0  0  0  0
 36 39  1  0  0  0  0
 36 40  1  0  0  0  0
 36 41  1  0  0  0  0
 11 14  1  0  0  0  0
 11 15  1  0  0  0  0
 11 16  1  0  0  0  0
 43 45  1  0  0  0  0
 43 46  1  0  0  0  0
 43 47  1  0  0  0  0
 22 30  1  0  0  0  0
 22 31  1  0  0  0  0
 21 28  1  0  0  0  0
 21 29  1  0  0  0  0
 33 38  1  0  0  0  0
  8 13  1  0  0  0  0
 18 27  1  0  0  0  0
 42 44  1  0  0  0  0
  7 12  1  0  0  0  0
 32 37  1  0  0  0  0
 17 26  1  0  0  0  0
M  CHG  1  24  -1
M  END
$$$$

  -OEChem-05262214473D

 47 46  0     1  0  0  0  0  0999 V2000
    0.5093   -4.7265    3.0306 C   0  0  0  0  0  0  0  0  0  0  0  0
    1.2735   -4.4402    3.9448 O   0  0  0  0  0  0  0  0  0  0  0  0
   -0.4465   -5.8608    3.1982 C   0  0  0  0  0  0  0  0  0  0  0  0
   -0.0219   -6.8213    2.8645 H   0  0  0  0  0  0  0  0  0  0  0  0
   -0.7314   -6.0185    4.2509 H   0  0  0  0  0  0  0  0  0  0  0  0
   -1.3983   -5.7596    2.6527 H   0  0  0  0  0  0  0  0  0  0  0  0
    0.4252   -4.0886    1.8040 N   0  0  0  0  0  0  0  0  0  0  0  0
    1.2532   -2.9707    1.4349 C   0  0  2  0  0  0  0  0  0  0  0  0
    0.3395   -1.8293    1.0083 C   0  0  0  0  0  0  0  0  0  0  0  0
   -0.8136   -2.0027    0.6194 O   0  0  0  0  0  0  0  0  0  0  0  0
    2.2176   -3.3411    0.3189 C   0  0  0  0  0  0  0  0  0  0  0  0
   -0.2574   -4.4279    1.1287 H   0  0  0  0  0  0  0  0  0  0  0  0
    1.8087   -2.6785    2.3327 H   0  0  0  0  0  0  0  0  0  0  0  0
    1.6793   -3.6366   -0.5890 H   0  0  0  0  0  0  0  0  0  0  0  0
    2.8662   -2.4980    0.0589 H   0  0  0  0  0  0  0  0  0  0  0  0
    2.8538   -4.1816    0.6166 H   0  0  0  0  0  0  0  0  0  0  0  0
    0.9758   -0.5952    1.0708 N   0  0  0  0  0  0  0  0  0  0  0  0
    0.3258    0.6374    0.7059 C   0  0  2  0  0  0  0  0  0  0  0  0
   -1.1730    0.3634    0.6399 C   0  0  0  0  0  0  0  0  0  0  0  0
   -1.9888    0.9222    1.3703 O   0  0  0  0  0  0  0  0  0  0  0  0
    0.8295    1.1759   -0.6385 C   0  0  0  0  0  0  0  0  0  0  0  0
    2.2888    1.6285   -0.6050 C   0  0  0  0  0  0  0  0  0  0  0  0
    2.8636    2.1562   -1.9237 C   0  0  0  0  0  0  0  0  0  0  0  0
    2.0933    2.0216   -2.9178 O   0  5  0  0  0  0  0  0  0  0  0  0
    4.0146    2.6701   -1.8668 O   0  0  0  0  0  0  0  0  0  0  0  0
    1.9288   -0.5463    1.4242 H   0  0  0  0  0  0  0  0  0  0  0  0
    0.5186    1.3467    1.5180 H   0  0  0  0  0  0  0  0  0  0  0  0
    0.1967    2.0084   -0.9703 H   0  0  0  0  0  0  0  0  0  0  0  0
    0.7263    0.3951   -1.4038 H   0  0  0  0  0  0  0  0  0  0  0  0
    2.4279    2.3859    0.1756 H   0  0  0  0  0  0  0  0  0  0  0  0
    2.9106    0.7700   -0.3207 H   0  0  0  0  0  0  0  0  0  0  0  0
   -1.4843   -0.6118   -0.2974 N   0  0  0  0  0  0  0  0  0  0  0  0
   -2.8352   -1.0620   -0.5404 C   0  0  2  0  0  0  0  0  0  0  0  0
   -2.7620   -2.4013   -1.2617 C   0  0  0  0  0  0  0  0  0  0  0  0
   -1.7787   -2.7646   -1.9038 O   0  0  0  0  0  0  0  0  0  0  0  0
   -3.6183   -0.0465   -1.3578 C   0  0  0  0  0  0  0  0  0  0  0  0
   -0.7441   -1.0093   -0.8682 H   0  0  0  0  0  0  0  0  0  0  0  0
   -3.3039   -1.1997    0.4401 H   0  0  0  0  0  0  0  0  0  0  0  0
   -3.1637    0.1048   -2.3437 H   0  0  0  0  0  0  0  0  0  0  0  0
   -4.6503   -0.3761   -1.5168 H   0  0  0  0  0  0  0  0  0  0  0  0
   -3.6446    0.9245   -0.8515 H   0  0  0  0  0  0  0  0  0  0  0  0
   -3.9402   -3.1247   -1.1400 N   0  0  0  0  0  0  0  0  0  0  0  0
   -4.1243   -4.4225   -1.7464 C   0  0  0  0  0  0  0  0  0  0  0  0
   -4.6973   -2.7548   -0.5729 H   0  0  0  0  0  0  0  0  0  0  0  0
   -4.5801   -4.3021   -2.7403 H   0  0  0  0  0  0  0  0  0  0  0  0
   -3.1492   -4.9212   -1.8484 H   0  0  0  0  0  0  0  0  0  0  0  0
   -4.7839   -5.0331   -1.1123 H   0  0  0  0  0  0  0  0  0  0  0  0
  1  3  1  0  0  0  0
  1  7  1  0  0  0  0
  1  2  2  0  0  0  0
 33 34  1  0  0  0  0
 34 42  1  0  0  0  0
 34 35  2  0  0  0  0
  8  9  1  0  0  0  0
  9 17  1  0  0  0  0
  9 10  2  0  0  0  0
 18 19  1  0  0  0  0
 19 32  1  0  0  0  0
 19 20  2  0  0  0  0
 22 23  1  0  0  0  0
 23 24  1  0  0  0  0
 23 25  2  0  0  0  0
 33 36  1  0  0  0  0
  8 11  1  0  0  0  0
 42 43  1  0  0  0  0
 21 22  1  0  0  0  0
 18 21  1  0  0  0  0
 32 33  1  0  0  0  0
  7  8  1  0  0  0  0
 17 18  1  0  0  0  0
  3  4  1  0  0  0  0
  3  5  1  0  0  0  0
  3  6  1  0  0  0  0
 36 39  1  0  0  0  0
 36 40  1  0  0  0  0
 36 41  1  0  0  0  0
 11 14  1  0  0  0  0
 11 15  1  0  0  0  0
 11 16  1  0  0  0  0
 43 45  1  0  0  0  0
 43 46  1  0  0  0  0
 43 47  1  0  0  0  0
 22 30  1  0  0  0  0
 22 31  1  0  0  0  0
 21 28  1  0  0  0  0
 21 29  1  0  0  0  0
 33 38  1  0  0  0  0
  8 13  1  0  0  0  0
 18 27  1  0  0  0  0
 42 44  1  0  0  0  0
  7 12  1  0  0  0  0
 32 37  1  0  0  0  0
 17 26  1  0  0  0  0
M  CHG  1  24  -1
M  END
$$$$

  -OEChem-05262214473D

 47 46  0     1  0  0  0  0  0999 V2000
    0.5093   -4.7265    3.0306 C   0  0  0  0  0  0  0  0  0  0  0  0
    1.2735   -4.4402    3.9448 O   0  0  0  0  0  0  0  0  0  0  0  0
   -0.4465   -5.8608    3.1982 C   0  0  0  0  0  0  0  0  0  0  0  0
   -0.0219   -6.8213    2.8645 H   0  0  0  0  0  0  0  0  0  0  0  0
   -0.7314   -6.0185    4.2509 H   0  0  0  0  0  0  0  0  0  0  0  0
   -1.3983   -5.7596    2.6527 H   0  0  0  0  0  0  0  0  0  0  0  0
    0.4252   -4.0886    1.8040 N   0  0  0  0  0  0  0  0  0  0  0  0
    1.2532   -2.9707    1.4349 C   0  0  2  0  0  0  0  0  0  0  0  0
    0.3395   -1.8293    1.0083 C   0  0  0  0  0  0  0  0  0  0  0  0
   -0.8136   -2.0027    0.6194 O   0  0  0  0  0  0  0  0  0  0  0  0
    2.2176   -3.3411    0.3189 C   0  0  0  0  0  0  0  0  0  0  0  0
   -0.2574   -4.4279    1.1287 H   0  0  0  0  0  0  0  0  0  0  0  0
    1.8087   -2.6785    2.3327 H   0  0  0  0  0  0  0  0  0  0  0  0
    1.6793   -3.6366   -0.5890 H   0  0  0  0  0  0  0  0  0  0  0  0
    2.8662   -2.4980    0.0589 H   0  0  0  0  0  0  0  0  0  0  0  0
    2.8538   -4.1816    0.6166 H   0  0  0  0  0  0  0  0  0  0  0  0
    0.9758   -0.5952    1.0708 N   0  0  0  0  0  0  0  0  0  0  0  0
    0.3258    0.6374    0.7059 C   0  0  2  0  0  0  0  0  0  0  0  0
   -1.1730    0.3634    0.6399 C   0  0  0  0  0  0  0  0  0  0  0  0
   -2.0112    1.0940    1.1643 O   0  0  0  0  0  0  0  0  0  0  0  0
    0.8295    1.1759   -0.6385 C   0  0  0  0  0  0  0  0  0  0  0  0
    2.2888    1.6285   -0.6050 C   0  0  0  0  0  0  0  0  0  0  0  0
    2.8636    2.1562   -1.9237 C   0  0  0  0  0  0  0  0  0  0  0  0
    2.0933    2.0216   -2.9178 O   0  5  0  0  0  0  0  0  0  0  0  0
    4.0146    2.6701   -1.8668 O   0  0  0  0  0  0  0  0  0  0  0  0
    1.9288   -0.5463    1.4242 H   0  0  0  0  0  0  0  0  0  0  0  0
    0.5186    1.3467    1.5180 H   0  0  0  0  0  0  0  0  0  0  0  0
    0.1967    2.0084   -0.9703 H   0  0  0  0  0  0  0  0  0  0  0  0
    0.7263    0.3951   -1.4038 H   0  0  0  0  0  0  0  0  0  0  0  0
    2.4279    2.3859    0.1756 H   0  0  0  0  0  0  0  0  0  0  0  0
    2.9106    0.7700   -0.3207 H   0  0  0  0  0  0  0  0  0  0  0  0
   -1.4585   -0.8167   -0.0327 N   0  0  0  0  0  0  0  0  0  0  0  0
   -2.8046   -1.3069   -0.2178 C   0  0  2  0  0  0  0  0  0  0  0  0
   -2.7221   -2.7862   -0.5707 C   0  0  0  0  0  0  0  0  0  0  0  0
   -1.7172   -3.3060   -1.0515 O   0  0  0  0  0  0  0  0  0  0  0  0
   -3.5325   -0.5290   -1.3030 C   0  0  0  0  0  0  0  0  0  0  0  0
   -0.7003   -1.3502   -0.4476 H   0  0  0  0  0  0  0  0  0  0  0  0
   -3.3193   -1.1880    0.7419 H   0  0  0  0  0  0  0  0  0  0  0  0
   -3.0314   -0.6361   -2.2720 H   0  0  0  0  0  0  0  0  0  0  0  0
   -4.5618   -0.8829   -1.4223 H   0  0  0  0  0  0  0  0  0  0  0  0
   -3.5649    0.5390   -1.0619 H   0  0  0  0  0  0  0  0  0  0  0  0
   -3.9168   -3.4486   -0.3259 N   0  0  0  0  0  0  0  0  0  0  0  0
   -4.0958   -4.8571   -0.5907 C   0  0  0  0  0  0  0  0  0  0  0  0
   -4.6922   -2.9426    0.0917 H   0  0  0  0  0  0  0  0  0  0  0  0
   -4.5042   -4.9913   -1.6032 H   0  0  0  0  0  0  0  0  0  0  0  0
   -3.1257   -5.3703   -0.5157 H   0  0  0  0  0  0  0  0  0  0  0  0
   -4.7936   -5.2827    0.1454 H   0  0  0  0  0  0  0  0  0  0  0  0
  1  3  1  0  0  0  0
  1  7  1  0  0  0  0
  1  2  2  0  0  0  0
 33 34  1  0  0  0  0
 34 42  1  0  0  0  0
 34 35  2  0  0  0  0
  8  9  1  0  0  0  0
  9 17  1  0  0  0  0
  9 10  2  0  0  0  0
 18 19  1  0  0  0  0
 19 32  1  0  0  0  0
 19 20  2  0  0  0  0
 22 23  1  0  0  0  0
 23 24  1  0  0  0  0
 23 25  2  0  0  0  0
 33 36  1  0  0  0  0
  8 11  1  0  0  0  0
 42 43  1  0  0  0  0
 21 22  1  0  0  0  0
 18 21  1  0  0  0  0
 32 33  1  0  0  0  0
  7  8  1  0  0  0  0
 17 18  1  0  0  0  0
  3  4  1  0  0  0  0
  3  5  1  0  0  0  0
  3  6  1  0  0  0  0
 36 39  1  0  0  0  0
 36 40  1  0  0  0  0
 36 41  1  0  0  0  0
 11 14  1  0  0  0  0
 11 15  1  0  0  0  0
 11 16  1  0  0  0  0
 43 45  1  0  0  0  0
 43 46  1  0  0  0  0
 43 47  1  0  0  0  0
 22 30  1  0  0  0  0
 22 31  1  0  0  0  0
 21 28  1  0  0  0  0
 21 29  1  0  0  0  0
 33 38  1  0  0  0  0
  8 13  1  0  0  0  0
 18 27  1  0  0  0  0
 42 44  1  0  0  0  0
  7 12  1  0  0  0  0
 32 37  1  0  0  0  0
 17 26  1  0  0  0  0
M  CHG  1  24  -1
M  END
$$$$

  -OEChem-05262214473D

 47 46  0     1  0  0  0  0  0999 V2000
    0.5093   -4.7265    3.0306 C   0  0  0  0  0  0  0  0  0  0  0  0
    1.2735   -4.4402    3.9448 O   0  0  0  0  0  0  0  0  0  0  0  0
   -0.4465   -5.8608    3.1982 C   0  0  0  0  0  0  0  0  0  0  0  0
   -0.0219   -6.8213    2.8645 H   0  0  0  0  0  0  0  0  0  0  0  0
   -0.7314   -6.0185    4.2509 H   0  0  0  0  0  0  0  0  0  0  0  0
   -1.3983   -5.7596    2.6527 H   0  0  0  0  0  0  0  0  0  0  0  0
    0.4252   -4.0886    1.8040 N   0  0  0  0  0  0  0  0  0  0  0  0
    1.2532   -2.9707    1.4349 C   0  0  2  0  0  0  0  0  0  0  0  0
    0.3395   -1.8293    1.0083 C   0  0  0  0  0  0  0  0  0  0  0  0
   -0.8136   -2.0027    0.6194 O   0  0  0  0  0  0  0  0  0  0  0  0
    2.2176   -3.3411    0.3189 C   0  0  0  0  0  0  0  0  0  0  0  0
   -0.2574   -4.4279    1.1287 H   0  0  0  0  0  0  0  0  0  0  0  0
    1.8087   -2.6785    2.3327 H   0  0  0  0  0  0  0  0  0  0  0  0
    1.6793   -3.6366   -0.5890 H   0  0  0  0  0  0  0  0  0  0  0  0
    2.8662   -2.4980    0.0589 H   0  0  0  0  0  0  0  0  0  0  0  0
    2.8538   -4.1816    0.6166 H   0  0  0  0  0  0  0  0  0  0  0  0
    0.9758   -0.5952    1.0708 N   0  0  0  0  0  0  0  0  0  0  0  0
    0.3258    0.6374    0.7059 C   0  0  2  0  0  0  0  0  0  0  0  0
   -1.1730    0.3634    0.6399 C   0  0  0  0  0  0  0  0  0  0  0  0
   -2.0212    1.2077    0.9207 O   0  0  0  0  0  0  0  0  0  0  0  0
    0.8295    1.1759   -0.6385 C   0  0  0  0  0  0  0  0  0  0  0  0
    2.2888    1.6285   -0.6050 C   0  0  0  0  0  0  0  0  0  0  0  0
    2.8636    2.1562   -1.9237 C   0  0  0  0  0  0  0  0  0  0  0  0
    2.0933    2.0216   -2.9178 O   0  5  0  0  0  0  0  0  0  0  0  0
    4.0146    2.6701   -1.8668 O   0  0  0  0  0  0  0  0  0  0  0  0
    1.9288   -0.5463    1.4242 H   0  0  0  0  0  0  0  0  0  0  0  0
    0.5186    1.3467    1.5180 H   0  0  0  0  0  0  0  0  0  0  0  0
    0.1967    2.0084   -0.9703 H   0  0  0  0  0  0  0  0  0  0  0  0
    0.7263    0.3951   -1.4038 H   0  0  0  0  0  0  0  0  0  0  0  0
    2.4279    2.3859    0.1756 H   0  0  0  0  0  0  0  0  0  0  0  0
    2.9106    0.7700   -0.3207 H   0  0  0  0  0  0  0  0  0  0  0  0
   -1.4482   -0.9476    0.2764 N   0  0  0  0  0  0  0  0  0  0  0  0
   -2.7928   -1.4618    0.1576 C   0  0  2  0  0  0  0  0  0  0  0  0
   -2.7199   -2.9825    0.1965 C   0  0  0  0  0  0  0  0  0  0  0  0
   -1.7035   -3.6128   -0.0877 O   0  0  0  0  0  0  0  0  0  0  0  0
   -3.4576   -0.9821   -1.1233 C   0  0  0  0  0  0  0  0  0  0  0  0
   -0.6813   -1.5731    0.0475 H   0  0  0  0  0  0  0  0  0  0  0  0
   -3.3481   -1.0998    1.0297 H   0  0  0  0  0  0  0  0  0  0  0  0
   -2.9153   -1.3350   -2.0081 H   0  0  0  0  0  0  0  0  0  0  0  0
   -4.4864   -1.3494   -1.1980 H   0  0  0  0  0  0  0  0  0  0  0  0
   -3.4824    0.1123   -1.1633 H   0  0  0  0  0  0  0  0  0  0  0  0
   -3.9357   -3.5546    0.5440 N   0  0  0  0  0  0  0  0  0  0  0  0
   -4.1268   -4.9832    0.6375 C   0  0  0  0  0  0  0  0  0  0  0  0
   -4.7203   -2.9549    0.7816 H   0  0  0  0  0  0  0  0  0  0  0  0
   -4.4914   -5.3687   -0.3261 H   0  0  0  0  0  0  0  0  0  0  0  0
   -3.1701   -5.4654    0.8869 H   0  0  0  0  0  0  0  0  0  0  0  0
   -4.8643   -5.2037    1.4232 H   0  0  0  0  0  0  0  0  0  0  0  0
  1  3  1  0  0  0  0
  1  7  1  0  0  0  0
  1  2  2  0  0  0  0
 33 34  1  0  0  0  0
 34 42  1  0  0  0  0
 34 35  2  0  0  0  0
  8  9  1  0  0  0  0
  9 17  1  0  0  0  0
  9 10  2  0  0  0  0
 18 19  1  0  0  0  0
 19 32  1  0  0  0  0
 19 20  2  0  0  0  0
 22 23  1  0  0  0  0
 23 24  1  0  0  0  0
 23 25  2  0  0  0  0
 33 36  1  0  0  0  0
  8 11  1  0  0  0  0
 42 43  1  0  0  0  0
 21 22  1  0  0  0  0
 18 21  1  0  0  0  0
 32 33  1  0  0  0  0
  7  8  1  0  0  0  0
 17 18  1  0  0  0  0
  3  4  1  0  0  0  0
  3  5  1  0  0  0  0
  3  6  1  0  0  0  0
 36 39  1  0  0  0  0
 36 40  1  0  0  0  0
 36 41  1  0  0  0  0
 11 14  1  0  0  0  0
 11 15  1  0  0  0  0
 11 16  1  0  0  0  0
 43 45  1  0  0  0  0
 43 46  1  0  0  0  0
 43 47  1  0  0  0  0
 22 30  1  0  0  0  0
 22 31  1  0  0  0  0
 21 28  1  0  0  0  0
 21 29  1  0  0  0  0
 33 38  1  0  0  0  0
  8 13  1  0  0  0  0
 18 27  1  0  0  0  0
 42 44  1  0  0  0  0
  7 12  1  0  0  0  0
 32 37  1  0  0  0  0
 17 26  1  0  0  0  0
M  CHG  1  24  -1
M  END
$$$$

  -OEChem-05262214473D

 47 46  0     1  0  0  0  0  0999 V2000
    0.5093   -4.7265    3.0306 C   0  0  0  0  0  0  0  0  0  0  0  0
    1.2735   -4.4402    3.9448 O   0  0  0  0  0  0  0  0  0  0  0  0
   -0.4465   -5.8608    3.1982 C   0  0  0  0  0  0  0  0  0  0  0  0
   -0.0219   -6.8213    2.8645 H   0  0  0  0  0  0  0  0  0  0  0  0
   -0.7314   -6.0185    4.2509 H   0  0  0  0  0  0  0  0  0  0  0  0
   -1.3983   -5.7596    2.6527 H   0  0  0  0  0  0  0  0  0  0  0  0
    0.4252   -4.0886    1.8040 N   0  0  0  0  0  0  0  0  0  0  0  0
    1.2532   -2.9707    1.4349 C   0  0  2  0  0  0  0  0  0  0  0  0
    0.3395   -1.8293    1.0083 C   0  0  0  0  0  0  0  0  0  0  0  0
   -0.8136   -2.0027    0.6194 O   0  0  0  0  0  0  0  0  0  0  0  0
    2.2176   -3.3411    0.3189 C   0  0  0  0  0  0  0  0  0  0  0  0
   -0.2574   -4.4279    1.1287 H   0  0  0  0  0  0  0  0  0  0  0  0
    1.8087   -2.6785    2.3327 H   0  0  0  0  0  0  0  0  0  0  0  0
    1.6793   -3.6366   -0.5890 H   0  0  0  0  0  0  0  0  0  0  0  0
    2.8662   -2.4980    0.0589 H   0  0  0  0  0  0  0  0  0  0  0  0
    2.8538   -4.1816    0.6166 H   0  0  0  0  0  0  0  0  0  0  0  0
    0.9758   -0.5952    1.0708 N   0  0  0  0  0  0  0  0  0  0  0  0
    0.3258    0.6374    0.7059 C   0  0  2  0  0  0  0  0  0  0  0  0
   -1.1730    0.3634    0.6399 C   0  0  0  0  0  0  0  0  0  0  0  0
   -2.0184    1.2558    0.6559 O   0  0  0  0  0  0  0  0  0  0  0  0
    0.8295    1.1759   -0.6385 C   0  0  0  0  0  0  0  0  0  0  0  0
    2.2888    1.6285   -0.6050 C   0  0  0  0  0  0  0  0  0  0  0  0
    2.8636    2.1562   -1.9237 C   0  0  0  0  0  0  0  0  0  0  0  0
    2.0933    2.0216   -2.9178 O   0  5  0  0  0  0  0  0  0  0  0  0
    4.0146    2.6701   -1.8668 O   0  0  0  0  0  0  0  0  0  0  0  0
    1.9288   -0.5463    1.4242 H   0  0  0  0  0  0  0  0  0  0  0  0
    0.5186    1.3467    1.5180 H   0  0  0  0  0  0  0  0  0  0  0  0
    0.1967    2.0084   -0.9703 H   0  0  0  0  0  0  0  0  0  0  0  0
    0.7263    0.3951   -1.4038 H   0  0  0  0  0  0  0  0  0  0  0  0
    2.4279    2.3859    0.1756 H   0  0  0  0  0  0  0  0  0  0  0  0
    2.9106    0.7700   -0.3207 H   0  0  0  0  0  0  0  0  0  0  0  0
   -1.4540   -0.9955    0.6086 N   0  0  0  0  0  0  0  0  0  0  0  0
   -2.8006   -1.5161    0.5601 C   0  0  2  0  0  0  0  0  0  0  0  0
   -2.7557   -2.9771    0.9875 C   0  0  0  0  0  0  0  0  0  0  0  0
   -1.7386   -3.6643    0.9219 O   0  0  0  0  0  0  0  0  0  0  0  0
   -3.3986   -1.3749   -0.8310 C   0  0  0  0  0  0  0  0  0  0  0  0
   -0.6886   -1.6626    0.5833 H   0  0  0  0  0  0  0  0  0  0  0  0
   -3.3883   -0.9410    1.2840 H   0  0  0  0  0  0  0  0  0  0  0  0
   -2.8232   -1.9442   -1.5700 H   0  0  0  0  0  0  0  0  0  0  0  0
   -4.4292   -1.7437   -0.8592 H   0  0  0  0  0  0  0  0  0  0  0  0
   -3.4028   -0.3267   -1.1489 H   0  0  0  0  0  0  0  0  0  0  0  0
   -3.9956   -3.4356    1.4104 N   0  0  0  0  0  0  0  0  0  0  0  0
   -4.2152   -4.7922    1.8545 C   0  0  0  0  0  0  0  0  0  0  0  0
   -4.7797   -2.7911    1.4499 H   0  0  0  0  0  0  0  0  0  0  0  0
   -4.5426   -5.4085    1.0042 H   0  0  0  0  0  0  0  0  0  0  0  0
   -3.2792   -5.2000    2.2638 H   0  0  0  0  0  0  0  0  0  0  0  0
   -4.9911   -4.8015    2.6342 H   0  0  0  0  0  0  0  0  0  0  0  0
  1  3  1  0  0  0  0
  1  7  1  0  0  0  0
  1  2  2  0  0  0  0
 33 34  1  0  0  0  0
 34 42  1  0  0  0  0
 34 35  2  0  0  0  0
  8  9  1  0  0  0  0
  9 17  1  0  0  0  0
  9 10  2  0  0  0  0
 18 19  1  0  0  0  0
 19 32  1  0  0  0  0
 19 20  2  0  0  0  0
 22 23  1  0  0  0  0
 23 24  1  0  0  0  0
 23 25  2  0  0  0  0
 33 36  1  0  0  0  0
  8 11  1  0  0  0  0
 42 43  1  0  0  0  0
 21 22  1  0  0  0  0
 18 21  1  0  0  0  0
 32 33  1  0  0  0  0
  7  8  1  0  0  0  0
 17 18  1  0  0  0  0
  3  4  1  0  0  0  0
  3  5  1  0  0  0  0
  3  6  1  0  0  0  0
 36 39  1  0  0  0  0
 36 40  1  0  0  0  0
 36 41  1  0  0  0  0
 11 14  1  0  0  0  0
 11 15  1  0  0  0  0
 11 16  1  0  0  0  0
 43 45  1  0  0  0  0
 43 46  1  0  0  0  0
 43 47  1  0  0  0  0
 22 30  1  0  0  0  0
 22 31  1  0  0  0  0
 21 28  1  0  0  0  0
 21 29  1  0  0  0  0
 33 38  1  0  0  0  0
  8 13  1  0  0  0  0
 18 27  1  0  0  0  0
 42 44  1  0  0  0  0
  7 12  1  0  0  0  0
 32 37  1  0  0  0  0
 17 26  1  0  0  0  0
M  CHG  1  24  -1
M  END
$$$$

  -OEChem-05262214473D

 47 46  0     1  0  0  0  0  0999 V2000
    0.5093   -4.7265    3.0306 C   0  0  0  0  0  0  0  0  0  0  0  0
    1.2735   -4.4402    3.9448 O   0  0  0  0  0  0  0  0  0  0  0  0
   -0.4465   -5.8608    3.1982 C   0  0  0  0  0  0  0  0  0  0  0  0
   -0.0219   -6.8213    2.8645 H   0  0  0  0  0  0  0  0  0  0  0  0
   -0.7314   -6.0185    4.2509 H   0  0  0  0  0  0  0  0  0  0  0  0
   -1.3983   -5.7596    2.6527 H   0  0  0  0  0  0  0  0  0  0  0  0
    0.4252   -4.0886    1.8040 N   0  0  0  0  0  0  0  0  0  0  0  0
    1.2532   -2.9707    1.4349 C   0  0  2  0  0  0  0  0  0  0  0  0
    0.3395   -1.8293    1.0083 C   0  0  0  0  0  0  0  0  0  0  0  0
   -0.8136   -2.0027    0.6194 O   0  0  0  0  0  0  0  0  0  0  0  0
    2.2176   -3.3411    0.3189 C   0  0  0  0  0  0  0  0  0  0  0  0
   -0.2574   -4.4279    1.1287 H   0  0  0  0  0  0  0  0  0  0  0  0
    1.8087   -2.6785    2.3327 H   0  0  0  0  0  0  0  0  0  0  0  0
    1.6793   -3.6366   -0.5890 H   0  0  0  0  0  0  0  0  0  0  0  0
    2.8662   -2.4980    0.0589 H   0  0  0  0  0  0  0  0  0  0  0  0
    2.8538   -4.1816    0.6166 H   0  0  0  0  0  0  0  0  0  0  0  0
    0.9758   -0.5952    1.0708 N   0  0  0  0  0  0  0  0  0  0  0  0
    0.3258    0.6374    0.7059 C   0  0  2  0  0  0  0  0  0  0  0  0
   -1.1730    0.3634    0.6399 C   0  0  0  0  0  0  0  0  0  0  0  0
   -2.0027    1.2348    0.3881 O   0  0  0  0  0  0  0  0  0  0  0  0
    0.8295    1.1759   -0.6385 C   0  0  0  0  0  0  0  0  0  0  0  0
    2.2888    1.6285   -0.6050 C   0  0  0  0  0  0  0  0  0  0  0  0
    2.8636    2.1562   -1.9237 C   0  0  0  0  0  0  0  0  0  0  0  0
    2.0933    2.0216   -2.9178 O   0  5  0  0  0  0  0  0  0  0  0  0
    4.0146    2.6701   -1.8668 O   0  0  0  0  0  0  0  0  0  0  0  0
    1.9288   -0.5463    1.4242 H   0  0  0  0  0  0  0  0  0  0  0  0
    0.5186    1.3467    1.5180 H   0  0  0  0  0  0  0  0  0  0  0  0
    0.1967    2.0084   -0.9703 H   0  0  0  0  0  0  0  0  0  0  0  0
    0.7263    0.3951   -1.4038 H   0  0  0  0  0  0  0  0  0  0  0  0
    2.4279    2.3859    0.1756 H   0  0  0  0  0  0  0  0  0  0  0  0
    2.9106    0.7700   -0.3207 H   0  0  0  0  0  0  0  0  0  0  0  0
   -1.4757   -0.9572    0.9415 N   0  0  0  0  0  0  0  0  0  0  0  0
   -2.8275   -1.4660    0.9623 C   0  0  2  0  0  0  0  0  0  0  0  0
   -2.8270   -2.7703    1.7486 C   0  0  0  0  0  0  0  0  0  0  0  0
   -1.8199   -3.4567    1.9086 O   0  0  0  0  0  0  0  0  0  0  0  0
   -3.3597   -1.6806   -0.4460 C   0  0  0  0  0  0  0  0  0  0  0  0
   -0.7214   -1.6128    1.1232 H   0  0  0  0  0  0  0  0  0  0  0  0
   -3.4372   -0.7226    1.4873 H   0  0  0  0  0  0  0  0  0  0  0  0
   -2.7614   -2.4223   -0.9876 H   0  0  0  0  0  0  0  0  0  0  0  0
   -4.3942   -2.0391   -0.4289 H   0  0  0  0  0  0  0  0  0  0  0  0
   -3.3315   -0.7478   -1.0197 H   0  0  0  0  0  0  0  0  0  0  0  0
   -4.0924   -3.0995    2.2141 N   0  0  0  0  0  0  0  0  0  0  0  0
   -4.3551   -4.2972    2.9773 C   0  0  0  0  0  0  0  0  0  0  0  0
   -4.8663   -2.4622    2.0509 H   0  0  0  0  0  0  0  0  0  0  0  0
   -4.6545   -5.1080    2.2968 H   0  0  0  0  0  0  0  0  0  0  0  0
   -3.4456   -4.5922    3.5212 H   0  0  0  0  0  0  0  0  0  0  0  0
   -5.1654   -4.1037    3.6956 H   0  0  0  0  0  0  0  0  0  0  0  0
  1  3  1  0  0  0  0
  1  7  1  0  0  0  0
  1  2  2  0  0  0  0
 33 34  1  0  0  0  0
 34 42  1  0  0  0  0
 34 35  2  0  0  0  0
  8  9  1  0  0  0  0
  9 17  1  0  0  0  0
  9 10  2  0  0  0  0
 18 19  1  0  0  0  0
 19 32  1  0  0  0  0
 19 20  2  0  0  0  0
 22 23  1  0  0  0  0
 23 24  1  0  0  0  0
 23 25  2  0  0  0  0
 33 36  1  0  0  0  0
  8 11  1  0  0  0  0
 42 43  1  0  0  0  0
 21 22  1  0  0  0  0
 18 21  1  0  0  0  0
 32 33  1  0  0  0  0
  7  8  1  0  0  0  0
 17 18  1  0  0  0  0
  3  4  1  0  0  0  0
  3  5  1  0  0  0  0
  3  6  1  0  0  0  0
 36 39  1  0  0  0  0
 36 40  1  0  0  0  0
 36 41  1  0  0  0  0
 11 14  1  0  0  0  0
 11 15  1  0  0  0  0
 11 16  1  0  0  0  0
 43 45  1  0  0  0  0
 43 46  1  0  0  0  0
 43 47  1  0  0  0  0
 22 30  1  0  0  0  0
 22 31  1  0  0  0  0
 21 28  1  0  0  0  0
 21 29  1  0  0  0  0
 33 38  1  0  0  0  0
  8 13  1  0  0  0  0
 18 27  1  0  0  0  0
 42 44  1  0  0  0  0
  7 12  1  0  0  0  0
 32 37  1  0  0  0  0
 17 26  1  0  0  0  0
M  CHG  1  24  -1
M  END
$$$$

  -OEChem-05262214473D

 47 46  0     1  0  0  0  0  0999 V2000
    0.5093   -4.7265    3.0306 C   0  0  0  0  0  0  0  0  0  0  0  0
    1.2735   -4.4402    3.9448 O   0  0  0  0  0  0  0  0  0  0  0  0
   -0.4465   -5.8608    3.1982 C   0  0  0  0  0  0  0  0  0  0  0  0
   -0.0219   -6.8213    2.8645 H   0  0  0  0  0  0  0  0  0  0  0  0
   -0.7314   -6.0185    4.2509 H   0  0  0  0  0  0  0  0  0  0  0  0
   -1.3983   -5.7596    2.6527 H   0  0  0  0  0  0  0  0  0  0  0  0
    0.4252   -4.0886    1.8040 N   0  0  0  0  0  0  0  0  0  0  0  0
    1.2532   -2.9707    1.4349 C   0  0  2  0  0  0  0  0  0  0  0  0
    0.3395   -1.8293    1.0083 C   0  0  0  0  0  0  0  0  0  0  0  0
   -0.8136   -2.0027    0.6194 O   0  0  0  0  0  0  0  0  0  0  0  0
    2.2176   -3.3411    0.3189 C   0  0  0  0  0  0  0  0  0  0  0  0
   -0.2574   -4.4279    1.1287 H   0  0  0  0  0  0  0  0  0  0  0  0
    1.8087   -2.6785    2.3327 H   0  0  0  0  0  0  0  0  0  0  0  0
    1.6793   -3.6366   -0.5890 H   0  0  0  0  0  0  0  0  0  0  0  0
    2.8662   -2.4980    0.0589 H   0  0  0  0  0  0  0  0  0  0  0  0
    2.8538   -4.1816    0.6166 H   0  0  0  0  0  0  0  0  0  0  0  0
    0.9758   -0.5952    1.0708 N   0  0  0  0  0  0  0  0  0  0  0  0
    0.3258    0.6374    0.7059 C   0  0  2  0  0  0  0  0  0  0  0  0
   -1.1730    0.3634    0.6399 C   0  0  0  0  0  0  0  0  0  0  0  0
   -1.9754    1.1462    0.1354 O   0  0  0  0  0  0  0  0  0  0  0  0
    0.8295    1.1759   -0.6385 C   0  0  0  0  0  0  0  0  0  0  0  0
    2.2888    1.6285   -0.6050 C   0  0  0  0  0  0  0  0  0  0  0  0
    2.8636    2.1562   -1.9237 C   0  0  0  0  0  0  0  0  0  0  0  0
    2.0933    2.0216   -2.9178 O   0  5  0  0  0  0  0  0  0  0  0  0
    4.0146    2.6701   -1.8668 O   0  0  0  0  0  0  0  0  0  0  0  0
    1.9288   -0.5463    1.4242 H   0  0  0  0  0  0  0  0  0  0  0  0
    0.5186    1.3467    1.5180 H   0  0  0  0  0  0  0  0  0  0  0  0
    0.1967    2.0084   -0.9703 H   0  0  0  0  0  0  0  0  0  0  0  0
    0.7263    0.3951   -1.4038 H   0  0  0  0  0  0  0  0  0  0  0  0
    2.4279    2.3859    0.1756 H   0  0  0  0  0  0  0  0  0  0  0  0
    2.9106    0.7700   -0.3207 H   0  0  0  0  0  0  0  0  0  0  0  0
   -1.5116   -0.8353    1.2523 N   0  0  0  0  0  0  0  0  0  0  0  0
   -2.8716   -1.3150    1.3368 C   0  0  2  0  0  0  0  0  0  0  0  0
   -2.9290   -2.3761    2.4279 C   0  0  0  0  0  0  0  0  0  0  0  0
   -1.9421   -3.0044    2.8051 O   0  0  0  0  0  0  0  0  0  0  0  0
   -3.3434   -1.8784    0.0054 C   0  0  0  0  0  0  0  0  0  0  0  0
   -0.7777   -1.4269    1.6306 H   0  0  0  0  0  0  0  0  0  0  0  0
   -3.4914   -0.4593    1.6258 H   0  0  0  0  0  0  0  0  0  0  0  0
   -2.7341   -2.7367   -0.3006 H   0  0  0  0  0  0  0  0  0  0  0  0
   -4.3836   -2.2154    0.0634 H   0  0  0  0  0  0  0  0  0  0  0  0
   -3.2733   -1.1226   -0.7844 H   0  0  0  0  0  0  0  0  0  0  0  0
   -4.2195   -2.5694    2.9005 N   0  0  0  0  0  0  0  0  0  0  0  0
   -4.5370   -3.5319    3.9295 C   0  0  0  0  0  0  0  0  0  0  0  0
   -4.9742   -1.9906    2.5438 H   0  0  0  0  0  0  0  0  0  0  0  0
   -4.8192   -4.4876    3.4638 H   0  0  0  0  0  0  0  0  0  0  0  0
   -3.6581   -3.6834    4.5734 H   0  0  0  0  0  0  0  0  0  0  0  0
   -5.3753   -3.1577    4.5353 H   0  0  0  0  0  0  0  0  0  0  0  0
  1  3  1  0  0  0  0
  1  7  1  0  0  0  0
  1  2  2  0  0  0  0
 33 34  1  0  0  0  0
 34 42  1  0  0  0  0
 34 35  2  0  0  0  0
  8  9  1  0  0  0  0
  9 17  1  0  0  0  0
  9 10  2  0  0  0  0
 18 19  1  0  0  0  0
 19 32  1  0  0  0  0
 19 20  2  0  0  0  0
 22 23  1  0  0  0  0
 23 24  1  0  0  0  0
 23 25  2  0  0  0  0
 33 36  1  0  0  0  0
  8 11  1  0  0  0  0
 42 43  1  0  0  0  0
 21 22  1  0  0  0  0
 18 21  1  0  0  0  0
 32 33  1  0  0  0  0
  7  8  1  0  0  0  0
 17 18  1  0  0  0  0
  3  4  1  0  0  0  0
  3  5  1  0  0  0  0
  3  6  1  0  0  0  0
 36 39  1  0  0  0  0
 36 40  1  0  0  0  0
 36 41  1  0  0  0  0
 11 14  1  0  0  0  0
 11 15  1  0  0  0  0
 11 16  1  0  0  0  0
 43 45  1  0  0  0  0
 43 46  1  0  0  0  0
 43 47  1  0  0  0  0
 22 30  1  0  0  0  0
 22 31  1  0  0  0  0
 21 28  1  0  0  0  0
 21 29  1  0  0  0  0
 33 38  1  0  0  0  0
  8 13  1  0  0  0  0
 18 27  1  0  0  0  0
 42 44  1  0  0  0  0
  7 12  1  0  0  0  0
 32 37  1  0  0  0  0
 17 26  1  0  0  0  0
M  CHG  1  24  -1
M  END
$$$$

  -OEChem-05262214473D

 47 46  0     1  0  0  0  0  0999 V2000
    0.5093   -4.7265    3.0306 C   0  0  0  0  0  0  0  0  0  0  0  0
    1.2735   -4.4402    3.9448 O   0  0  0  0  0  0  0  0  0  0  0  0
   -0.4465   -5.8608    3.1982 C   0  0  0  0  0  0  0  0  0  0  0  0
   -0.0219   -6.8213    2.8645 H   0  0  0  0  0  0  0  0  0  0  0  0
   -0.7314   -6.0185    4.2509 H   0  0  0  0  0  0  0  0  0  0  0  0
   -1.3983   -5.7596    2.6527 H   0  0  0  0  0  0  0  0  0  0  0  0
    0.4252   -4.0886    1.8040 N   0  0  0  0  0  0  0  0  0  0  0  0
    1.2532   -2.9707    1.4349 C   0  0  2  0  0  0  0  0  0  0  0  0
    0.3395   -1.8293    1.0083 C   0  0  0  0  0  0  0  0  0  0  0  0
   -0.8136   -2.0027    0.6194 O   0  0  0  0  0  0  0  0  0  0  0  0
    2.2176   -3.3411    0.3189 C   0  0  0  0  0  0  0  0  0  0  0  0
   -0.2574   -4.4279    1.1287 H   0  0  0  0  0  0  0  0  0  0  0  0
    1.8087   -2.6785    2.3327 H   0  0  0  0  0  0  0  0  0  0  0  0
    1.6793   -3.6366   -0.5890 H   0  0  0  0  0  0  0  0  0  0  0  0
    2.8662   -2.4980    0.0589 H   0  0  0  0  0  0  0  0  0  0  0  0
    2.8538   -4.1816    0.6166 H   0  0  0  0  0  0  0  0  0  0  0  0
    0.9758   -0.5952    1.0708 N   0  0  0  0  0  0  0  0  0  0  0  0
    0.3258    0.6374    0.7059 C   0  0  2  0  0  0  0  0  0  0  0  0
   -1.1730    0.3634    0.6399 C   0  0  0  0  0  0  0  0  0  0  0  0
   -1.9383    0.9961   -0.0848 O   0  0  0  0  0  0  0  0  0  0  0  0
    0.8295    1.1759   -0.6385 C   0  0  0  0  0  0  0  0  0  0  0  0
    2.2888    1.6285   -0.6050 C   0  0  0  0  0  0  0  0  0  0  0  0
    2.8636    2.1562   -1.9237 C   0  0  0  0  0  0  0  0  0  0  0  0
    2.0933    2.0216   -2.9178 O   0  5  0  0  0  0  0  0  0  0  0  0
    4.0146    2.6701   -1.8668 O   0  0  0  0  0  0  0  0  0  0  0  0
    1.9288   -0.5463    1.4242 H   0  0  0  0  0  0  0  0  0  0  0  0
    0.5186    1.3467    1.5180 H   0  0  0  0  0  0  0  0  0  0  0  0
    0.1967    2.0084   -0.9703 H   0  0  0  0  0  0  0  0  0  0  0  0
    0.7263    0.3951   -1.4038 H   0  0  0  0  0  0  0  0  0  0  0  0
    2.4279    2.3859    0.1756 H   0  0  0  0  0  0  0  0  0  0  0  0
    2.9106    0.7700   -0.3207 H   0  0  0  0  0  0  0  0  0  0  0  0
   -1.5595   -0.6381    1.5198 N   0  0  0  0  0  0  0  0  0  0  0  0
   -2.9299   -1.0734    1.6582 C   0  0  2  0  0  0  0  0  0  0  0  0
   -3.0546   -1.8214    2.9789 C   0  0  0  0  0  0  0  0  0  0  0  0
   -2.0967   -2.3380    3.5504 O   0  0  0  0  0  0  0  0  0  0  0  0
   -3.3508   -1.9548    0.4925 C   0  0  0  0  0  0  0  0  0  0  0  0
   -0.8537   -1.1177    2.0707 H   0  0  0  0  0  0  0  0  0  0  0  0
   -3.5473   -0.1691    1.6902 H   0  0  0  0  0  0  0  0  0  0  0  0
   -2.7433   -2.8658    0.4442 H   0  0  0  0  0  0  0  0  0  0  0  0
   -4.3983   -2.2605    0.5843 H   0  0  0  0  0  0  0  0  0  0  0  0
   -3.2323   -1.4254   -0.4590 H   0  0  0  0  0  0  0  0  0  0  0  0
   -4.3683   -1.8813    3.4227 N   0  0  0  0  0  0  0  0  0  0  0  0
   -4.7483   -2.5484    4.6460 C   0  0  0  0  0  0  0  0  0  0  0  0
   -5.0961   -1.4085    2.8949 H   0  0  0  0  0  0  0  0  0  0  0  0
   -5.0257   -3.5898    4.4255 H   0  0  0  0  0  0  0  0  0  0  0  0
   -3.9021   -2.5355    5.3487 H   0  0  0  0  0  0  0  0  0  0  0  0
   -5.6065   -2.0279    5.0960 H   0  0  0  0  0  0  0  0  0  0  0  0
  1  3  1  0  0  0  0
  1  7  1  0  0  0  0
  1  2  2  0  0  0  0
 33 34  1  0  0  0  0
 34 42  1  0  0  0  0
 34 35  2  0  0  0  0
  8  9  1  0  0  0  0
  9 17  1  0  0  0  0
  9 10  2  0  0  0  0
 18 19  1  0  0  0  0
 19 32  1  0  0  0  0
 19 20  2  0  0  0  0
 22 23  1  0  0  0  0
 23 24  1  0  0  0  0
 23 25  2  0  0  0  0
 33 36  1  0  0  0  0
  8 11  1  0  0  0  0
 42 43  1  0  0  0  0
 21 22  1  0  0  0  0
 18 21  1  0  0  0  0
 32 33  1  0  0  0  0
  7  8  1  0  0  0  0
 17 18  1  0  0  0  0
  3  4  1  0  0  0  0
  3  5  1  0  0  0  0
  3  6  1  0  0  0  0
 36 39  1  0  0  0  0
 36 40  1  0  0  0  0
 36 41  1  0  0  0  0
 11 14  1  0  0  0  0
 11 15  1  0  0  0  0
 11 16  1  0  0  0  0
 43 45  1  0  0  0  0
 43 46  1  0  0  0  0
 43 47  1  0  0  0  0
 22 30  1  0  0  0  0
 22 31  1  0  0  0  0
 21 28  1  0  0  0  0
 21 29  1  0  0  0  0
 33 38  1  0  0  0  0
  8 13  1  0  0  0  0
 18 27  1  0  0  0  0
 42 44  1  0  0  0  0
  7 12  1  0  0  0  0
 32 37  1  0  0  0  0
 17 26  1  0  0  0  0
M  CHG  1  24  -1
M  END
$$$$

  -OEChem-05262214473D

 47 46  0     1  0  0  0  0  0999 V2000
    0.5093   -4.7265    3.0306 C   0  0  0  0  0  0  0  0  0  0  0  0
    1.2735   -4.4402    3.9448 O   0  0  0  0  0  0  0  0  0  0  0  0
   -0.4465   -5.8608    3.1982 C   0  0  0  0  0  0  0  0  0  0  0  0
   -0.0219   -6.8213    2.8645 H   0  0  0  0  0  0  0  0  0  0  0  0
   -0.7314   -6.0185    4.2509 H   0  0  0  0  0  0  0  0  0  0  0  0
   -1.3983   -5.7596    2.6527 H   0  0  0  0  0  0  0  0  0  0  0  0
    0.4252   -4.0886    1.8040 N   0  0  0  0  0  0  0  0  0  0  0  0
    1.2532   -2.9707    1.4349 C   0  0  2  0  0  0  0  0  0  0  0  0
    0.3395   -1.8293    1.0083 C   0  0  0  0  0  0  0  0  0  0  0  0
   -0.8136   -2.0027    0.6194 O   0  0  0  0  0  0  0  0  0  0  0  0
    2.2176   -3.3411    0.3189 C   0  0  0  0  0  0  0  0  0  0  0  0
   -0.2574   -4.4279    1.1287 H   0  0  0  0  0  0  0  0  0  0  0  0
    1.8087   -2.6785    2.3327 H   0  0  0  0  0  0  0  0  0  0  0  0
    1.6793   -3.6366   -0.5890 H   0  0  0  0  0  0  0  0  0  0  0  0
    2.8662   -2.4980    0.0589 H   0  0  0  0  0  0  0  0  0  0  0  0
    2.8538   -4.1816    0.6166 H   0  0  0  0  0  0  0  0  0  0  0  0
    0.9758   -0.5952    1.0708 N   0  0  0  0  0  0  0  0  0  0  0  0
    0.3258    0.6374    0.7059 C   0  0  2  0  0  0  0  0  0  0  0  0
   -1.1730    0.3634    0.6399 C   0  0  0  0  0  0  0  0  0  0  0  0
   -1.8939    0.7946   -0.2576 O   0  0  0  0  0  0  0  0  0  0  0  0
    0.8295    1.1759   -0.6385 C   0  0  0  0  0  0  0  0  0  0  0  0
    2.2888    1.6285   -0.6050 C   0  0  0  0  0  0  0  0  0  0  0  0
    2.8636    2.1562   -1.9237 C   0  0  0  0  0  0  0  0  0  0  0  0
    2.0933    2.0216   -2.9178 O   0  5  0  0  0  0  0  0  0  0  0  0
    4.0146    2.6701   -1.8668 O   0  0  0  0  0  0  0  0  0  0  0  0
    1.9288   -0.5463    1.4242 H   0  0  0  0  0  0  0  0  0  0  0  0
    0.5186    1.3467    1.5180 H   0  0  0  0  0  0  0  0  0  0  0  0
    0.1967    2.0084   -0.9703 H   0  0  0  0  0  0  0  0  0  0  0  0
    0.7263    0.3951   -1.4038 H   0  0  0  0  0  0  0  0  0  0  0  0
    2.4279    2.3859    0.1756 H   0  0  0  0  0  0  0  0  0  0  0  0
    2.9106    0.7700   -0.3207 H   0  0  0  0  0  0  0  0  0  0  0  0
   -1.6159   -0.3790    1.7258 N   0  0  0  0  0  0  0  0  0  0  0  0
   -2.9984   -0.7577    1.9044 C   0  0  2  0  0  0  0  0  0  0  0  0
   -3.1954   -1.1441    3.3643 C   0  0  0  0  0  0  0  0  0  0  0  0
   -2.2732   -1.5031    4.0935 O   0  0  0  0  0  0  0  0  0  0  0  0
   -3.3816   -1.9046    0.9821 C   0  0  0  0  0  0  0  0  0  0  0  0
   -0.9440   -0.7062    2.4137 H   0  0  0  0  0  0  0  0  0  0  0  0
   -3.6010    0.1281    1.6759 H   0  0  0  0  0  0  0  0  0  0  0  0
   -2.7882   -2.8011    1.1961 H   0  0  0  0  0  0  0  0  0  0  0  0
   -4.4372   -2.1715    1.0983 H   0  0  0  0  0  0  0  0  0  0  0  0
   -3.2111   -1.6356   -0.0659 H   0  0  0  0  0  0  0  0  0  0  0  0
   -4.5286   -1.0822    3.7452 N   0  0  0  0  0  0  0  0  0  0  0  0
   -4.9747   -1.4139    5.0782 C   0  0  0  0  0  0  0  0  0  0  0  0
   -5.2236   -0.7556    3.0803 H   0  0  0  0  0  0  0  0  0  0  0  0
   -5.2598   -2.4756    5.1165 H   0  0  0  0  0  0  0  0  0  0  0  0
   -4.1609   -1.2268    5.7943 H   0  0  0  0  0  0  0  0  0  0  0  0
   -5.8433   -0.7915    5.3395 H   0  0  0  0  0  0  0  0  0  0  0  0
  1  3  1  0  0  0  0
  1  7  1  0  0  0  0
  1  2  2  0  0  0  0
 33 34  1  0  0  0  0
 34 42  1  0  0  0  0
 34 35  2  0  0  0  0
  8  9  1  0  0  0  0
  9 17  1  0  0  0  0
  9 10  2  0  0  0  0
 18 19  1  0  0  0  0
 19 32  1  0  0  0  0
 19 20  2  0  0  0  0
 22 23  1  0  0  0  0
 23 24  1  0  0  0  0
 23 25  2  0  0  0  0
 33 36  1  0  0  0  0
  8 11  1  0  0  0  0
 42 43  1  0  0  0  0
 21 22  1  0  0  0  0
 18 21  1  0  0  0  0
 32 33  1  0  0  0  0
  7  8  1  0  0  0  0
 17 18  1  0  0  0  0
  3  4  1  0  0  0  0
  3  5  1  0  0  0  0
  3  6  1  0  0  0  0
 36 39  1  0  0  0  0
 36 40  1  0  0  0  0
 36 41  1  0  0  0  0
 11 14  1  0  0  0  0
 11 15  1  0  0  0  0
 11 16  1  0  0  0  0
 43 45  1  0  0  0  0
 43 46  1  0  0  0  0
 43 47  1  0  0  0  0
 22 30  1  0  0  0  0
 22 31  1  0  0  0  0
 21 28  1  0  0  0  0
 21 29  1  0  0  0  0
 33 38  1  0  0  0  0
  8 13  1  0  0  0  0
 18 27  1  0  0  0  0
 42 44  1  0  0  0  0
  7 12  1  0  0  0  0
 32 37  1  0  0  0  0
 17 26  1  0  0  0  0
M  CHG  1  24  -1
M  END
$$$$

  -OEChem-05262214473D

 47 46  0     1  0  0  0  0  0999 V2000
    0.5093   -4.7265    3.0306 C   0  0  0  0  0  0  0  0  0  0  0  0
    1.2735   -4.4402    3.9448 O   0  0  0  0  0  0  0  0  0  0  0  0
   -0.4465   -5.8608    3.1982 C   0  0  0  0  0  0  0  0  0  0  0  0
   -0.0219   -6.8213    2.8645 H   0  0  0  0  0  0  0  0  0  0  0  0
   -0.7314   -6.0185    4.2509 H   0  0  0  0  0  0  0  0  0  0  0  0
   -1.3983   -5.7596    2.6527 H   0  0  0  0  0  0  0  0  0  0  0  0
    0.4252   -4.0886    1.8040 N   0  0  0  0  0  0  0  0  0  0  0  0
    1.2532   -2.9707    1.4349 C   0  0  2  0  0  0  0  0  0  0  0  0
    0.3395   -1.8293    1.0083 C   0  0  0  0  0  0  0  0  0  0  0  0
   -0.8136   -2.0027    0.6194 O   0  0  0  0  0  0  0  0  0  0  0  0
    2.2176   -3.3411    0.3189 C   0  0  0  0  0  0  0  0  0  0  0  0
   -0.2574   -4.4279    1.1287 H   0  0  0  0  0  0  0  0  0  0  0  0
    1.8087   -2.6785    2.3327 H   0  0  0  0  0  0  0  0  0  0  0  0
    1.6793   -3.6366   -0.5890 H   0  0  0  0  0  0  0  0  0  0  0  0
    2.8662   -2.4980    0.0589 H   0  0  0  0  0  0  0  0  0  0  0  0
    2.8538   -4.1816    0.6166 H   0  0  0  0  0  0  0  0  0  0  0  0
    0.9758   -0.5952    1.0708 N   0  0  0  0  0  0  0  0  0  0  0  0
    0.3258    0.6374    0.7059 C   0  0  2  0  0  0  0  0  0  0  0  0
   -1.1730    0.3634    0.6399 C   0  0  0  0  0  0  0  0  0  0  0  0
   -1.8452    0.5556   -0.3713 O   0  0  0  0  0  0  0  0  0  0  0  0
    0.8295    1.1759   -0.6385 C   0  0  0  0  0  0  0  0  0  0  0  0
    2.2888    1.6285   -0.6050 C   0  0  0  0  0  0  0  0  0  0  0  0
    2.8636    2.1562   -1.9237 C   0  0  0  0  0  0  0  0  0  0  0  0
    2.0933    2.0216   -2.9178 O   0  5  0  0  0  0  0  0  0  0  0  0
    4.0146    2.6701   -1.8668 O   0  0  0  0  0  0  0  0  0  0  0  0
    1.9288   -0.5463    1.4242 H   0  0  0  0  0  0  0  0  0  0  0  0
    0.5186    1.3467    1.5180 H   0  0  0  0  0  0  0  0  0  0  0  0
    0.1967    2.0084   -0.9703 H   0  0  0  0  0  0  0  0  0  0  0  0
    0.7263    0.3951   -1.4038 H   0  0  0  0  0  0  0  0  0  0  0  0
    2.4279    2.3859    0.1756 H   0  0  0  0  0  0  0  0  0  0  0  0
    2.9106    0.7700   -0.3207 H   0  0  0  0  0  0  0  0  0  0  0  0
   -1.6771   -0.0758    1.8563 N   0  0  0  0  0  0  0  0  0  0  0  0
   -3.0726   -0.3893    2.0587 C   0  0  2  0  0  0  0  0  0  0  0  0
   -3.3418   -0.3902    3.5577 C   0  0  0  0  0  0  0  0  0  0  0  0
   -2.4597   -0.5565    4.3975 O   0  0  0  0  0  0  0  0  0  0  0  0
   -3.4334   -1.7313    1.4409 C   0  0  0  0  0  0  0  0  0  0  0  0
   -1.0426   -0.2204    2.6361 H   0  0  0  0  0  0  0  0  0  0  0  0
   -3.6489    0.4123    1.5840 H   0  0  0  0  0  0  0  0  0  0  0  0
   -2.8659   -2.5468    1.9038 H   0  0  0  0  0  0  0  0  0  0  0  0
   -4.4977   -1.9543    1.5703 H   0  0  0  0  0  0  0  0  0  0  0  0
   -3.2114   -1.7388    0.3683 H   0  0  0  0  0  0  0  0  0  0  0  0
   -4.6894   -0.2265    3.8460 N   0  0  0  0  0  0  0  0  0  0  0  0
   -5.2009   -0.2055    5.1966 C   0  0  0  0  0  0  0  0  0  0  0  0
   -5.3481   -0.0764    3.0874 H   0  0  0  0  0  0  0  0  0  0  0  0
   -5.5056   -1.2210    5.4896 H   0  0  0  0  0  0  0  0  0  0  0  0
   -4.4170    0.1535    5.8798 H   0  0  0  0  0  0  0  0  0  0  0  0
   -6.0695    0.4674    5.2492 H   0  0  0  0  0  0  0  0  0  0  0  0
  1  3  1  0  0  0  0
  1  7  1  0  0  0  0
  1  2  2  0  0  0  0
 33 34  1  0  0  0  0
 34 42  1  0  0  0  0
 34 35  2  0  0  0  0
  8  9  1  0  0  0  0
  9 17  1  0  0  0  0
  9 10  2  0  0  0  0
 18 19  1  0  0  0  0
 19 32  1  0  0  0  0
 19 20  2  0  0  0  0
 22 23  1  0  0  0  0
 23 24  1  0  0  0  0
 23 25  2  0  0  0  0
 33 36  1  0  0  0  0
  8 11  1  0  0  0  0
 42 43  1  0  0  0  0
 21 22  1  0  0  0  0
 18 21  1  0  0  0  0
 32 33  1  0  0  0  0
  7  8  1  0  0  0  0
 17 18  1  0  0  0  0
  3  4  1  0  0  0  0
  3  5  1  0  0  0  0
  3  6  1  0  0  0  0
 36 39  1  0  0  0  0
 36 40  1  0  0  0  0
 36 41  1  0  0  0  0
 11 14  1  0  0  0  0
 11 15  1  0  0  0  0
 11 16  1  0  0  0  0
 43 45  1  0  0  0  0
 43 46  1  0  0  0  0
 43 47  1  0  0  0  0
 22 30  1  0  0  0  0
 22 31  1  0  0  0  0
 21 28  1  0  0  0  0
 21 29  1  0  0  0  0
 33 38  1  0  0  0  0
  8 13  1  0  0  0  0
 18 27  1  0  0  0  0
 42 44  1  0  0  0  0
  7 12  1  0  0  0  0
 32 37  1  0  0  0  0
 17 26  1  0  0  0  0
M  CHG  1  24  -1
M  END
$$$$

  -OEChem-05262214473D

 47 46  0     1  0  0  0  0  0999 V2000
    0.5093   -4.7265    3.0306 C   0  0  0  0  0  0  0  0  0  0  0  0
    1.2735   -4.4402    3.9448 O   0  0  0  0  0  0  0  0  0  0  0  0
   -0.4465   -5.8608    3.1982 C   0  0  0  0  0  0  0  0  0  0  0  0
   -0.0219   -6.8213    2.8645 H   0  0  0  0  0  0  0  0  0  0  0  0
   -0.7314   -6.0185    4.2509 H   0  0  0  0  0  0  0  0  0  0  0  0
   -1.3983   -5.7596    2.6527 H   0  0  0  0  0  0  0  0  0  0  0  0
    0.4252   -4.0886    1.8040 N   0  0  0  0  0  0  0  0  0  0  0  0
    1.2532   -2.9707    1.4349 C   0  0  2  0  0  0  0  0  0  0  0  0
    0.3395   -1.8293    1.0083 C   0  0  0  0  0  0  0  0  0  0  0  0
   -0.8136   -2.0027    0.6194 O   0  0  0  0  0  0  0  0  0  0  0  0
    2.2176   -3.3411    0.3189 C   0  0  0  0  0  0  0  0  0  0  0  0
   -0.2574   -4.4279    1.1287 H   0  0  0  0  0  0  0  0  0  0  0  0
    1.8087   -2.6785    2.3327 H   0  0  0  0  0  0  0  0  0  0  0  0
    1.6793   -3.6366   -0.5890 H   0  0  0  0  0  0  0  0  0  0  0  0
    2.8662   -2.4980    0.0589 H   0  0  0  0  0  0  0  0  0  0  0  0
    2.8538   -4.1816    0.6166 H   0  0  0  0  0  0  0  0  0  0  0  0
    0.9758   -0.5952    1.0708 N   0  0  0  0  0  0  0  0  0  0  0  0
    0.3258    0.6374    0.7059 C   0  0  2  0  0  0  0  0  0  0  0  0
   -1.1730    0.3634    0.6399 C   0  0  0  0  0  0  0  0  0  0  0  0
   -1.7955    0.2953   -0.4179 O   0  0  0  0  0  0  0  0  0  0  0  0
    0.8295    1.1759   -0.6385 C   0  0  0  0  0  0  0  0  0  0  0  0
    2.2888    1.6285   -0.6050 C   0  0  0  0  0  0  0  0  0  0  0  0
    2.8636    2.1562   -1.9237 C   0  0  0  0  0  0  0  0  0  0  0  0
    2.0933    2.0216   -2.9178 O   0  5  0  0  0  0  0  0  0  0  0  0
    4.0146    2.6701   -1.8668 O   0  0  0  0  0  0  0  0  0  0  0  0
    1.9288   -0.5463    1.4242 H   0  0  0  0  0  0  0  0  0  0  0  0
    0.5186    1.3467    1.5180 H   0  0  0  0  0  0  0  0  0  0  0  0
    0.1967    2.0084   -0.9703 H   0  0  0  0  0  0  0  0  0  0  0  0
    0.7263    0.3951   -1.4038 H   0  0  0  0  0  0  0  0  0  0  0  0
    2.4279    2.3859    0.1756 H   0  0  0  0  0  0  0  0  0  0  0  0
    2.9106    0.7700   -0.3207 H   0  0  0  0  0  0  0  0  0  0  0  0
   -1.7388    0.2510    1.9023 N   0  0  0  0  0  0  0  0  0  0  0  0
   -3.1472    0.0066    2.1106 C   0  0  2  0  0  0  0  0  0  0  0  0
   -3.4837    0.3888    3.5460 C   0  0  0  0  0  0  0  0  0  0  0  0
   -2.6433    0.4373    4.4418 O   0  0  0  0  0  0  0  0  0  0  0  0
   -3.5030   -1.4465    1.8375 C   0  0  0  0  0  0  0  0  0  0  0  0
   -1.1427    0.3064    2.7228 H   0  0  0  0  0  0  0  0  0  0  0  0
   -3.6877    0.6639    1.4208 H   0  0  0  0  0  0  0  0  0  0  0  0
   -2.9709   -2.1202    2.5191 H   0  0  0  0  0  0  0  0  0  0  0  0
   -4.5756   -1.6238    1.9681 H   0  0  0  0  0  0  0  0  0  0  0  0
   -3.2329   -1.7281    0.8140 H   0  0  0  0  0  0  0  0  0  0  0  0
   -4.8400    0.6275    3.7182 N   0  0  0  0  0  0  0  0  0  0  0  0
   -5.4112    0.9944    4.9930 C   0  0  0  0  0  0  0  0  0  0  0  0
   -5.4611    0.5830    2.9157 H   0  0  0  0  0  0  0  0  0  0  0  0
   -5.7463    0.0886    5.5195 H   0  0  0  0  0  0  0  0  0  0  0  0
   -4.6529    1.5114    5.5993 H   0  0  0  0  0  0  0  0  0  0  0  0
   -6.2696    1.6630    4.8312 H   0  0  0  0  0  0  0  0  0  0  0  0
  1  3  1  0  0  0  0
  1  7  1  0  0  0  0
  1  2  2  0  0  0  0
 33 34  1  0  0  0  0
 34 42  1  0  0  0  0
 34 35  2  0  0  0  0
  8  9  1  0  0  0  0
  9 17  1  0  0  0  0
  9 10  2  0  0  0  0
 18 19  1  0  0  0  0
 19 32  1  0  0  0  0
 19 20  2  0  0  0  0
 22 23  1  0  0  0  0
 23 24  1  0  0  0  0
 23 25  2  0  0  0  0
 33 36  1  0  0  0  0
  8 11  1  0  0  0  0
 42 43  1  0  0  0  0
 21 22  1  0  0  0  0
 18 21  1  0  0  0  0
 32 33  1  0  0  0  0
  7  8  1  0  0  0  0
 17 18  1  0  0  0  0
  3  4  1  0  0  0  0
  3  5  1  0  0  0  0
  3  6  1  0  0  0  0
 36 39  1  0  0  0  0
 36 40  1  0  0  0  0
 36 41  1  0  0  0  0
 11 14  1  0  0  0  0
 11 15  1  0  0  0  0
 11 16  1  0  0  0  0
 43 45  1  0  0  0  0
 43 46  1  0  0  0  0
 43 47  1  0  0  0  0
 22 30  1  0  0  0  0
 22 31  1  0  0  0  0
 21 28  1  0  0  0  0
 21 29  1  0  0  0  0
 33 38  1  0  0  0  0
  8 13  1  0  0  0  0
 18 27  1  0  0  0  0
 42 44  1  0  0  0  0
  7 12  1  0  0  0  0
 32 37  1  0  0  0  0
 17 26  1  0  0  0  0
M  CHG  1  24  -1
M  END
$$$$

  -OEChem-05262214473D

 47 46  0     1  0  0  0  0  0999 V2000
    0.5093   -4.7265    3.0306 C   0  0  0  0  0  0  0  0  0  0  0  0
    1.2735   -4.4402    3.9448 O   0  0  0  0  0  0  0  0  0  0  0  0
   -0.4465   -5.8608    3.1982 C   0  0  0  0  0  0  0  0  0  0  0  0
   -0.0219   -6.8213    2.8645 H   0  0  0  0  0  0  0  0  0  0  0  0
   -0.7314   -6.0185    4.2509 H   0  0  0  0  0  0  0  0  0  0  0  0
   -1.3983   -5.7596    2.6527 H   0  0  0  0  0  0  0  0  0  0  0  0
    0.4252   -4.0886    1.8040 N   0  0  0  0  0  0  0  0  0  0  0  0
    1.2532   -2.9707    1.4349 C   0  0  2  0  0  0  0  0  0  0  0  0
    0.3395   -1.8293    1.0083 C   0  0  0  0  0  0  0  0  0  0  0  0
   -0.8136   -2.0027    0.6194 O   0  0  0  0  0  0  0  0  0  0  0  0
    2.2176   -3.3411    0.3189 C   0  0  0  0  0  0  0  0  0  0  0  0
   -0.2574   -4.4279    1.1287 H   0  0  0  0  0  0  0  0  0  0  0  0
    1.8087   -2.6785    2.3327 H   0  0  0  0  0  0  0  0  0  0  0  0
    1.6793   -3.6366   -0.5890 H   0  0  0  0  0  0  0  0  0  0  0  0
    2.8662   -2.4980    0.0589 H   0  0  0  0  0  0  0  0  0  0  0  0
    2.8538   -4.1816    0.6166 H   0  0  0  0  0  0  0  0  0  0  0  0
    0.9758   -0.5952    1.0708 N   0  0  0  0  0  0  0  0  0  0  0  0
    0.3258    0.6374    0.7059 C   0  0  2  0  0  0  0  0  0  0  0  0
   -1.1730    0.3634    0.6399 C   0  0  0  0  0  0  0  0  0  0  0  0
   -1.7483    0.0314   -0.3945 O   0  0  0  0  0  0  0  0  0  0  0  0
    0.8295    1.1759   -0.6385 C   0  0  0  0  0  0  0  0  0  0  0  0
    2.2888    1.6285   -0.6050 C   0  0  0  0  0  0  0  0  0  0  0  0
    2.8636    2.1562   -1.9237 C   0  0  0  0  0  0  0  0  0  0  0  0
    2.0933    2.0216   -2.9178 O   0  5  0  0  0  0  0  0  0  0  0  0
    4.0146    2.6701   -1.8668 O   0  0  0  0  0  0  0  0  0  0  0  0
    1.9288   -0.5463    1.4242 H   0  0  0  0  0  0  0  0  0  0  0  0
    0.5186    1.3467    1.5180 H   0  0  0  0  0  0  0  0  0  0  0  0
    0.1967    2.0084   -0.9703 H   0  0  0  0  0  0  0  0  0  0  0  0
    0.7263    0.3951   -1.4038 H   0  0  0  0  0  0  0  0  0  0  0  0
    2.4279    2.3859    0.1756 H   0  0  0  0  0  0  0  0  0  0  0  0
    2.9106    0.7700   -0.3207 H   0  0  0  0  0  0  0  0  0  0  0  0
   -1.7970    0.5791    1.8608 N   0  0  0  0  0  0  0  0  0  0  0  0
   -3.2173    0.4030    2.0566 C   0  0  2  0  0  0  0  0  0  0  0  0
   -3.6115    1.1399    3.3299 C   0  0  0  0  0  0  0  0  0  0  0  0
   -2.8116    1.4105    4.2232 O   0  0  0  0  0  0  0  0  0  0  0  0
   -3.5853   -1.0699    2.1449 C   0  0  0  0  0  0  0  0  0  0  0  0
   -1.2376    0.8385    2.6679 H   0  0  0  0  0  0  0  0  0  0  0  0
   -3.7148    0.8658    1.1973 H   0  0  0  0  0  0  0  0  0  0  0  0
   -3.0963   -1.5505    3.0000 H   0  0  0  0  0  0  0  0  0  0  0  0
   -4.6657   -1.2024    2.2647 H   0  0  0  0  0  0  0  0  0  0  0  0
   -3.2744   -1.6042    1.2407 H   0  0  0  0  0  0  0  0  0  0  0  0
   -4.9698    1.4216    3.3706 N   0  0  0  0  0  0  0  0  0  0  0  0
   -5.5916    2.1039    4.4814 C   0  0  0  0  0  0  0  0  0  0  0  0
   -5.5548    1.1774    2.5769 H   0  0  0  0  0  0  0  0  0  0  0  0
   -5.9656    1.3638    5.2041 H   0  0  0  0  0  0  0  0  0  0  0  0
   -4.8526    2.7544    4.9721 H   0  0  0  0  0  0  0  0  0  0  0  0
   -6.4302    2.7137    4.1140 H   0  0  0  0  0  0  0  0  0  0  0  0
  1  3  1  0  0  0  0
  1  7  1  0  0  0  0
  1  2  2  0  0  0  0
 33 34  1  0  0  0  0
 34 42  1  0  0  0  0
 34 35  2  0  0  0  0
  8  9  1  0  0  0  0
  9 17  1  0  0  0  0
  9 10  2  0  0  0  0
 18 19  1  0  0  0  0
 19 32  1  0  0  0  0
 19 20  2  0  0  0  0
 22 23  1  0  0  0  0
 23 24  1  0  0  0  0
 23 25  2  0  0  0  0
 33 36  1  0  0  0  0
  8 11  1  0  0  0  0
 42 43  1  0  0  0  0
 21 22  1  0  0  0  0
 18 21  1  0  0  0  0
 32 33  1  0  0  0  0
  7  8  1  0  0  0  0
 17 18  1  0  0  0  0
  3  4  1  0  0  0  0
  3  5  1  0  0  0  0
  3  6  1  0  0  0  0
 36 39  1  0  0  0  0
 36 40  1  0  0  0  0
 36 41  1  0  0  0  0
 11 14  1  0  0  0  0
 11 15  1  0  0  0  0
 11 16  1  0  0  0  0
 43 45  1  0  0  0  0
 43 46  1  0  0  0  0
 43 47  1  0  0  0  0
 22 30  1  0  0  0  0
 22 31  1  0  0  0  0
 21 28  1  0  0  0  0
 21 29  1  0  0  0  0
 33 38  1  0  0  0  0
  8 13  1  0  0  0  0
 18 27  1  0  0  0  0
 42 44  1  0  0  0  0
  7 12  1  0  0  0  0
 32 37  1  0  0  0  0
 17 26  1  0  0  0  0
M  CHG  1  24  -1
M  END
$$$$

  -OEChem-05262214473D

 47 46  0     1  0  0  0  0  0999 V2000
    0.5093   -4.7265    3.0306 C   0  0  0  0  0  0  0  0  0  0  0  0
    1.2735   -4.4402    3.9448 O   0  0  0  0  0  0  0  0  0  0  0  0
   -0.4465   -5.8608    3.1982 C   0  0  0  0  0  0  0  0  0  0  0  0
   -0.0219   -6.8213    2.8645 H   0  0  0  0  0  0  0  0  0  0  0  0
   -0.7314   -6.0185    4.2509 H   0  0  0  0  0  0  0  0  0  0  0  0
   -1.3983   -5.7596    2.6527 H   0  0  0  0  0  0  0  0  0  0  0  0
    0.4252   -4.0886    1.8040 N   0  0  0  0  0  0  0  0  0  0  0  0
    1.2532   -2.9707    1.4349 C   0  0  2  0  0  0  0  0  0  0  0  0
    0.3395   -1.8293    1.0083 C   0  0  0  0  0  0  0  0  0  0  0  0
   -0.8136   -2.0027    0.6194 O   0  0  0  0  0  0  0  0  0  0  0  0
    2.2176   -3.3411    0.3189 C   0  0  0  0  0  0  0  0  0  0  0  0
   -0.2574   -4.4279    1.1287 H   0  0  0  0  0  0  0  0  0  0  0  0
    1.8087   -2.6785    2.3327 H   0  0  0  0  0  0  0  0  0  0  0  0
    1.6793   -3.6366   -0.5890 H   0  0  0  0  0  0  0  0  0  0  0  0
    2.8662   -2.4980    0.0589 H   0  0  0  0  0  0  0  0  0  0  0  0
    2.8538   -4.1816    0.6166 H   0  0  0  0  0  0  0  0  0  0  0  0
    0.9758   -0.5952    1.0708 N   0  0  0  0  0  0  0  0  0  0  0  0
    0.3258    0.6374    0.7059 C   0  0  2  0  0  0  0  0  0  0  0  0
   -1.1730    0.3634    0.6399 C   0  0  0  0  0  0  0  0  0  0  0  0
   -1.7067   -0.2181   -0.3025 O   0  0  0  0  0  0  0  0  0  0  0  0
    0.8295    1.1759   -0.6385 C   0  0  0  0  0  0  0  0  0  0  0  0
    2.2888    1.6285   -0.6050 C   0  0  0  0  0  0  0  0  0  0  0  0
    2.8636    2.1562   -1.9237 C   0  0  0  0  0  0  0  0  0  0  0  0
    2.0933    2.0216   -2.9178 O   0  5  0  0  0  0  0  0  0  0  0  0
    4.0146    2.6701   -1.8668 O   0  0  0  0  0  0  0  0  0  0  0  0
    1.9288   -0.5463    1.4242 H   0  0  0  0  0  0  0  0  0  0  0  0
    0.5186    1.3467    1.5180 H   0  0  0  0  0  0  0  0  0  0  0  0
    0.1967    2.0084   -0.9703 H   0  0  0  0  0  0  0  0  0  0  0  0
    0.7263    0.3951   -1.4038 H   0  0  0  0  0  0  0  0  0  0  0  0
    2.4279    2.3859    0.1756 H   0  0  0  0  0  0  0  0  0  0  0  0
    2.9106    0.7700   -0.3207 H   0  0  0  0  0  0  0  0  0  0  0  0
   -1.8476    0.8861    1.7346 N   0  0  0  0  0  0  0  0  0  0  0  0
   -3.2781    0.7730    1.9003 C   0  0  2  0  0  0  0  0  0  0  0  0
   -3.7165    1.8118    2.9241 C   0  0  0  0  0  0  0  0  0  0  0  0
   -2.9531    2.2968    3.7567 O   0  0  0  0  0  0  0  0  0  0  0  0
   -3.6750   -0.6269    2.3423 C   0  0  0  0  0  0  0  0  0  0  0  0
   -1.3207    1.3395    2.4751 H   0  0  0  0  0  0  0  0  0  0  0  0
   -3.7283    1.0043    0.9288 H   0  0  0  0  0  0  0  0  0  0  0  0
   -3.2333   -0.8765    3.3139 H   0  0  0  0  0  0  0  0  0  0  0  0
   -4.7618   -0.7190    2.4398 H   0  0  0  0  0  0  0  0  0  0  0  0
   -3.3329   -1.3755    1.6195 H   0  0  0  0  0  0  0  0  0  0  0  0
   -5.0702    2.1017    2.8268 N   0  0  0  0  0  0  0  0  0  0  0  0
   -5.7295    3.0475    3.6966 C   0  0  0  0  0  0  0  0  0  0  0  0
   -5.6230    1.6664    2.0941 H   0  0  0  0  0  0  0  0  0  0  0  0
   -6.1484    2.5178    4.5649 H   0  0  0  0  0  0  0  0  0  0  0  0
   -5.0023    3.7977    4.0408 H   0  0  0  0  0  0  0  0  0  0  0  0
   -6.5401    3.5480    3.1466 H   0  0  0  0  0  0  0  0  0  0  0  0
  1  3  1  0  0  0  0
  1  7  1  0  0  0  0
  1  2  2  0  0  0  0
 33 34  1  0  0  0  0
 34 42  1  0  0  0  0
 34 35  2  0  0  0  0
  8  9  1  0  0  0  0
  9 17  1  0  0  0  0
  9 10  2  0  0  0  0
 18 19  1  0  0  0  0
 19 32  1  0  0  0  0
 19 20  2  0  0  0  0
 22 23  1  0  0  0  0
 23 24  1  0  0  0  0
 23 25  2  0  0  0  0
 33 36  1  0  0  0  0
  8 11  1  0  0  0  0
 42 43  1  0  0  0  0
 21 22  1  0  0  0  0
 18 21  1  0  0  0  0
 32 33  1  0  0  0  0
  7  8  1  0  0  0  0
 17 18  1  0  0  0  0
  3  4  1  0  0  0  0
  3  5  1  0  0  0  0
  3  6  1  0  0  0  0
 36 39  1  0  0  0  0
 36 40  1  0  0  0  0
 36 41  1  0  0  0  0
 11 14  1  0  0  0  0
 11 15  1  0  0  0  0
 11 16  1  0  0  0  0
 43 45  1  0  0  0  0
 43 46  1  0  0  0  0
 43 47  1  0  0  0  0
 22 30  1  0  0  0  0
 22 31  1  0  0  0  0
 21 28  1  0  0  0  0
 21 29  1  0  0  0  0
 33 38  1  0  0  0  0
  8 13  1  0  0  0  0
 18 27  1  0  0  0  0
 42 44  1  0  0  0  0
  7 12  1  0  0  0  0
 32 37  1  0  0  0  0
 17 26  1  0  0  0  0
M  CHG  1  24  -1
M  END
$$$$

  -OEChem-05262214473D

 47 46  0     1  0  0  0  0  0999 V2000
    0.5093   -4.7265    3.0306 C   0  0  0  0  0  0  0  0  0  0  0  0
    1.2735   -4.4402    3.9448 O   0  0  0  0  0  0  0  0  0  0  0  0
   -0.4465   -5.8608    3.1982 C   0  0  0  0  0  0  0  0  0  0  0  0
   -0.0219   -6.8213    2.8645 H   0  0  0  0  0  0  0  0  0  0  0  0
   -0.7314   -6.0185    4.2509 H   0  0  0  0  0  0  0  0  0  0  0  0
   -1.3983   -5.7596    2.6527 H   0  0  0  0  0  0  0  0  0  0  0  0
    0.4252   -4.0886    1.8040 N   0  0  0  0  0  0  0  0  0  0  0  0
    1.2532   -2.9707    1.4349 C   0  0  2  0  0  0  0  0  0  0  0  0
    0.3395   -1.8293    1.0083 C   0  0  0  0  0  0  0  0  0  0  0  0
   -0.8136   -2.0027    0.6194 O   0  0  0  0  0  0  0  0  0  0  0  0
    2.2176   -3.3411    0.3189 C   0  0  0  0  0  0  0  0  0  0  0  0
   -0.2574   -4.4279    1.1287 H   0  0  0  0  0  0  0  0  0  0  0  0
    1.8087   -2.6785    2.3327 H   0  0  0  0  0  0  0  0  0  0  0  0
    1.6793   -3.6366   -0.5890 H   0  0  0  0  0  0  0  0  0  0  0  0
    2.8662   -2.4980    0.0589 H   0  0  0  0  0  0  0  0  0  0  0  0
    2.8538   -4.1816    0.6166 H   0  0  0  0  0  0  0  0  0  0  0  0
    0.9758   -0.5952    1.0708 N   0  0  0  0  0  0  0  0  0  0  0  0
    0.3258    0.6374    0.7059 C   0  0  2  0  0  0  0  0  0  0  0  0
   -1.1730    0.3634    0.6399 C   0  0  0  0  0  0  0  0  0  0  0  0
   -1.6737   -0.4362   -0.1483 O   0  0  0  0  0  0  0  0  0  0  0  0
    0.8295    1.1759   -0.6385 C   0  0  0  0  0  0  0  0  0  0  0  0
    2.2888    1.6285   -0.6050 C   0  0  0  0  0  0  0  0  0  0  0  0
    2.8636    2.1562   -1.9237 C   0  0  0  0  0  0  0  0  0  0  0  0
    2.0933    2.0216   -2.9178 O   0  5  0  0  0  0  0  0  0  0  0  0
    4.0146    2.6701   -1.8668 O   0  0  0  0  0  0  0  0  0  0  0  0
    1.9288   -0.5463    1.4242 H   0  0  0  0  0  0  0  0  0  0  0  0
    0.5186    1.3467    1.5180 H   0  0  0  0  0  0  0  0  0  0  0  0
    0.1967    2.0084   -0.9703 H   0  0  0  0  0  0  0  0  0  0  0  0
    0.7263    0.3951   -1.4038 H   0  0  0  0  0  0  0  0  0  0  0  0
    2.4279    2.3859    0.1756 H   0  0  0  0  0  0  0  0  0  0  0  0
    2.9106    0.7700   -0.3207 H   0  0  0  0  0  0  0  0  0  0  0  0
   -1.8871    1.1510    1.5322 N   0  0  0  0  0  0  0  0  0  0  0  0
   -3.3254    1.0913    1.6524 C   0  0  2  0  0  0  0  0  0  0  0  0
   -3.7915    2.3589    2.3564 C   0  0  0  0  0  0  0  0  0  0  0  0
   -3.0582    3.0359    3.0740 O   0  0  0  0  0  0  0  0  0  0  0  0
   -3.7658   -0.1479    2.4160 C   0  0  0  0  0  0  0  0  0  0  0  0
   -1.3864    1.7754    2.1576 H   0  0  0  0  0  0  0  0  0  0  0  0
   -3.7273    1.0699    0.6336 H   0  0  0  0  0  0  0  0  0  0  0  0
   -3.3727   -0.1441    3.4392 H   0  0  0  0  0  0  0  0  0  0  0  0
   -4.8573   -0.2064    2.4816 H   0  0  0  0  0  0  0  0  0  0  0  0
   -3.4044   -1.0575    1.9244 H   0  0  0  0  0  0  0  0  0  0  0  0
   -5.1343    2.6214    2.1238 N   0  0  0  0  0  0  0  0  0  0  0  0
   -5.8158    3.7609    2.6921 C   0  0  0  0  0  0  0  0  0  0  0  0
   -5.6609    2.0168    1.5002 H   0  0  0  0  0  0  0  0  0  0  0  0
   -6.2824    3.4719    3.6454 H   0  0  0  0  0  0  0  0  0  0  0  0
   -5.0920    4.5702    2.8688 H   0  0  0  0  0  0  0  0  0  0  0  0
   -6.5920    4.1090    1.9948 H   0  0  0  0  0  0  0  0  0  0  0  0
  1  3  1  0  0  0  0
  1  7  1  0  0  0  0
  1  2  2  0  0  0  0
 33 34  1  0  0  0  0
 34 42  1  0  0  0  0
 34 35  2  0  0  0  0
  8  9  1  0  0  0  0
  9 17  1  0  0  0  0
  9 10  2  0  0  0  0
 18 19  1  0  0  0  0
 19 32  1  0  0  0  0
 19 20  2  0  0  0  0
 22 23  1  0  0  0  0
 23 24  1  0  0  0  0
 23 25  2  0  0  0  0
 33 36  1  0  0  0  0
  8 11  1  0  0  0  0
 42 43  1  0  0  0  0
 21 22  1  0  0  0  0
 18 21  1  0  0  0  0
 32 33  1  0  0  0  0
  7  8  1  0  0  0  0
 17 18  1  0  0  0  0
  3  4  1  0  0  0  0
  3  5  1  0  0  0  0
  3  6  1  0  0  0  0
 36 39  1  0  0  0  0
 36 40  1  0  0  0  0
 36 41  1  0  0  0  0
 11 14  1  0  0  0  0
 11 15  1  0  0  0  0
 11 16  1  0  0  0  0
 43 45  1  0  0  0  0
 43 46  1  0  0  0  0
 43 47  1  0  0  0  0
 22 30  1  0  0  0  0
 22 31  1  0  0  0  0
 21 28  1  0  0  0  0
 21 29  1  0  0  0  0
 33 38  1  0  0  0  0
  8 13  1  0  0  0  0
 18 27  1  0  0  0  0
 42 44  1  0  0  0  0
  7 12  1  0  0  0  0
 32 37  1  0  0  0  0
 17 26  1  0  0  0  0
M  CHG  1  24  -1
M  END
$$$$

  -OEChem-05262214473D

 47 46  0     1  0  0  0  0  0999 V2000
    0.5093   -4.7265    3.0306 C   0  0  0  0  0  0  0  0  0  0  0  0
    1.2735   -4.4402    3.9448 O   0  0  0  0  0  0  0  0  0  0  0  0
   -0.4465   -5.8608    3.1982 C   0  0  0  0  0  0  0  0  0  0  0  0
   -0.0219   -6.8213    2.8645 H   0  0  0  0  0  0  0  0  0  0  0  0
   -0.7314   -6.0185    4.2509 H   0  0  0  0  0  0  0  0  0  0  0  0
   -1.3983   -5.7596    2.6527 H   0  0  0  0  0  0  0  0  0  0  0  0
    0.4252   -4.0886    1.8040 N   0  0  0  0  0  0  0  0  0  0  0  0
    1.2532   -2.9707    1.4349 C   0  0  2  0  0  0  0  0  0  0  0  0
    0.3395   -1.8293    1.0083 C   0  0  0  0  0  0  0  0  0  0  0  0
   -0.8136   -2.0027    0.6194 O   0  0  0  0  0  0  0  0  0  0  0  0
    2.2176   -3.3411    0.3189 C   0  0  0  0  0  0  0  0  0  0  0  0
   -0.2574   -4.4279    1.1287 H   0  0  0  0  0  0  0  0  0  0  0  0
    1.8087   -2.6785    2.3327 H   0  0  0  0  0  0  0  0  0  0  0  0
    1.6793   -3.6366   -0.5890 H   0  0  0  0  0  0  0  0  0  0  0  0
    2.8662   -2.4980    0.0589 H   0  0  0  0  0  0  0  0  0  0  0  0
    2.8538   -4.1816    0.6166 H   0  0  0  0  0  0  0  0  0  0  0  0
    0.9758   -0.5952    1.0708 N   0  0  0  0  0  0  0  0  0  0  0  0
    0.3258    0.6374    0.7059 C   0  0  2  0  0  0  0  0  0  0  0  0
   -1.1730    0.3634    0.6399 C   0  0  0  0  0  0  0  0  0  0  0  0
   -1.6513   -0.6079    0.0576 O   0  0  0  0  0  0  0  0  0  0  0  0
    0.8295    1.1759   -0.6385 C   0  0  0  0  0  0  0  0  0  0  0  0
    2.2888    1.6285   -0.6050 C   0  0  0  0  0  0  0  0  0  0  0  0
    2.8636    2.1562   -1.9237 C   0  0  0  0  0  0  0  0  0  0  0  0
    2.0933    2.0216   -2.9178 O   0  5  0  0  0  0  0  0  0  0  0  0
    4.0146    2.6701   -1.8668 O   0  0  0  0  0  0  0  0  0  0  0  0
    1.9288   -0.5463    1.4242 H   0  0  0  0  0  0  0  0  0  0  0  0
    0.5186    1.3467    1.5180 H   0  0  0  0  0  0  0  0  0  0  0  0
    0.1967    2.0084   -0.9703 H   0  0  0  0  0  0  0  0  0  0  0  0
    0.7263    0.3951   -1.4038 H   0  0  0  0  0  0  0  0  0  0  0  0
    2.4279    2.3859    0.1756 H   0  0  0  0  0  0  0  0  0  0  0  0
    2.9106    0.7700   -0.3207 H   0  0  0  0  0  0  0  0  0  0  0  0
   -1.9129    1.3560    1.2674 N   0  0  0  0  0  0  0  0  0  0  0  0
   -3.3560    1.3363    1.3298 C   0  0  2  0  0  0  0  0  0  0  0  0
   -3.8314    2.7437    1.6654 C   0  0  0  0  0  0  0  0  0  0  0  0
   -3.1197    3.5773    2.2218 O   0  0  0  0  0  0  0  0  0  0  0  0
   -3.8516    0.3347    2.3612 C   0  0  0  0  0  0  0  0  0  0  0  0
   -1.4302    2.1164    1.7370 H   0  0  0  0  0  0  0  0  0  0  0  0
   -3.7119    1.0582    0.3318 H   0  0  0  0  0  0  0  0  0  0  0  0
   -3.5050    0.5968    3.3675 H   0  0  0  0  0  0  0  0  0  0  0  0
   -4.9458    0.3003    2.3870 H   0  0  0  0  0  0  0  0  0  0  0  0
   -3.4841   -0.6721    2.1348 H   0  0  0  0  0  0  0  0  0  0  0  0
   -5.1577    2.9452    1.3096 N   0  0  0  0  0  0  0  0  0  0  0  0
   -5.8443    4.1955    1.5364 C   0  0  0  0  0  0  0  0  0  0  0  0
   -5.6660    2.2045    0.8356 H   0  0  0  0  0  0  0  0  0  0  0  0
   -6.3583    4.1611    2.5083 H   0  0  0  0  0  0  0  0  0  0  0  0
   -5.1154    5.0193    1.5362 H   0  0  0  0  0  0  0  0  0  0  0  0
   -6.5823    4.3586    0.7371 H   0  0  0  0  0  0  0  0  0  0  0  0
  1  3  1  0  0  0  0
  1  7  1  0  0  0  0
  1  2  2  0  0  0  0
 33 34  1  0  0  0  0
 34 42  1  0  0  0  0
 34 35  2  0  0  0  0
  8  9  1  0  0  0  0
  9 17  1  0  0  0  0
  9 10  2  0  0  0  0
 18 19  1  0  0  0  0
 19 32  1  0  0  0  0
 19 20  2  0  0  0  0
 22 23  1  0  0  0  0
 23 24  1  0  0  0  0
 23 25  2  0  0  0  0
 33 36  1  0  0  0  0
  8 11  1  0  0  0  0
 42 43  1  0  0  0  0
 21 22  1  0  0  0  0
 18 21  1  0  0  0  0
 32 33  1  0  0  0  0
  7  8  1  0  0  0  0
 17 18  1  0  0  0  0
  3  4  1  0  0  0  0
  3  5  1  0  0  0  0
  3  6  1  0  0  0  0
 36 39  1  0  0  0  0
 36 40  1  0  0  0  0
 36 41  1  0  0  0  0
 11 14  1  0  0  0  0
 11 15  1  0  0  0  0
 11 16  1  0  0  0  0
 43 45  1  0  0  0  0
 43 46  1  0  0  0  0
 43 47  1  0  0  0  0
 22 30  1  0  0  0  0
 22 31  1  0  0  0  0
 21 28  1  0  0  0  0
 21 29  1  0  0  0  0
 33 38  1  0  0  0  0
  8 13  1  0  0  0  0
 18 27  1  0  0  0  0
 42 44  1  0  0  0  0
  7 12  1  0  0  0  0
 32 37  1  0  0  0  0
 17 26  1  0  0  0  0
M  CHG  1  24  -1
M  END
$$$$

  -OEChem-05262214473D

 47 46  0     1  0  0  0  0  0999 V2000
    0.5093   -4.7265    3.0306 C   0  0  0  0  0  0  0  0  0  0  0  0
    1.2735   -4.4402    3.9448 O   0  0  0  0  0  0  0  0  0  0  0  0
   -0.4465   -5.8608    3.1982 C   0  0  0  0  0  0  0  0  0  0  0  0
   -0.0219   -6.8213    2.8645 H   0  0  0  0  0  0  0  0  0  0  0  0
   -0.7314   -6.0185    4.2509 H   0  0  0  0  0  0  0  0  0  0  0  0
   -1.3983   -5.7596    2.6527 H   0  0  0  0  0  0  0  0  0  0  0  0
    0.4252   -4.0886    1.8040 N   0  0  0  0  0  0  0  0  0  0  0  0
    1.2532   -2.9707    1.4349 C   0  0  2  0  0  0  0  0  0  0  0  0
    0.3395   -1.8293    1.0083 C   0  0  0  0  0  0  0  0  0  0  0  0
   -0.8136   -2.0027    0.6194 O   0  0  0  0  0  0  0  0  0  0  0  0
    2.2176   -3.3411    0.3189 C   0  0  0  0  0  0  0  0  0  0  0  0
   -0.2574   -4.4279    1.1287 H   0  0  0  0  0  0  0  0  0  0  0  0
    1.8087   -2.6785    2.3327 H   0  0  0  0  0  0  0  0  0  0  0  0
    1.6793   -3.6366   -0.5890 H   0  0  0  0  0  0  0  0  0  0  0  0
    2.8662   -2.4980    0.0589 H   0  0  0  0  0  0  0  0  0  0  0  0
    2.8538   -4.1816    0.6166 H   0  0  0  0  0  0  0  0  0  0  0  0
    0.9758   -0.5952    1.0708 N   0  0  0  0  0  0  0  0  0  0  0  0
    0.3258    0.6374    0.7059 C   0  0  2  0  0  0  0  0  0  0  0  0
   -1.1730    0.3634    0.6399 C   0  0  0  0  0  0  0  0  0  0  0  0
   -1.6412   -0.7217    0.3013 O   0  0  0  0  0  0  0  0  0  0  0  0
    0.8295    1.1759   -0.6385 C   0  0  0  0  0  0  0  0  0  0  0  0
    2.2888    1.6285   -0.6050 C   0  0  0  0  0  0  0  0  0  0  0  0
    2.8636    2.1562   -1.9237 C   0  0  0  0  0  0  0  0  0  0  0  0
    2.0933    2.0216   -2.9178 O   0  5  0  0  0  0  0  0  0  0  0  0
    4.0146    2.6701   -1.8668 O   0  0  0  0  0  0  0  0  0  0  0  0
    1.9288   -0.5463    1.4242 H   0  0  0  0  0  0  0  0  0  0  0  0
    0.5186    1.3467    1.5180 H   0  0  0  0  0  0  0  0  0  0  0  0
    0.1967    2.0084   -0.9703 H   0  0  0  0  0  0  0  0  0  0  0  0
    0.7263    0.3951   -1.4038 H   0  0  0  0  0  0  0  0  0  0  0  0
    2.4279    2.3859    0.1756 H   0  0  0  0  0  0  0  0  0  0  0  0
    2.9106    0.7700   -0.3207 H   0  0  0  0  0  0  0  0  0  0  0  0
   -1.9232    1.4868    0.9584 N   0  0  0  0  0  0  0  0  0  0  0  0
   -3.3678    1.4912    0.9544 C   0  0  2  0  0  0  0  0  0  0  0  0
   -3.8336    2.9401    0.8983 C   0  0  0  0  0  0  0  0  0  0  0  0
   -3.1333    3.8842    1.2580 O   0  0  0  0  0  0  0  0  0  0  0  0
   -3.9266    0.7877    2.1815 C   0  0  0  0  0  0  0  0  0  0  0  0
   -1.4492    2.3392    1.2419 H   0  0  0  0  0  0  0  0  0  0  0  0
   -3.6831    0.9700    0.0440 H   0  0  0  0  0  0  0  0  0  0  0  0
   -3.6211    1.2956    3.1036 H   0  0  0  0  0  0  0  0  0  0  0  0
   -5.0212    0.7668    2.1627 H   0  0  0  0  0  0  0  0  0  0  0  0
   -3.5666   -0.2453    2.2362 H   0  0  0  0  0  0  0  0  0  0  0  0
   -5.1388    3.0513    0.4398 N   0  0  0  0  0  0  0  0  0  0  0  0
   -5.8133    4.3216    0.3082 C   0  0  0  0  0  0  0  0  0  0  0  0
   -5.6379    2.2169    0.1457 H   0  0  0  0  0  0  0  0  0  0  0  0
   -6.3711    4.5384    1.2311 H   0  0  0  0  0  0  0  0  0  0  0  0
   -5.0711    5.1144    0.1336 H   0  0  0  0  0  0  0  0  0  0  0  0
   -6.5116    4.2796   -0.5408 H   0  0  0  0  0  0  0  0  0  0  0  0
  1  3  1  0  0  0  0
  1  7  1  0  0  0  0
  1  2  2  0  0  0  0
 33 34  1  0  0  0  0
 34 42  1  0  0  0  0
 34 35  2  0  0  0  0
  8  9  1  0  0  0  0
  9 17  1  0  0  0  0
  9 10  2  0  0  0  0
 18 19  1  0  0  0  0
 19 32  1  0  0  0  0
 19 20  2  0  0  0  0
 22 23  1  0  0  0  0
 23 24  1  0  0  0  0
 23 25  2  0  0  0  0
 33 36  1  0  0  0  0
  8 11  1  0  0  0  0
 42 43  1  0  0  0  0
 21 22  1  0  0  0  0
 18 21  1  0  0  0  0
 32 33  1  0  0  0  0
  7  8  1  0  0  0  0
 17 18  1  0  0  0  0
  3  4  1  0  0  0  0
  3  5  1  0  0  0  0
  3  6  1  0  0  0  0
 36 39  1  0  0  0  0
 36 40  1  0  0  0  0
 36 41  1  0  0  0  0
 11 14  1  0  0  0  0
 11 15  1  0  0  0  0
 11 16  1  0  0  0  0
 43 45  1  0  0  0  0
 43 46  1  0  0  0  0
 43 47  1  0  0  0  0
 22 30  1  0  0  0  0
 22 31  1  0  0  0  0
 21 28  1  0  0  0  0
 21 29  1  0  0  0  0
 33 38  1  0  0  0  0
  8 13  1  0  0  0  0
 18 27  1  0  0  0  0
 42 44  1  0  0  0  0
  7 12  1  0  0  0  0
 32 37  1  0  0  0  0
 17 26  1  0  0  0  0
M  CHG  1  24  -1
M  END
$$$$

  -OEChem-05262214473D

 47 46  0     1  0  0  0  0  0999 V2000
    0.5093   -4.7265    3.0306 C   0  0  0  0  0  0  0  0  0  0  0  0
    1.2735   -4.4402    3.9448 O   0  0  0  0  0  0  0  0  0  0  0  0
   -0.4465   -5.8608    3.1982 C   0  0  0  0  0  0  0  0  0  0  0  0
   -0.0219   -6.8213    2.8645 H   0  0  0  0  0  0  0  0  0  0  0  0
   -0.7314   -6.0185    4.2509 H   0  0  0  0  0  0  0  0  0  0  0  0
   -1.3983   -5.7596    2.6527 H   0  0  0  0  0  0  0  0  0  0  0  0
    0.4252   -4.0886    1.8040 N   0  0  0  0  0  0  0  0  0  0  0  0
    1.2532   -2.9707    1.4349 C   0  0  2  0  0  0  0  0  0  0  0  0
    0.3395   -1.8293    1.0083 C   0  0  0  0  0  0  0  0  0  0  0  0
   -0.8136   -2.0027    0.6194 O   0  0  0  0  0  0  0  0  0  0  0  0
    2.2176   -3.3411    0.3189 C   0  0  0  0  0  0  0  0  0  0  0  0
   -0.2574   -4.4279    1.1287 H   0  0  0  0  0  0  0  0  0  0  0  0
    1.8087   -2.6785    2.3327 H   0  0  0  0  0  0  0  0  0  0  0  0
    1.6793   -3.6366   -0.5890 H   0  0  0  0  0  0  0  0  0  0  0  0
    2.8662   -2.4980    0.0589 H   0  0  0  0  0  0  0  0  0  0  0  0
    2.8538   -4.1816    0.6166 H   0  0  0  0  0  0  0  0  0  0  0  0
    0.9758   -0.5952    1.0708 N   0  0  0  0  0  0  0  0  0  0  0  0
    0.3258    0.6374    0.7059 C   0  0  2  0  0  0  0  0  0  0  0  0
   -1.1730    0.3634    0.6399 C   0  0  0  0  0  0  0  0  0  0  0  0
   -1.6441   -0.7697    0.5661 O   0  0  0  0  0  0  0  0  0  0  0  0
    0.8295    1.1759   -0.6385 C   0  0  0  0  0  0  0  0  0  0  0  0
    2.2888    1.6285   -0.6050 C   0  0  0  0  0  0  0  0  0  0  0  0
    2.8636    2.1562   -1.9237 C   0  0  0  0  0  0  0  0  0  0  0  0
    2.0933    2.0216   -2.9178 O   0  5  0  0  0  0  0  0  0  0  0  0
    4.0146    2.6701   -1.8668 O   0  0  0  0  0  0  0  0  0  0  0  0
    1.9288   -0.5463    1.4242 H   0  0  0  0  0  0  0  0  0  0  0  0
    0.5186    1.3467    1.5180 H   0  0  0  0  0  0  0  0  0  0  0  0
    0.1967    2.0084   -0.9703 H   0  0  0  0  0  0  0  0  0  0  0  0
    0.7263    0.3951   -1.4038 H   0  0  0  0  0  0  0  0  0  0  0  0
    2.4279    2.3859    0.1756 H   0  0  0  0  0  0  0  0  0  0  0  0
    2.9106    0.7700   -0.3207 H   0  0  0  0  0  0  0  0  0  0  0  0
   -1.9174    1.5348    0.6261 N   0  0  0  0  0  0  0  0  0  0  0  0
   -3.3600    1.5454    0.5519 C   0  0  2  0  0  0  0  0  0  0  0  0
   -3.7978    2.9347    0.1072 C   0  0  0  0  0  0  0  0  0  0  0  0
   -3.0983    3.9356    0.2483 O   0  0  0  0  0  0  0  0  0  0  0  0
   -3.9855    1.1805    1.8892 C   0  0  0  0  0  0  0  0  0  0  0  0
   -1.4419    2.4288    0.7061 H   0  0  0  0  0  0  0  0  0  0  0  0
   -3.6429    0.8112   -0.2103 H   0  0  0  0  0  0  0  0  0  0  0  0
   -3.7132    1.9049    2.6655 H   0  0  0  0  0  0  0  0  0  0  0  0
   -5.0784    1.1612    1.8239 H   0  0  0  0  0  0  0  0  0  0  0  0
   -3.6462    0.1936    2.2218 H   0  0  0  0  0  0  0  0  0  0  0  0
   -5.0789    2.9322   -0.4266 N   0  0  0  0  0  0  0  0  0  0  0  0
   -5.7249    4.1306   -0.9088 C   0  0  0  0  0  0  0  0  0  0  0  0
   -5.5785    2.0530   -0.5226 H   0  0  0  0  0  0  0  0  0  0  0  0
   -6.3198    4.5782   -0.0991 H   0  0  0  0  0  0  0  0  0  0  0  0
   -4.9620    4.8490   -1.2433 H   0  0  0  0  0  0  0  0  0  0  0  0
   -6.3848    3.8774   -1.7517 H   0  0  0  0  0  0  0  0  0  0  0  0
  1  3  1  0  0  0  0
  1  7  1  0  0  0  0
  1  2  2  0  0  0  0
 33 34  1  0  0  0  0
 34 42  1  0  0  0  0
 34 35  2  0  0  0  0
  8  9  1  0  0  0  0
  9 17  1  0  0  0  0
  9 10  2  0  0  0  0
 18 19  1  0  0  0  0
 19 32  1  0  0  0  0
 19 20  2  0  0  0  0
 22 23  1  0  0  0  0
 23 24  1  0  0  0  0
 23 25  2  0  0  0  0
 33 36  1  0  0  0  0
  8 11  1  0  0  0  0
 42 43  1  0  0  0  0
 21 22  1  0  0  0  0
 18 21  1  0  0  0  0
 32 33  1  0  0  0  0
  7  8  1  0  0  0  0
 17 18  1  0  0  0  0
  3  4  1  0  0  0  0
  3  5  1  0  0  0  0
  3  6  1  0  0  0  0
 36 39  1  0  0  0  0
 36 40  1  0  0  0  0
 36 41  1  0  0  0  0
 11 14  1  0  0  0  0
 11 15  1  0  0  0  0
 11 16  1  0  0  0  0
 43 45  1  0  0  0  0
 43 46  1  0  0  0  0
 43 47  1  0  0  0  0
 22 30  1  0  0  0  0
 22 31  1  0  0  0  0
 21 28  1  0  0  0  0
 21 29  1  0  0  0  0
 33 38  1  0  0  0  0
  8 13  1  0  0  0  0
 18 27  1  0  0  0  0
 42 44  1  0  0  0  0
  7 12  1  0  0  0  0
 32 37  1  0  0  0  0
 17 26  1  0  0  0  0
M  CHG  1  24  -1
M  END
$$$$

  -OEChem-05262214473D

 47 46  0     1  0  0  0  0  0999 V2000
    0.5093   -4.7265    3.0306 C   0  0  0  0  0  0  0  0  0  0  0  0
    1.2735   -4.4402    3.9448 O   0  0  0  0  0  0  0  0  0  0  0  0
   -0.4465   -5.8608    3.1982 C   0  0  0  0  0  0  0  0  0  0  0  0
   -0.0219   -6.8213    2.8645 H   0  0  0  0  0  0  0  0  0  0  0  0
   -0.7314   -6.0185    4.2509 H   0  0  0  0  0  0  0  0  0  0  0  0
   -1.3983   -5.7596    2.6527 H   0  0  0  0  0  0  0  0  0  0  0  0
    0.4252   -4.0886    1.8040 N   0  0  0  0  0  0  0  0  0  0  0  0
    1.2532   -2.9707    1.4349 C   0  0  2  0  0  0  0  0  0  0  0  0
    0.3395   -1.8293    1.0083 C   0  0  0  0  0  0  0  0  0  0  0  0
   -0.8136   -2.0027    0.6194 O   0  0  0  0  0  0  0  0  0  0  0  0
    2.2176   -3.3411    0.3189 C   0  0  0  0  0  0  0  0  0  0  0  0
   -0.2574   -4.4279    1.1287 H   0  0  0  0  0  0  0  0  0  0  0  0
    1.8087   -2.6785    2.3327 H   0  0  0  0  0  0  0  0  0  0  0  0
    1.6793   -3.6366   -0.5890 H   0  0  0  0  0  0  0  0  0  0  0  0
    2.8662   -2.4980    0.0589 H   0  0  0  0  0  0  0  0  0  0  0  0
    2.8538   -4.1816    0.6166 H   0  0  0  0  0  0  0  0  0  0  0  0
    0.9758   -0.5952    1.0708 N   0  0  0  0  0  0  0  0  0  0  0  0
    0.3258    0.6374    0.7059 C   0  0  2  0  0  0  0  0  0  0  0  0
   -1.1616    0.4766    1.0022 C   0  0  0  0  0  0  0  0  0  0  0  0
   -1.6497   -0.5657    1.4339 O   0  0  0  0  0  0  0  0  0  0  0  0
    0.5411    0.9843   -0.7721 C   0  0  0  0  0  0  0  0  0  0  0  0
    1.9920    1.3214   -1.1134 C   0  0  0  0  0  0  0  0  0  0  0  0
    2.2817    1.6548   -2.5806 C   0  0  0  0  0  0  0  0  0  0  0  0
    1.3013    1.4734   -3.3587 O   0  5  0  0  0  0  0  0  0  0  0  0
    3.4413    2.0797   -2.8397 O   0  0  0  0  0  0  0  0  0  0  0  0
    1.9288   -0.5463    1.4242 H   0  0  0  0  0  0  0  0  0  0  0  0
    0.7336    1.4139    1.3621 H   0  0  0  0  0  0  0  0  0  0  0  0
   -0.1057    1.8227   -1.0590 H   0  0  0  0  0  0  0  0  0  0  0  0
    0.2272    0.1349   -1.3936 H   0  0  0  0  0  0  0  0  0  0  0  0
    2.3430    2.1464   -0.4820 H   0  0  0  0  0  0  0  0  0  0  0  0
    2.6161    0.4530   -0.8668 H   0  0  0  0  0  0  0  0  0  0  0  0
   -1.8834    1.6184    0.6830 N   0  0  0  0  0  0  0  0  0  0  0  0
   -3.3142    1.7147    0.8569 C   0  0  2  0  0  0  0  0  0  0  0  0
   -3.8134    2.8790    0.0114 C   0  0  0  0  0  0  0  0  0  0  0  0
   -3.0897    3.8050   -0.3489 O   0  0  0  0  0  0  0  0  0  0  0  0
   -3.6820    1.9083    2.3198 C   0  0  0  0  0  0  0  0  0  0  0  0
   -1.3924    2.4405    0.3445 H   0  0  0  0  0  0  0  0  0  0  0  0
   -3.7423    0.7793    0.4804 H   0  0  0  0  0  0  0  0  0  0  0  0
   -3.2619    2.8406    2.7146 H   0  0  0  0  0  0  0  0  0  0  0  0
   -4.7679    1.9526    2.4534 H   0  0  0  0  0  0  0  0  0  0  0  0
   -3.2965    1.0850    2.9308 H   0  0  0  0  0  0  0  0  0  0  0  0
   -5.1717    2.7843   -0.2571 N   0  0  0  0  0  0  0  0  0  0  0  0
   -5.8843    3.7740   -1.0307 C   0  0  0  0  0  0  0  0  0  0  0  0
   -5.6894    1.9720    0.0655 H   0  0  0  0  0  0  0  0  0  0  0  0
   -6.3126    4.5294   -0.3554 H   0  0  0  0  0  0  0  0  0  0  0  0
   -5.1903    4.2606   -1.7318 H   0  0  0  0  0  0  0  0  0  0  0  0
   -6.6929    3.2859   -1.5946 H   0  0  0  0  0  0  0  0  0  0  0  0
  1  3  1  0  0  0  0
  1  7  1  0  0  0  0
  1  2  2  0  0  0  0
 33 34  1  0  0  0  0
 34 42  1  0  0  0  0
 34 35  2  0  0  0  0
  8  9  1  0  0  0  0
  9 17  1  0  0  0  0
  9 10  2  0  0  0  0
 18 19  1  0  0  0  0
 19 32  1  0  0  0  0
 19 20  2  0  0  0  0
 22 23  1  0  0  0  0
 23 24  1  0  0  0  0
 23 25  2  0  0  0  0
 33 36  1  0  0  0  0
  8 11  1  0  0  0  0
 42 43  1  0  0  0  0
 21 22  1  0  0  0  0
 18 21  1  0  0  0  0
 32 33  1  0  0  0  0
  7  8  1  0  0  0  0
 17 18  1  0  0  0  0
  3  4  1  0  0  0  0
  3  5  1  0  0  0  0
  3  6  1  0  0  0  0
 36 39  1  0  0  0  0
 36 40  1  0  0  0  0
 36 41  1  0  0  0  0
 11 14  1  0  0  0  0
 11 15  1  0  0  0  0
 11 16  1  0  0  0  0
 43 45  1  0  0  0  0
 43 46  1  0  0  0  0
 43 47  1  0  0  0  0
 22 30  1  0  0  0  0
 22 31  1  0  0  0  0
 21 28  1  0  0  0  0
 21 29  1  0  0  0  0
 33 38  1  0  0  0  0
  8 13  1  0  0  0  0
 18 27  1  0  0  0  0
 42 44  1  0  0  0  0
  7 12  1  0  0  0  0
 32 37  1  0  0  0  0
 17 26  1  0  0  0  0
M  CHG  1  24  -1
M  END
$$$$

  -OEChem-05262214473D

 47 46  0     1  0  0  0  0  0999 V2000
    0.5093   -4.7265    3.0306 C   0  0  0  0  0  0  0  0  0  0  0  0
    1.2735   -4.4402    3.9448 O   0  0  0  0  0  0  0  0  0  0  0  0
   -0.4465   -5.8608    3.1982 C   0  0  0  0  0  0  0  0  0  0  0  0
   -0.0219   -6.8213    2.8645 H   0  0  0  0  0  0  0  0  0  0  0  0
   -0.7314   -6.0185    4.2509 H   0  0  0  0  0  0  0  0  0  0  0  0
   -1.3983   -5.7596    2.6527 H   0  0  0  0  0  0  0  0  0  0  0  0
    0.4252   -4.0886    1.8040 N   0  0  0  0  0  0  0  0  0  0  0  0
    1.2532   -2.9707    1.4349 C   0  0  2  0  0  0  0  0  0  0  0  0
    0.3395   -1.8293    1.0083 C   0  0  0  0  0  0  0  0  0  0  0  0
   -0.8136   -2.0027    0.6194 O   0  0  0  0  0  0  0  0  0  0  0  0
    2.2176   -3.3411    0.3189 C   0  0  0  0  0  0  0  0  0  0  0  0
   -0.2574   -4.4279    1.1287 H   0  0  0  0  0  0  0  0  0  0  0  0
    1.8087   -2.6785    2.3327 H   0  0  0  0  0  0  0  0  0  0  0  0
    1.6793   -3.6366   -0.5890 H   0  0  0  0  0  0  0  0  0  0  0  0
    2.8662   -2.4980    0.0589 H   0  0  0  0  0  0  0  0  0  0  0  0
    2.8538   -4.1816    0.6166 H   0  0  0  0  0  0  0  0  0  0  0  0
    0.9758   -0.5952    1.0708 N   0  0  0  0  0  0  0  0  0  0  0  0
    0.3258    0.6374    0.7059 C   0  0  2  0  0  0  0  0  0  0  0  0
   -1.1616    0.4766    1.0022 C   0  0  0  0  0  0  0  0  0  0  0  0
   -1.6147   -0.4482    1.6735 O   0  0  0  0  0  0  0  0  0  0  0  0
    0.5411    0.9843   -0.7721 C   0  0  0  0  0  0  0  0  0  0  0  0
    1.9920    1.3214   -1.1134 C   0  0  0  0  0  0  0  0  0  0  0  0
    2.2817    1.6548   -2.5806 C   0  0  0  0  0  0  0  0  0  0  0  0
    1.3013    1.4734   -3.3587 O   0  5  0  0  0  0  0  0  0  0  0  0
    3.4413    2.0797   -2.8397 O   0  0  0  0  0  0  0  0  0  0  0  0
    1.9288   -0.5463    1.4242 H   0  0  0  0  0  0  0  0  0  0  0  0
    0.7336    1.4139    1.3621 H   0  0  0  0  0  0  0  0  0  0  0  0
   -0.1057    1.8227   -1.0590 H   0  0  0  0  0  0  0  0  0  0  0  0
    0.2272    0.1349   -1.3936 H   0  0  0  0  0  0  0  0  0  0  0  0
    2.3430    2.1464   -0.4820 H   0  0  0  0  0  0  0  0  0  0  0  0
    2.6161    0.4530   -0.8668 H   0  0  0  0  0  0  0  0  0  0  0  0
   -1.9248    1.4607    0.3895 N   0  0  0  0  0  0  0  0  0  0  0  0
   -3.3636    1.5207    0.5035 C   0  0  2  0  0  0  0  0  0  0  0  0
   -3.8879    2.4060   -0.6194 C   0  0  0  0  0  0  0  0  0  0  0  0
   -3.1966    3.2491   -1.1872 O   0  0  0  0  0  0  0  0  0  0  0  0
   -3.7892    2.0562    1.8617 C   0  0  0  0  0  0  0  0  0  0  0  0
   -1.4616    2.1964   -0.1358 H   0  0  0  0  0  0  0  0  0  0  0  0
   -3.7345    0.4990    0.3672 H   0  0  0  0  0  0  0  0  0  0  0  0
   -3.4267    3.0790    2.0164 H   0  0  0  0  0  0  0  0  0  0  0  0
   -4.8799    2.0742    1.9571 H   0  0  0  0  0  0  0  0  0  0  0  0
   -3.3865    1.4352    2.6691 H   0  0  0  0  0  0  0  0  0  0  0  0
   -5.2305    2.1739   -0.8834 N   0  0  0  0  0  0  0  0  0  0  0  0
   -5.9621    2.8972   -1.8970 C   0  0  0  0  0  0  0  0  0  0  0  0
   -5.7202    1.4424   -0.3766 H   0  0  0  0  0  0  0  0  0  0  0  0
   -6.4478    3.7741   -1.4440 H   0  0  0  0  0  0  0  0  0  0  0  0
   -5.2684    3.2282   -2.6838 H   0  0  0  0  0  0  0  0  0  0  0  0
   -6.7275    2.2401   -2.3357 H   0  0  0  0  0  0  0  0  0  0  0  0
  1  3  1  0  0  0  0
  1  7  1  0  0  0  0
  1  2  2  0  0  0  0
 33 34  1  0  0  0  0
 34 42  1  0  0  0  0
 34 35  2  0  0  0  0
  8  9  1  0  0  0  0
  9 17  1  0  0  0  0
  9 10  2  0  0  0  0
 18 19  1  0  0  0  0
 19 32  1  0  0  0  0
 19 20  2  0  0  0  0
 22 23  1  0  0  0  0
 23 24  1  0  0  0  0
 23 25  2  0  0  0  0
 33 36  1  0  0  0  0
  8 11  1  0  0  0  0
 42 43  1  0  0  0  0
 21 22  1  0  0  0  0
 18 21  1  0  0  0  0
 32 33  1  0  0  0  0
  7  8  1  0  0  0  0
 17 18  1  0  0  0  0
  3  4  1  0  0  0  0
  3  5  1  0  0  0  0
  3  6  1  0  0  0  0
 36 39  1  0  0  0  0
 36 40  1  0  0  0  0
 36 41  1  0  0  0  0
 11 14  1  0  0  0  0
 11 15  1  0  0  0  0
 11 16  1  0  0  0  0
 43 45  1  0  0  0  0
 43 46  1  0  0  0  0
 43 47  1  0  0  0  0
 22 30  1  0  0  0  0
 22 31  1  0  0  0  0
 21 28  1  0  0  0  0
 21 29  1  0  0  0  0
 33 38  1  0  0  0  0
  8 13  1  0  0  0  0
 18 27  1  0  0  0  0
 42 44  1  0  0  0  0
  7 12  1  0  0  0  0
 32 37  1  0  0  0  0
 17 26  1  0  0  0  0
M  CHG  1  24  -1
M  END
$$$$

  -OEChem-05262214473D

 47 46  0     1  0  0  0  0  0999 V2000
    0.5093   -4.7265    3.0306 C   0  0  0  0  0  0  0  0  0  0  0  0
    1.2735   -4.4402    3.9448 O   0  0  0  0  0  0  0  0  0  0  0  0
   -0.4465   -5.8608    3.1982 C   0  0  0  0  0  0  0  0  0  0  0  0
   -0.0219   -6.8213    2.8645 H   0  0  0  0  0  0  0  0  0  0  0  0
   -0.7314   -6.0185    4.2509 H   0  0  0  0  0  0  0  0  0  0  0  0
   -1.3983   -5.7596    2.6527 H   0  0  0  0  0  0  0  0  0  0  0  0
    0.4252   -4.0886    1.8040 N   0  0  0  0  0  0  0  0  0  0  0  0
    1.2532   -2.9707    1.4349 C   0  0  2  0  0  0  0  0  0  0  0  0
    0.3395   -1.8293    1.0083 C   0  0  0  0  0  0  0  0  0  0  0  0
   -0.8136   -2.0027    0.6194 O   0  0  0  0  0  0  0  0  0  0  0  0
    2.2176   -3.3411    0.3189 C   0  0  0  0  0  0  0  0  0  0  0  0
   -0.2574   -4.4279    1.1287 H   0  0  0  0  0  0  0  0  0  0  0  0
    1.8087   -2.6785    2.3327 H   0  0  0  0  0  0  0  0  0  0  0  0
    1.6793   -3.6366   -0.5890 H   0  0  0  0  0  0  0  0  0  0  0  0
    2.8662   -2.4980    0.0589 H   0  0  0  0  0  0  0  0  0  0  0  0
    2.8538   -4.1816    0.6166 H   0  0  0  0  0  0  0  0  0  0  0  0
    0.9758   -0.5952    1.0708 N   0  0  0  0  0  0  0  0  0  0  0  0
    0.3258    0.6374    0.7059 C   0  0  2  0  0  0  0  0  0  0  0  0
   -1.1616    0.4766    1.0022 C   0  0  0  0  0  0  0  0  0  0  0  0
   -1.5933   -0.2724    1.8761 O   0  0  0  0  0  0  0  0  0  0  0  0
    0.5411    0.9843   -0.7721 C   0  0  0  0  0  0  0  0  0  0  0  0
    1.9920    1.3214   -1.1134 C   0  0  0  0  0  0  0  0  0  0  0  0
    2.2817    1.6548   -2.5806 C   0  0  0  0  0  0  0  0  0  0  0  0
    1.3013    1.4734   -3.3587 O   0  5  0  0  0  0  0  0  0  0  0  0
    3.4413    2.0797   -2.8397 O   0  0  0  0  0  0  0  0  0  0  0  0
    1.9288   -0.5463    1.4242 H   0  0  0  0  0  0  0  0  0  0  0  0
    0.7336    1.4139    1.3621 H   0  0  0  0  0  0  0  0  0  0  0  0
   -0.1057    1.8227   -1.0590 H   0  0  0  0  0  0  0  0  0  0  0  0
    0.2272    0.1349   -1.3936 H   0  0  0  0  0  0  0  0  0  0  0  0
    2.3430    2.1464   -0.4820 H   0  0  0  0  0  0  0  0  0  0  0  0
    2.6161    0.4530   -0.8668 H   0  0  0  0  0  0  0  0  0  0  0  0
   -1.9489    1.2323    0.1446 N   0  0  0  0  0  0  0  0  0  0  0  0
   -3.3920    1.2415    0.2097 C   0  0  2  0  0  0  0  0  0  0  0  0
   -3.9189    1.7862   -1.1113 C   0  0  0  0  0  0  0  0  0  0  0  0
   -3.2491    2.4951   -1.8595 O   0  0  0  0  0  0  0  0  0  0  0  0
   -3.8877    2.0780    1.3790 C   0  0  0  0  0  0  0  0  0  0  0  0
   -1.5032    1.8359   -0.5401 H   0  0  0  0  0  0  0  0  0  0  0  0
   -3.7099    0.2000    0.3288 H   0  0  0  0  0  0  0  0  0  0  0  0
   -3.5789    3.1248    1.2773 H   0  0  0  0  0  0  0  0  0  0  0  0
   -4.9807    2.0607    1.4440 H   0  0  0  0  0  0  0  0  0  0  0  0
   -3.4838    1.7029    2.3255 H   0  0  0  0  0  0  0  0  0  0  0  0
   -5.2395    1.4233   -1.3359 N   0  0  0  0  0  0  0  0  0  0  0  0
   -5.9696    1.8277   -2.5146 C   0  0  0  0  0  0  0  0  0  0  0  0
   -5.7113    0.8176   -0.6708 H   0  0  0  0  0  0  0  0  0  0  0  0
   -6.5108    2.7629   -2.3084 H   0  0  0  0  0  0  0  0  0  0  0  0
   -5.2659    1.9868   -3.3450 H   0  0  0  0  0  0  0  0  0  0  0  0
   -6.6882    1.0412   -2.7885 H   0  0  0  0  0  0  0  0  0  0  0  0
  1  3  1  0  0  0  0
  1  7  1  0  0  0  0
  1  2  2  0  0  0  0
 33 34  1  0  0  0  0
 34 42  1  0  0  0  0
 34 35  2  0  0  0  0
  8  9  1  0  0  0  0
  9 17  1  0  0  0  0
  9 10  2  0  0  0  0
 18 19  1  0  0  0  0
 19 32  1  0  0  0  0
 19 20  2  0  0  0  0
 22 23  1  0  0  0  0
 23 24  1  0  0  0  0
 23 25  2  0  0  0  0
 33 36  1  0  0  0  0
  8 11  1  0  0  0  0
 42 43  1  0  0  0  0
 21 22  1  0  0  0  0
 18 21  1  0  0  0  0
 32 33  1  0  0  0  0
  7  8  1  0  0  0  0
 17 18  1  0  0  0  0
  3  4  1  0  0  0  0
  3  5  1  0  0  0  0
  3  6  1  0  0  0  0
 36 39  1  0  0  0  0
 36 40  1  0  0  0  0
 36 41  1  0  0  0  0
 11 14  1  0  0  0  0
 11 15  1  0  0  0  0
 11 16  1  0  0  0  0
 43 45  1  0  0  0  0
 43 46  1  0  0  0  0
 43 47  1  0  0  0  0
 22 30  1  0  0  0  0
 22 31  1  0  0  0  0
 21 28  1  0  0  0  0
 21 29  1  0  0  0  0
 33 38  1  0  0  0  0
  8 13  1  0  0  0  0
 18 27  1  0  0  0  0
 42 44  1  0  0  0  0
  7 12  1  0  0  0  0
 32 37  1  0  0  0  0
 17 26  1  0  0  0  0
M  CHG  1  24  -1
M  END
$$$$

  -OEChem-05262214473D

 47 46  0     1  0  0  0  0  0999 V2000
    0.5093   -4.7265    3.0306 C   0  0  0  0  0  0  0  0  0  0  0  0
    1.2735   -4.4402    3.9448 O   0  0  0  0  0  0  0  0  0  0  0  0
   -0.4465   -5.8608    3.1982 C   0  0  0  0  0  0  0  0  0  0  0  0
   -0.0219   -6.8213    2.8645 H   0  0  0  0  0  0  0  0  0  0  0  0
   -0.7314   -6.0185    4.2509 H   0  0  0  0  0  0  0  0  0  0  0  0
   -1.3983   -5.7596    2.6527 H   0  0  0  0  0  0  0  0  0  0  0  0
    0.4252   -4.0886    1.8040 N   0  0  0  0  0  0  0  0  0  0  0  0
    1.2532   -2.9707    1.4349 C   0  0  2  0  0  0  0  0  0  0  0  0
    0.3395   -1.8293    1.0083 C   0  0  0  0  0  0  0  0  0  0  0  0
   -0.8136   -2.0027    0.6194 O   0  0  0  0  0  0  0  0  0  0  0  0
    2.2176   -3.3411    0.3189 C   0  0  0  0  0  0  0  0  0  0  0  0
   -0.2574   -4.4279    1.1287 H   0  0  0  0  0  0  0  0  0  0  0  0
    1.8087   -2.6785    2.3327 H   0  0  0  0  0  0  0  0  0  0  0  0
    1.6793   -3.6366   -0.5890 H   0  0  0  0  0  0  0  0  0  0  0  0
    2.8662   -2.4980    0.0589 H   0  0  0  0  0  0  0  0  0  0  0  0
    2.8538   -4.1816    0.6166 H   0  0  0  0  0  0  0  0  0  0  0  0
    0.9758   -0.5952    1.0708 N   0  0  0  0  0  0  0  0  0  0  0  0
    0.3258    0.6374    0.7059 C   0  0  2  0  0  0  0  0  0  0  0  0
   -1.1616    0.4766    1.0022 C   0  0  0  0  0  0  0  0  0  0  0  0
   -1.5870   -0.0504    2.0281 O   0  0  0  0  0  0  0  0  0  0  0  0
    0.5411    0.9843   -0.7721 C   0  0  0  0  0  0  0  0  0  0  0  0
    1.9920    1.3214   -1.1134 C   0  0  0  0  0  0  0  0  0  0  0  0
    2.2817    1.6548   -2.5806 C   0  0  0  0  0  0  0  0  0  0  0  0
    1.3013    1.4734   -3.3587 O   0  5  0  0  0  0  0  0  0  0  0  0
    3.4413    2.0797   -2.8397 O   0  0  0  0  0  0  0  0  0  0  0  0
    1.9288   -0.5463    1.4242 H   0  0  0  0  0  0  0  0  0  0  0  0
    0.7336    1.4139    1.3621 H   0  0  0  0  0  0  0  0  0  0  0  0
   -0.1057    1.8227   -1.0590 H   0  0  0  0  0  0  0  0  0  0  0  0
    0.2272    0.1349   -1.3936 H   0  0  0  0  0  0  0  0  0  0  0  0
    2.3430    2.1464   -0.4820 H   0  0  0  0  0  0  0  0  0  0  0  0
    2.6161    0.4530   -0.8668 H   0  0  0  0  0  0  0  0  0  0  0  0
   -1.9540    0.9486   -0.0350 N   0  0  0  0  0  0  0  0  0  0  0  0
   -3.3973    0.8964   -0.0043 C   0  0  2  0  0  0  0  0  0  0  0  0
   -3.9043    1.0618   -1.4309 C   0  0  0  0  0  0  0  0  0  0  0  0
   -3.2435    1.5945   -2.3201 O   0  0  0  0  0  0  0  0  0  0  0  0
   -3.9708    1.9723    0.9046 C   0  0  0  0  0  0  0  0  0  0  0  0
   -1.5142    1.3835   -0.8406 H   0  0  0  0  0  0  0  0  0  0  0  0
   -3.6700   -0.0972    0.3678 H   0  0  0  0  0  0  0  0  0  0  0  0
   -3.7080    2.9748    0.5476 H   0  0  0  0  0  0  0  0  0  0  0  0
   -5.0633    1.9132    0.9491 H   0  0  0  0  0  0  0  0  0  0  0  0
   -3.5820    1.8698    1.9234 H   0  0  0  0  0  0  0  0  0  0  0  0
   -5.1981    0.5835   -1.5837 N   0  0  0  0  0  0  0  0  0  0  0  0
   -5.9062    0.6383   -2.8414 C   0  0  0  0  0  0  0  0  0  0  0  0
   -5.6632    0.1403   -0.7969 H   0  0  0  0  0  0  0  0  0  0  0  0
   -6.4971    1.5648   -2.8900 H   0  0  0  0  0  0  0  0  0  0  0  0
   -5.1831    0.6209   -3.6701 H   0  0  0  0  0  0  0  0  0  0  0  0
   -6.5775   -0.2293   -2.9222 H   0  0  0  0  0  0  0  0  0  0  0  0
  1  3  1  0  0  0  0
  1  7  1  0  0  0  0
  1  2  2  0  0  0  0
 33 34  1  0  0  0  0
 34 42  1  0  0  0  0
 34 35  2  0  0  0  0
  8  9  1  0  0  0  0
  9 17  1  0  0  0  0
  9 10  2  0  0  0  0
 18 19  1  0  0  0  0
 19 32  1  0  0  0  0
 19 20  2  0  0  0  0
 22 23  1  0  0  0  0
 23 24  1  0  0  0  0
 23 25  2  0  0  0  0
 33 36  1  0  0  0  0
  8 11  1  0  0  0  0
 42 43  1  0  0  0  0
 21 22  1  0  0  0  0
 18 21  1  0  0  0  0
 32 33  1  0  0  0  0
  7  8  1  0  0  0  0
 17 18  1  0  0  0  0
  3  4  1  0  0  0  0
  3  5  1  0  0  0  0
  3  6  1  0  0  0  0
 36 39  1  0  0  0  0
 36 40  1  0  0  0  0
 36 41  1  0  0  0  0
 11 14  1  0  0  0  0
 11 15  1  0  0  0  0
 11 16  1  0  0  0  0
 43 45  1  0  0  0  0
 43 46  1  0  0  0  0
 43 47  1  0  0  0  0
 22 30  1  0  0  0  0
 22 31  1  0  0  0  0
 21 28  1  0  0  0  0
 21 29  1  0  0  0  0
 33 38  1  0  0  0  0
  8 13  1  0  0  0  0
 18 27  1  0  0  0  0
 42 44  1  0  0  0  0
  7 12  1  0  0  0  0
 32 37  1  0  0  0  0
 17 26  1  0  0  0  0
M  CHG  1  24  -1
M  END
$$$$

  -OEChem-05262214473D

 47 46  0     1  0  0  0  0  0999 V2000
    0.5093   -4.7265    3.0306 C   0  0  0  0  0  0  0  0  0  0  0  0
    1.2735   -4.4402    3.9448 O   0  0  0  0  0  0  0  0  0  0  0  0
   -0.4465   -5.8608    3.1982 C   0  0  0  0  0  0  0  0  0  0  0  0
   -0.0219   -6.8213    2.8645 H   0  0  0  0  0  0  0  0  0  0  0  0
   -0.7314   -6.0185    4.2509 H   0  0  0  0  0  0  0  0  0  0  0  0
   -1.3983   -5.7596    2.6527 H   0  0  0  0  0  0  0  0  0  0  0  0
    0.4252   -4.0886    1.8040 N   0  0  0  0  0  0  0  0  0  0  0  0
    1.2532   -2.9707    1.4349 C   0  0  2  0  0  0  0  0  0  0  0  0
    0.3395   -1.8293    1.0083 C   0  0  0  0  0  0  0  0  0  0  0  0
   -0.8136   -2.0027    0.6194 O   0  0  0  0  0  0  0  0  0  0  0  0
    2.2176   -3.3411    0.3189 C   0  0  0  0  0  0  0  0  0  0  0  0
   -0.2574   -4.4279    1.1287 H   0  0  0  0  0  0  0  0  0  0  0  0
    1.8087   -2.6785    2.3327 H   0  0  0  0  0  0  0  0  0  0  0  0
    1.6793   -3.6366   -0.5890 H   0  0  0  0  0  0  0  0  0  0  0  0
    2.8662   -2.4980    0.0589 H   0  0  0  0  0  0  0  0  0  0  0  0
    2.8538   -4.1816    0.6166 H   0  0  0  0  0  0  0  0  0  0  0  0
    0.9758   -0.5952    1.0708 N   0  0  0  0  0  0  0  0  0  0  0  0
    0.3258    0.6374    0.7059 C   0  0  2  0  0  0  0  0  0  0  0  0
   -1.1616    0.4766    1.0022 C   0  0  0  0  0  0  0  0  0  0  0  0
   -1.5963    0.2027    2.1190 O   0  0  0  0  0  0  0  0  0  0  0  0
    0.5411    0.9843   -0.7721 C   0  0  0  0  0  0  0  0  0  0  0  0
    1.9920    1.3214   -1.1134 C   0  0  0  0  0  0  0  0  0  0  0  0
    2.2817    1.6548   -2.5806 C   0  0  0  0  0  0  0  0  0  0  0  0
    1.3013    1.4734   -3.3587 O   0  5  0  0  0  0  0  0  0  0  0  0
    3.4413    2.0797   -2.8397 O   0  0  0  0  0  0  0  0  0  0  0  0
    1.9288   -0.5463    1.4242 H   0  0  0  0  0  0  0  0  0  0  0  0
    0.7336    1.4139    1.3621 H   0  0  0  0  0  0  0  0  0  0  0  0
   -0.1057    1.8227   -1.0590 H   0  0  0  0  0  0  0  0  0  0  0  0
    0.2272    0.1349   -1.3936 H   0  0  0  0  0  0  0  0  0  0  0  0
    2.3430    2.1464   -0.4820 H   0  0  0  0  0  0  0  0  0  0  0  0
    2.6161    0.4530   -0.8668 H   0  0  0  0  0  0  0  0  0  0  0  0
   -1.9398    0.6290   -0.1369 N   0  0  0  0  0  0  0  0  0  0  0  0
   -3.3793    0.5086   -0.1241 C   0  0  2  0  0  0  0  0  0  0  0  0
   -3.8450    0.2821   -1.5563 C   0  0  0  0  0  0  0  0  0  0  0  0
   -3.1802    0.6086   -2.5374 O   0  0  0  0  0  0  0  0  0  0  0  0
   -4.0328    1.7463    0.4707 C   0  0  0  0  0  0  0  0  0  0  0  0
   -1.4939    0.8701   -1.0171 H   0  0  0  0  0  0  0  0  0  0  0  0
   -3.6176   -0.3725    0.4817 H   0  0  0  0  0  0  0  0  0  0  0  0
   -3.8053    2.6393   -0.1228 H   0  0  0  0  0  0  0  0  0  0  0  0
   -5.1222    1.6416    0.5059 H   0  0  0  0  0  0  0  0  0  0  0  0
   -3.6742    1.9246    1.4902 H   0  0  0  0  0  0  0  0  0  0  0  0
   -5.1092   -0.2881   -1.6100 N   0  0  0  0  0  0  0  0  0  0  0  0
   -5.7762   -0.5898   -2.8551 C   0  0  0  0  0  0  0  0  0  0  0  0
   -5.5793   -0.5433   -0.7465 H   0  0  0  0  0  0  0  0  0  0  0  0
   -6.4079    0.2615   -3.1489 H   0  0  0  0  0  0  0  0  0  0  0  0
   -5.0255   -0.7763   -3.6372 H   0  0  0  0  0  0  0  0  0  0  0  0
   -6.4031   -1.4846   -2.7276 H   0  0  0  0  0  0  0  0  0  0  0  0
  1  3  1  0  0  0  0
  1  7  1  0  0  0  0
  1  2  2  0  0  0  0
 33 34  1  0  0  0  0
 34 42  1  0  0  0  0
 34 35  2  0  0  0  0
  8  9  1  0  0  0  0
  9 17  1  0  0  0  0
  9 10  2  0  0  0  0
 18 19  1  0  0  0  0
 19 32  1  0  0  0  0
 19 20  2  0  0  0  0
 22 23  1  0  0  0  0
 23 24  1  0  0  0  0
 23 25  2  0  0  0  0
 33 36  1  0  0  0  0
  8 11  1  0  0  0  0
 42 43  1  0  0  0  0
 21 22  1  0  0  0  0
 18 21  1  0  0  0  0
 32 33  1  0  0  0  0
  7  8  1  0  0  0  0
 17 18  1  0  0  0  0
  3  4  1  0  0  0  0
  3  5  1  0  0  0  0
  3  6  1  0  0  0  0
 36 39  1  0  0  0  0
 36 40  1  0  0  0  0
 36 41  1  0  0  0  0
 11 14  1  0  0  0  0
 11 15  1  0  0  0  0
 11 16  1  0  0  0  0
 43 45  1  0  0  0  0
 43 46  1  0  0  0  0
 43 47  1  0  0  0  0
 22 30  1  0  0  0  0
 22 31  1  0  0  0  0
 21 28  1  0  0  0  0
 21 29  1  0  0  0  0
 33 38  1  0  0  0  0
  8 13  1  0  0  0  0
 18 27  1  0  0  0  0
 42 44  1  0  0  0  0
  7 12  1  0  0  0  0
 32 37  1  0  0  0  0
 17 26  1  0  0  0  0
M  CHG  1  24  -1
M  END
$$$$

  -OEChem-05262214473D

 47 46  0     1  0  0  0  0  0999 V2000
    0.5093   -4.7265    3.0306 C   0  0  0  0  0  0  0  0  0  0  0  0
    1.2735   -4.4402    3.9448 O   0  0  0  0  0  0  0  0  0  0  0  0
   -0.4465   -5.8608    3.1982 C   0  0  0  0  0  0  0  0  0  0  0  0
   -0.0219   -6.8213    2.8645 H   0  0  0  0  0  0  0  0  0  0  0  0
   -0.7314   -6.0185    4.2509 H   0  0  0  0  0  0  0  0  0  0  0  0
   -1.3983   -5.7596    2.6527 H   0  0  0  0  0  0  0  0  0  0  0  0
    0.4252   -4.0886    1.8040 N   0  0  0  0  0  0  0  0  0  0  0  0
    1.2532   -2.9707    1.4349 C   0  0  2  0  0  0  0  0  0  0  0  0
    0.3395   -1.8293    1.0083 C   0  0  0  0  0  0  0  0  0  0  0  0
   -0.8136   -2.0027    0.6194 O   0  0  0  0  0  0  0  0  0  0  0  0
    2.2176   -3.3411    0.3189 C   0  0  0  0  0  0  0  0  0  0  0  0
   -0.2574   -4.4279    1.1287 H   0  0  0  0  0  0  0  0  0  0  0  0
    1.8087   -2.6785    2.3327 H   0  0  0  0  0  0  0  0  0  0  0  0
    1.6793   -3.6366   -0.5890 H   0  0  0  0  0  0  0  0  0  0  0  0
    2.8662   -2.4980    0.0589 H   0  0  0  0  0  0  0  0  0  0  0  0
    2.8538   -4.1816    0.6166 H   0  0  0  0  0  0  0  0  0  0  0  0
    0.9758   -0.5952    1.0708 N   0  0  0  0  0  0  0  0  0  0  0  0
    0.3258    0.6374    0.7059 C   0  0  2  0  0  0  0  0  0  0  0  0
   -1.1616    0.4766    1.0022 C   0  0  0  0  0  0  0  0  0  0  0  0
   -1.6204    0.4697    2.1426 O   0  0  0  0  0  0  0  0  0  0  0  0
    0.5411    0.9843   -0.7721 C   0  0  0  0  0  0  0  0  0  0  0  0
    1.9920    1.3214   -1.1134 C   0  0  0  0  0  0  0  0  0  0  0  0
    2.2817    1.6548   -2.5806 C   0  0  0  0  0  0  0  0  0  0  0  0
    1.3013    1.4734   -3.3587 O   0  5  0  0  0  0  0  0  0  0  0  0
    3.4413    2.0797   -2.8397 O   0  0  0  0  0  0  0  0  0  0  0  0
    1.9288   -0.5463    1.4242 H   0  0  0  0  0  0  0  0  0  0  0  0
    0.7336    1.4139    1.3621 H   0  0  0  0  0  0  0  0  0  0  0  0
   -0.1057    1.8227   -1.0590 H   0  0  0  0  0  0  0  0  0  0  0  0
    0.2272    0.1349   -1.3936 H   0  0  0  0  0  0  0  0  0  0  0  0
    2.3430    2.1464   -0.4820 H   0  0  0  0  0  0  0  0  0  0  0  0
    2.6161    0.4530   -0.8668 H   0  0  0  0  0  0  0  0  0  0  0  0
   -1.9072    0.2953   -0.1544 N   0  0  0  0  0  0  0  0  0  0  0  0
   -3.3391    0.1048   -0.1415 C   0  0  2  0  0  0  0  0  0  0  0  0
   -3.7452   -0.4997   -1.4791 C   0  0  0  0  0  0  0  0  0  0  0  0
   -3.0636   -0.3954   -2.4968 O   0  0  0  0  0  0  0  0  0  0  0  0
   -4.0695    1.4153    0.1070 C   0  0  0  0  0  0  0  0  0  0  0  0
   -1.4436    0.3307   -1.0574 H   0  0  0  0  0  0  0  0  0  0  0  0
   -3.5562   -0.6069    0.6625 H   0  0  0  0  0  0  0  0  0  0  0  0
   -3.8641    2.1410   -0.6884 H   0  0  0  0  0  0  0  0  0  0  0  0
   -5.1534    1.2644    0.1449 H   0  0  0  0  0  0  0  0  0  0  0  0
   -3.7542    1.8635    1.0554 H   0  0  0  0  0  0  0  0  0  0  0  0
   -4.9787   -1.1322   -1.4130 N   0  0  0  0  0  0  0  0  0  0  0  0
   -5.5885   -1.7730   -2.5548 C   0  0  0  0  0  0  0  0  0  0  0  0
   -5.4653   -1.1867   -0.5230 H   0  0  0  0  0  0  0  0  0  0  0  0
   -6.2490   -1.0583   -3.0676 H   0  0  0  0  0  0  0  0  0  0  0  0
   -4.8040   -2.1097   -3.2484 H   0  0  0  0  0  0  0  0  0  0  0  0
   -6.1768   -2.6393   -2.2180 H   0  0  0  0  0  0  0  0  0  0  0  0
  1  3  1  0  0  0  0
  1  7  1  0  0  0  0
  1  2  2  0  0  0  0
 33 34  1  0  0  0  0
 34 42  1  0  0  0  0
 34 35  2  0  0  0  0
  8  9  1  0  0  0  0
  9 17  1  0  0  0  0
  9 10  2  0  0  0  0
 18 19  1  0  0  0  0
 19 32  1  0  0  0  0
 19 20  2  0  0  0  0
 22 23  1  0  0  0  0
 23 24  1  0  0  0  0
 23 25  2  0  0  0  0
 33 36  1  0  0  0  0
  8 11  1  0  0  0  0
 42 43  1  0  0  0  0
 21 22  1  0  0  0  0
 18 21  1  0  0  0  0
 32 33  1  0  0  0  0
  7  8  1  0  0  0  0
 17 18  1  0  0  0  0
  3  4  1  0  0  0  0
  3  5  1  0  0  0  0
  3  6  1  0  0  0  0
 36 39  1  0  0  0  0
 36 40  1  0  0  0  0
 36 41  1  0  0  0  0
 11 14  1  0  0  0  0
 11 15  1  0  0  0  0
 11 16  1  0  0  0  0
 43 45  1  0  0  0  0
 43 46  1  0  0  0  0
 43 47  1  0  0  0  0
 22 30  1  0  0  0  0
 22 31  1  0  0  0  0
 21 28  1  0  0  0  0
 21 29  1  0  0  0  0
 33 38  1  0  0  0  0
  8 13  1  0  0  0  0
 18 27  1  0  0  0  0
 42 44  1  0  0  0  0
  7 12  1  0  0  0  0
 32 37  1  0  0  0  0
 17 26  1  0  0  0  0
M  CHG  1  24  -1
M  END
$$$$

  -OEChem-05262214473D

 47 46  0     1  0  0  0  0  0999 V2000
    0.5093   -4.7265    3.0306 C   0  0  0  0  0  0  0  0  0  0  0  0
    1.2735   -4.4402    3.9448 O   0  0  0  0  0  0  0  0  0  0  0  0
   -0.4465   -5.8608    3.1982 C   0  0  0  0  0  0  0  0  0  0  0  0
   -0.0219   -6.8213    2.8645 H   0  0  0  0  0  0  0  0  0  0  0  0
   -0.7314   -6.0185    4.2509 H   0  0  0  0  0  0  0  0  0  0  0  0
   -1.3983   -5.7596    2.6527 H   0  0  0  0  0  0  0  0  0  0  0  0
    0.4252   -4.0886    1.8040 N   0  0  0  0  0  0  0  0  0  0  0  0
    1.2532   -2.9707    1.4349 C   0  0  2  0  0  0  0  0  0  0  0  0
    0.3395   -1.8293    1.0083 C   0  0  0  0  0  0  0  0  0  0  0  0
   -0.8136   -2.0027    0.6194 O   0  0  0  0  0  0  0  0  0  0  0  0
    2.2176   -3.3411    0.3189 C   0  0  0  0  0  0  0  0  0  0  0  0
   -0.2574   -4.4279    1.1287 H   0  0  0  0  0  0  0  0  0  0  0  0
    1.8087   -2.6785    2.3327 H   0  0  0  0  0  0  0  0  0  0  0  0
    1.6793   -3.6366   -0.5890 H   0  0  0  0  0  0  0  0  0  0  0  0
    2.8662   -2.4980    0.0589 H   0  0  0  0  0  0  0  0  0  0  0  0
    2.8538   -4.1816    0.6166 H   0  0  0  0  0  0  0  0  0  0  0  0
    0.9758   -0.5952    1.0708 N   0  0  0  0  0  0  0  0  0  0  0  0
    0.3258    0.6374    0.7059 C   0  0  2  0  0  0  0  0  0  0  0  0
   -1.1616    0.4766    1.0022 C   0  0  0  0  0  0  0  0  0  0  0  0
   -1.6578    0.7323    2.0974 O   0  0  0  0  0  0  0  0  0  0  0  0
    0.5411    0.9843   -0.7721 C   0  0  0  0  0  0  0  0  0  0  0  0
    1.9920    1.3214   -1.1134 C   0  0  0  0  0  0  0  0  0  0  0  0
    2.2817    1.6548   -2.5806 C   0  0  0  0  0  0  0  0  0  0  0  0
    1.3013    1.4734   -3.3587 O   0  5  0  0  0  0  0  0  0  0  0  0
    3.4413    2.0797   -2.8397 O   0  0  0  0  0  0  0  0  0  0  0  0
    1.9288   -0.5463    1.4242 H   0  0  0  0  0  0  0  0  0  0  0  0
    0.7336    1.4139    1.3621 H   0  0  0  0  0  0  0  0  0  0  0  0
   -0.1057    1.8227   -1.0590 H   0  0  0  0  0  0  0  0  0  0  0  0
    0.2272    0.1349   -1.3936 H   0  0  0  0  0  0  0  0  0  0  0  0
    2.3430    2.1464   -0.4820 H   0  0  0  0  0  0  0  0  0  0  0  0
    2.6161    0.4530   -0.8668 H   0  0  0  0  0  0  0  0  0  0  0  0
   -1.8585   -0.0298   -0.0861 N   0  0  0  0  0  0  0  0  0  0  0  0
   -3.2795   -0.2877   -0.0552 C   0  0  2  0  0  0  0  0  0  0  0  0
   -3.6115   -1.2303   -1.2044 C   0  0  0  0  0  0  0  0  0  0  0  0
   -2.9017   -1.3491   -2.2009 O   0  0  0  0  0  0  0  0  0  0  0  0
   -4.0784    1.0019   -0.1618 C   0  0  0  0  0  0  0  0  0  0  0  0
   -1.3668   -0.1980   -0.9588 H   0  0  0  0  0  0  0  0  0  0  0  0
   -3.4901   -0.7847    0.8981 H   0  0  0  0  0  0  0  0  0  0  0  0
   -3.8804    1.5141   -1.1105 H   0  0  0  0  0  0  0  0  0  0  0  0
   -5.1547    0.8074   -0.1095 H   0  0  0  0  0  0  0  0  0  0  0  0
   -3.8165    1.6907    0.6486 H   0  0  0  0  0  0  0  0  0  0  0  0
   -4.8157   -1.8912   -1.0061 N   0  0  0  0  0  0  0  0  0  0  0  0
   -5.3559   -2.8306   -1.9609 C   0  0  0  0  0  0  0  0  0  0  0  0
   -5.3288   -1.7461   -0.1416 H   0  0  0  0  0  0  0  0  0  0  0  0
   -6.0315   -2.3046   -2.6515 H   0  0  0  0  0  0  0  0  0  0  0  0
   -4.5336   -3.2884   -2.5302 H   0  0  0  0  0  0  0  0  0  0  0  0
   -5.9141   -3.6146   -1.4282 H   0  0  0  0  0  0  0  0  0  0  0  0
  1  3  1  0  0  0  0
  1  7  1  0  0  0  0
  1  2  2  0  0  0  0
 33 34  1  0  0  0  0
 34 42  1  0  0  0  0
 34 35  2  0  0  0  0
  8  9  1  0  0  0  0
  9 17  1  0  0  0  0
  9 10  2  0  0  0  0
 18 19  1  0  0  0  0
 19 32  1  0  0  0  0
 19 20  2  0  0  0  0
 22 23  1  0  0  0  0
 23 24  1  0  0  0  0
 23 25  2  0  0  0  0
 33 36  1  0  0  0  0
  8 11  1  0  0  0  0
 42 43  1  0  0  0  0
 21 22  1  0  0  0  0
 18 21  1  0  0  0  0
 32 33  1  0  0  0  0
  7  8  1  0  0  0  0
 17 18  1  0  0  0  0
  3  4  1  0  0  0  0
  3  5  1  0  0  0  0
  3  6  1  0  0  0  0
 36 39  1  0  0  0  0
 36 40  1  0  0  0  0
 36 41  1  0  0  0  0
 11 14  1  0  0  0  0
 11 15  1  0  0  0  0
 11 16  1  0  0  0  0
 43 45  1  0  0  0  0
 43 46  1  0  0  0  0
 43 47  1  0  0  0  0
 22 30  1  0  0  0  0
 22 31  1  0  0  0  0
 21 28  1  0  0  0  0
 21 29  1  0  0  0  0
 33 38  1  0  0  0  0
  8 13  1  0  0  0  0
 18 27  1  0  0  0  0
 42 44  1  0  0  0  0
  7 12  1  0  0  0  0
 32 37  1  0  0  0  0
 17 26  1  0  0  0  0
M  CHG  1  24  -1
M  END
$$$$

  -OEChem-05262214473D

 47 46  0     1  0  0  0  0  0999 V2000
    0.5093   -4.7265    3.0306 C   0  0  0  0  0  0  0  0  0  0  0  0
    1.2735   -4.4402    3.9448 O   0  0  0  0  0  0  0  0  0  0  0  0
   -0.4465   -5.8608    3.1982 C   0  0  0  0  0  0  0  0  0  0  0  0
   -0.0219   -6.8213    2.8645 H   0  0  0  0  0  0  0  0  0  0  0  0
   -0.7314   -6.0185    4.2509 H   0  0  0  0  0  0  0  0  0  0  0  0
   -1.3983   -5.7596    2.6527 H   0  0  0  0  0  0  0  0  0  0  0  0
    0.4252   -4.0886    1.8040 N   0  0  0  0  0  0  0  0  0  0  0  0
    1.2532   -2.9707    1.4349 C   0  0  2  0  0  0  0  0  0  0  0  0
    0.3395   -1.8293    1.0083 C   0  0  0  0  0  0  0  0  0  0  0  0
   -0.8136   -2.0027    0.6194 O   0  0  0  0  0  0  0  0  0  0  0  0
    2.2176   -3.3411    0.3189 C   0  0  0  0  0  0  0  0  0  0  0  0
   -0.2574   -4.4279    1.1287 H   0  0  0  0  0  0  0  0  0  0  0  0
    1.8087   -2.6785    2.3327 H   0  0  0  0  0  0  0  0  0  0  0  0
    1.6793   -3.6366   -0.5890 H   0  0  0  0  0  0  0  0  0  0  0  0
    2.8662   -2.4980    0.0589 H   0  0  0  0  0  0  0  0  0  0  0  0
    2.8538   -4.1816    0.6166 H   0  0  0  0  0  0  0  0  0  0  0  0
    0.9758   -0.5952    1.0708 N   0  0  0  0  0  0  0  0  0  0  0  0
    0.3258    0.6374    0.7059 C   0  0  2  0  0  0  0  0  0  0  0  0
   -1.1616    0.4766    1.0022 C   0  0  0  0  0  0  0  0  0  0  0  0
   -1.7059    0.9727    1.9865 O   0  0  0  0  0  0  0  0  0  0  0  0
    0.5411    0.9843   -0.7721 C   0  0  0  0  0  0  0  0  0  0  0  0
    1.9920    1.3214   -1.1134 C   0  0  0  0  0  0  0  0  0  0  0  0
    2.2817    1.6548   -2.5806 C   0  0  0  0  0  0  0  0  0  0  0  0
    1.3013    1.4734   -3.3587 O   0  5  0  0  0  0  0  0  0  0  0  0
    3.4413    2.0797   -2.8397 O   0  0  0  0  0  0  0  0  0  0  0  0
    1.9288   -0.5463    1.4242 H   0  0  0  0  0  0  0  0  0  0  0  0
    0.7336    1.4139    1.3621 H   0  0  0  0  0  0  0  0  0  0  0  0
   -0.1057    1.8227   -1.0590 H   0  0  0  0  0  0  0  0  0  0  0  0
    0.2272    0.1349   -1.3936 H   0  0  0  0  0  0  0  0  0  0  0  0
    2.3430    2.1464   -0.4820 H   0  0  0  0  0  0  0  0  0  0  0  0
    2.6161    0.4530   -0.8668 H   0  0  0  0  0  0  0  0  0  0  0  0
   -1.7969   -0.3241    0.0633 N   0  0  0  0  0  0  0  0  0  0  0  0
   -3.2046   -0.6420    0.1289 C   0  0  2  0  0  0  0  0  0  0  0  0
   -3.4531   -1.8600   -0.7510 C   0  0  0  0  0  0  0  0  0  0  0  0
   -2.7053   -2.1875   -1.6700 O   0  0  0  0  0  0  0  0  0  0  0  0
   -4.0588    0.5344   -0.3174 C   0  0  0  0  0  0  0  0  0  0  0  0
   -1.2688   -0.6799   -0.7280 H   0  0  0  0  0  0  0  0  0  0  0  0
   -3.4237   -0.8936    1.1723 H   0  0  0  0  0  0  0  0  0  0  0  0
   -3.8532    0.8011   -1.3605 H   0  0  0  0  0  0  0  0  0  0  0  0
   -5.1260    0.3017   -0.2400 H   0  0  0  0  0  0  0  0  0  0  0  0
   -3.8570    1.4180    0.2976 H   0  0  0  0  0  0  0  0  0  0  0  0
   -4.6311   -2.5134   -0.4170 N   0  0  0  0  0  0  0  0  0  0  0  0
   -5.0943   -3.6906   -1.1140 C   0  0  0  0  0  0  0  0  0  0  0  0
   -5.1794   -2.1832    0.3717 H   0  0  0  0  0  0  0  0  0  0  0  0
   -5.7700   -3.3925   -1.9291 H   0  0  0  0  0  0  0  0  0  0  0  0
   -4.2327   -4.2321   -1.5316 H   0  0  0  0  0  0  0  0  0  0  0  0
   -5.6328   -4.3441   -0.4119 H   0  0  0  0  0  0  0  0  0  0  0  0
  1  3  1  0  0  0  0
  1  7  1  0  0  0  0
  1  2  2  0  0  0  0
 33 34  1  0  0  0  0
 34 42  1  0  0  0  0
 34 35  2  0  0  0  0
  8  9  1  0  0  0  0
  9 17  1  0  0  0  0
  9 10  2  0  0  0  0
 18 19  1  0  0  0  0
 19 32  1  0  0  0  0
 19 20  2  0  0  0  0
 22 23  1  0  0  0  0
 23 24  1  0  0  0  0
 23 25  2  0  0  0  0
 33 36  1  0  0  0  0
  8 11  1  0  0  0  0
 42 43  1  0  0  0  0
 21 22  1  0  0  0  0
 18 21  1  0  0  0  0
 32 33  1  0  0  0  0
  7  8  1  0  0  0  0
 17 18  1  0  0  0  0
  3  4  1  0  0  0  0
  3  5  1  0  0  0  0
  3  6  1  0  0  0  0
 36 39  1  0  0  0  0
 36 40  1  0  0  0  0
 36 41  1  0  0  0  0
 11 14  1  0  0  0  0
 11 15  1  0  0  0  0
 11 16  1  0  0  0  0
 43 45  1  0  0  0  0
 43 46  1  0  0  0  0
 43 47  1  0  0  0  0
 22 30  1  0  0  0  0
 22 31  1  0  0  0  0
 21 28  1  0  0  0  0
 21 29  1  0  0  0  0
 33 38  1  0  0  0  0
  8 13  1  0  0  0  0
 18 27  1  0  0  0  0
 42 44  1  0  0  0  0
  7 12  1  0  0  0  0
 32 37  1  0  0  0  0
 17 26  1  0  0  0  0
M  CHG  1  24  -1
M  END
$$$$

  -OEChem-05262214473D

 47 46  0     1  0  0  0  0  0999 V2000
    0.5093   -4.7265    3.0306 C   0  0  0  0  0  0  0  0  0  0  0  0
    1.2735   -4.4402    3.9448 O   0  0  0  0  0  0  0  0  0  0  0  0
   -0.4465   -5.8608    3.1982 C   0  0  0  0  0  0  0  0  0  0  0  0
   -0.0219   -6.8213    2.8645 H   0  0  0  0  0  0  0  0  0  0  0  0
   -0.7314   -6.0185    4.2509 H   0  0  0  0  0  0  0  0  0  0  0  0
   -1.3983   -5.7596    2.6527 H   0  0  0  0  0  0  0  0  0  0  0  0
    0.4252   -4.0886    1.8040 N   0  0  0  0  0  0  0  0  0  0  0  0
    1.2532   -2.9707    1.4349 C   0  0  2  0  0  0  0  0  0  0  0  0
    0.3395   -1.8293    1.0083 C   0  0  0  0  0  0  0  0  0  0  0  0
   -0.8136   -2.0027    0.6194 O   0  0  0  0  0  0  0  0  0  0  0  0
    2.2176   -3.3411    0.3189 C   0  0  0  0  0  0  0  0  0  0  0  0
   -0.2574   -4.4279    1.1287 H   0  0  0  0  0  0  0  0  0  0  0  0
    1.8087   -2.6785    2.3327 H   0  0  0  0  0  0  0  0  0  0  0  0
    1.6793   -3.6366   -0.5890 H   0  0  0  0  0  0  0  0  0  0  0  0
    2.8662   -2.4980    0.0589 H   0  0  0  0  0  0  0  0  0  0  0  0
    2.8538   -4.1816    0.6166 H   0  0  0  0  0  0  0  0  0  0  0  0
    0.9758   -0.5952    1.0708 N   0  0  0  0  0  0  0  0  0  0  0  0
    0.3258    0.6374    0.7059 C   0  0  2  0  0  0  0  0  0  0  0  0
   -1.1616    0.4766    1.0022 C   0  0  0  0  0  0  0  0  0  0  0  0
   -1.7614    1.1745    1.8173 O   0  0  0  0  0  0  0  0  0  0  0  0
    0.5411    0.9843   -0.7721 C   0  0  0  0  0  0  0  0  0  0  0  0
    1.9920    1.3214   -1.1134 C   0  0  0  0  0  0  0  0  0  0  0  0
    2.2817    1.6548   -2.5806 C   0  0  0  0  0  0  0  0  0  0  0  0
    1.3013    1.4734   -3.3587 O   0  5  0  0  0  0  0  0  0  0  0  0
    3.4413    2.0797   -2.8397 O   0  0  0  0  0  0  0  0  0  0  0  0
    1.9288   -0.5463    1.4242 H   0  0  0  0  0  0  0  0  0  0  0  0
    0.7336    1.4139    1.3621 H   0  0  0  0  0  0  0  0  0  0  0  0
   -0.1057    1.8227   -1.0590 H   0  0  0  0  0  0  0  0  0  0  0  0
    0.2272    0.1349   -1.3936 H   0  0  0  0  0  0  0  0  0  0  0  0
    2.3430    2.1464   -0.4820 H   0  0  0  0  0  0  0  0  0  0  0  0
    2.6161    0.4530   -0.8668 H   0  0  0  0  0  0  0  0  0  0  0  0
   -1.7267   -0.5677    0.2835 N   0  0  0  0  0  0  0  0  0  0  0  0
   -3.1194   -0.9340    0.3981 C   0  0  2  0  0  0  0  0  0  0  0  0
   -3.2809   -2.3458   -0.1498 C   0  0  0  0  0  0  0  0  0  0  0  0
   -2.4880   -2.8534   -0.9402 O   0  0  0  0  0  0  0  0  0  0  0  0
   -4.0122    0.0445   -0.3490 C   0  0  0  0  0  0  0  0  0  0  0  0
   -1.1561   -1.0822   -0.3808 H   0  0  0  0  0  0  0  0  0  0  0  0
   -3.3616   -0.9263    1.4664 H   0  0  0  0  0  0  0  0  0  0  0  0
   -3.7842    0.0507   -1.4211 H   0  0  0  0  0  0  0  0  0  0  0  0
   -5.0693   -0.2183   -0.2375 H   0  0  0  0  0  0  0  0  0  0  0  0
   -3.8728    1.0640    0.0263 H   0  0  0  0  0  0  0  0  0  0  0  0
   -4.4376   -2.9565    0.3142 N   0  0  0  0  0  0  0  0  0  0  0  0
   -4.8214   -4.2943   -0.0717 C   0  0  0  0  0  0  0  0  0  0  0  0
   -5.0270   -2.4683    0.9820 H   0  0  0  0  0  0  0  0  0  0  0  0
   -5.4825   -4.2479   -0.9496 H   0  0  0  0  0  0  0  0  0  0  0  0
   -3.9218   -4.8764   -0.3206 H   0  0  0  0  0  0  0  0  0  0  0  0
   -5.3522   -4.7781    0.7616 H   0  0  0  0  0  0  0  0  0  0  0  0
  1  3  1  0  0  0  0
  1  7  1  0  0  0  0
  1  2  2  0  0  0  0
 33 34  1  0  0  0  0
 34 42  1  0  0  0  0
 34 35  2  0  0  0  0
  8  9  1  0  0  0  0
  9 17  1  0  0  0  0
  9 10  2  0  0  0  0
 18 19  1  0  0  0  0
 19 32  1  0  0  0  0
 19 20  2  0  0  0  0
 22 23  1  0  0  0  0
 23 24  1  0  0  0  0
 23 25  2  0  0  0  0
 33 36  1  0  0  0  0
  8 11  1  0  0  0  0
 42 43  1  0  0  0  0
 21 22  1  0  0  0  0
 18 21  1  0  0  0  0
 32 33  1  0  0  0  0
  7  8  1  0  0  0  0
 17 18  1  0  0  0  0
  3  4  1  0  0  0  0
  3  5  1  0  0  0  0
  3  6  1  0  0  0  0
 36 39  1  0  0  0  0
 36 40  1  0  0  0  0
 36 41  1  0  0  0  0
 11 14  1  0  0  0  0
 11 15  1  0  0  0  0
 11 16  1  0  0  0  0
 43 45  1  0  0  0  0
 43 46  1  0  0  0  0
 43 47  1  0  0  0  0
 22 30  1  0  0  0  0
 22 31  1  0  0  0  0
 21 28  1  0  0  0  0
 21 29  1  0  0  0  0
 33 38  1  0  0  0  0
  8 13  1  0  0  0  0
 18 27  1  0  0  0  0
 42 44  1  0  0  0  0
  7 12  1  0  0  0  0
 32 37  1  0  0  0  0
 17 26  1  0  0  0  0
M  CHG  1  24  -1
M  END
$$$$

  -OEChem-05262214473D

 47 46  0     1  0  0  0  0  0999 V2000
    0.5093   -4.7265    3.0306 C   0  0  0  0  0  0  0  0  0  0  0  0
    1.2735   -4.4402    3.9448 O   0  0  0  0  0  0  0  0  0  0  0  0
   -0.4465   -5.8608    3.1982 C   0  0  0  0  0  0  0  0  0  0  0  0
   -0.0219   -6.8213    2.8645 H   0  0  0  0  0  0  0  0  0  0  0  0
   -0.7314   -6.0185    4.2509 H   0  0  0  0  0  0  0  0  0  0  0  0
   -1.3983   -5.7596    2.6527 H   0  0  0  0  0  0  0  0  0  0  0  0
    0.4252   -4.0886    1.8040 N   0  0  0  0  0  0  0  0  0  0  0  0
    1.2532   -2.9707    1.4349 C   0  0  2  0  0  0  0  0  0  0  0  0
    0.3395   -1.8293    1.0083 C   0  0  0  0  0  0  0  0  0  0  0  0
   -0.8136   -2.0027    0.6194 O   0  0  0  0  0  0  0  0  0  0  0  0
    2.2176   -3.3411    0.3189 C   0  0  0  0  0  0  0  0  0  0  0  0
   -0.2574   -4.4279    1.1287 H   0  0  0  0  0  0  0  0  0  0  0  0
    1.8087   -2.6785    2.3327 H   0  0  0  0  0  0  0  0  0  0  0  0
    1.6793   -3.6366   -0.5890 H   0  0  0  0  0  0  0  0  0  0  0  0
    2.8662   -2.4980    0.0589 H   0  0  0  0  0  0  0  0  0  0  0  0
    2.8538   -4.1816    0.6166 H   0  0  0  0  0  0  0  0  0  0  0  0
    0.9758   -0.5952    1.0708 N   0  0  0  0  0  0  0  0  0  0  0  0
    0.3258    0.6374    0.7059 C   0  0  2  0  0  0  0  0  0  0  0  0
   -1.1616    0.4766    1.0022 C   0  0  0  0  0  0  0  0  0  0  0  0
   -1.8205    1.3239    1.6014 O   0  0  0  0  0  0  0  0  0  0  0  0
    0.5411    0.9843   -0.7721 C   0  0  0  0  0  0  0  0  0  0  0  0
    1.9920    1.3214   -1.1134 C   0  0  0  0  0  0  0  0  0  0  0  0
    2.2817    1.6548   -2.5806 C   0  0  0  0  0  0  0  0  0  0  0  0
    1.3013    1.4734   -3.3587 O   0  5  0  0  0  0  0  0  0  0  0  0
    3.4413    2.0797   -2.8397 O   0  0  0  0  0  0  0  0  0  0  0  0
    1.9288   -0.5463    1.4242 H   0  0  0  0  0  0  0  0  0  0  0  0
    0.7336    1.4139    1.3621 H   0  0  0  0  0  0  0  0  0  0  0  0
   -0.1057    1.8227   -1.0590 H   0  0  0  0  0  0  0  0  0  0  0  0
    0.2272    0.1349   -1.3936 H   0  0  0  0  0  0  0  0  0  0  0  0
    2.3430    2.1464   -0.4820 H   0  0  0  0  0  0  0  0  0  0  0  0
    2.6161    0.4530   -0.8668 H   0  0  0  0  0  0  0  0  0  0  0  0
   -1.6527   -0.7438    0.5597 N   0  0  0  0  0  0  0  0  0  0  0  0
   -3.0298   -1.1438    0.7342 C   0  0  2  0  0  0  0  0  0  0  0  0
   -3.1065   -2.6546    0.5582 C   0  0  0  0  0  0  0  0  0  0  0  0
   -2.2645   -3.3014   -0.0613 O   0  0  0  0  0  0  0  0  0  0  0  0
   -3.9417   -0.4344   -0.2547 C   0  0  0  0  0  0  0  0  0  0  0  0
   -1.0366   -1.3775    0.0593 H   0  0  0  0  0  0  0  0  0  0  0  0
   -3.3079   -0.8805    1.7605 H   0  0  0  0  0  0  0  0  0  0  0  0
   -3.6781   -0.6860   -1.2885 H   0  0  0  0  0  0  0  0  0  0  0  0
   -4.9885   -0.7171   -0.1023 H   0  0  0  0  0  0  0  0  0  0  0  0
   -3.8628    0.6528   -0.1468 H   0  0  0  0  0  0  0  0  0  0  0  0
   -4.2483   -3.1902    1.1375 N   0  0  0  0  0  0  0  0  0  0  0  0
   -4.5560   -4.6007    1.0950 C   0  0  0  0  0  0  0  0  0  0  0  0
   -4.8821   -2.5821    1.6476 H   0  0  0  0  0  0  0  0  0  0  0  0
   -5.1885   -4.8124    0.2202 H   0  0  0  0  0  0  0  0  0  0  0  0
   -3.6222   -5.1774    1.0202 H   0  0  0  0  0  0  0  0  0  0  0  0
   -5.0913   -4.8869    2.0123 H   0  0  0  0  0  0  0  0  0  0  0  0
  1  3  1  0  0  0  0
  1  7  1  0  0  0  0
  1  2  2  0  0  0  0
 33 34  1  0  0  0  0
 34 42  1  0  0  0  0
 34 35  2  0  0  0  0
  8  9  1  0  0  0  0
  9 17  1  0  0  0  0
  9 10  2  0  0  0  0
 18 19  1  0  0  0  0
 19 32  1  0  0  0  0
 19 20  2  0  0  0  0
 22 23  1  0  0  0  0
 23 24  1  0  0  0  0
 23 25  2  0  0  0  0
 33 36  1  0  0  0  0
  8 11  1  0  0  0  0
 42 43  1  0  0  0  0
 21 22  1  0  0  0  0
 18 21  1  0  0  0  0
 32 33  1  0  0  0  0
  7  8  1  0  0  0  0
 17 18  1  0  0  0  0
  3  4  1  0  0  0  0
  3  5  1  0  0  0  0
  3  6  1  0  0  0  0
 36 39  1  0  0  0  0
 36 40  1  0  0  0  0
 36 41  1  0  0  0  0
 11 14  1  0  0  0  0
 11 15  1  0  0  0  0
 11 16  1  0  0  0  0
 43 45  1  0  0  0  0
 43 46  1  0  0  0  0
 43 47  1  0  0  0  0
 22 30  1  0  0  0  0
 22 31  1  0  0  0  0
 21 28  1  0  0  0  0
 21 29  1  0  0  0  0
 33 38  1  0  0  0  0
  8 13  1  0  0  0  0
 18 27  1  0  0  0  0
 42 44  1  0  0  0  0
  7 12  1  0  0  0  0
 32 37  1  0  0  0  0
 17 26  1  0  0  0  0
M  CHG  1  24  -1
M  END
$$$$

  -OEChem-05262214473D

 47 46  0     1  0  0  0  0  0999 V2000
    0.5093   -4.7265    3.0306 C   0  0  0  0  0  0  0  0  0  0  0  0
    1.2735   -4.4402    3.9448 O   0  0  0  0  0  0  0  0  0  0  0  0
   -0.4465   -5.8608    3.1982 C   0  0  0  0  0  0  0  0  0  0  0  0
   -0.0219   -6.8213    2.8645 H   0  0  0  0  0  0  0  0  0  0  0  0
   -0.7314   -6.0185    4.2509 H   0  0  0  0  0  0  0  0  0  0  0  0
   -1.3983   -5.7596    2.6527 H   0  0  0  0  0  0  0  0  0  0  0  0
    0.4252   -4.0886    1.8040 N   0  0  0  0  0  0  0  0  0  0  0  0
    1.2532   -2.9707    1.4349 C   0  0  2  0  0  0  0  0  0  0  0  0
    0.3395   -1.8293    1.0083 C   0  0  0  0  0  0  0  0  0  0  0  0
   -0.8136   -2.0027    0.6194 O   0  0  0  0  0  0  0  0  0  0  0  0
    2.2176   -3.3411    0.3189 C   0  0  0  0  0  0  0  0  0  0  0  0
   -0.2574   -4.4279    1.1287 H   0  0  0  0  0  0  0  0  0  0  0  0
    1.8087   -2.6785    2.3327 H   0  0  0  0  0  0  0  0  0  0  0  0
    1.6793   -3.6366   -0.5890 H   0  0  0  0  0  0  0  0  0  0  0  0
    2.8662   -2.4980    0.0589 H   0  0  0  0  0  0  0  0  0  0  0  0
    2.8538   -4.1816    0.6166 H   0  0  0  0  0  0  0  0  0  0  0  0
    0.9758   -0.5952    1.0708 N   0  0  0  0  0  0  0  0  0  0  0  0
    0.3258    0.6374    0.7059 C   0  0  2  0  0  0  0  0  0  0  0  0
   -1.1616    0.4766    1.0022 C   0  0  0  0  0  0  0  0  0  0  0  0
   -1.8793    1.4108    1.3536 O   0  0  0  0  0  0  0  0  0  0  0  0
    0.5411    0.9843   -0.7721 C   0  0  0  0  0  0  0  0  0  0  0  0
    1.9920    1.3214   -1.1134 C   0  0  0  0  0  0  0  0  0  0  0  0
    2.2817    1.6548   -2.5806 C   0  0  0  0  0  0  0  0  0  0  0  0
    1.3013    1.4734   -3.3587 O   0  5  0  0  0  0  0  0  0  0  0  0
    3.4413    2.0797   -2.8397 O   0  0  0  0  0  0  0  0  0  0  0  0
    1.9288   -0.5463    1.4242 H   0  0  0  0  0  0  0  0  0  0  0  0
    0.7336    1.4139    1.3621 H   0  0  0  0  0  0  0  0  0  0  0  0
   -0.1057    1.8227   -1.0590 H   0  0  0  0  0  0  0  0  0  0  0  0
    0.2272    0.1349   -1.3936 H   0  0  0  0  0  0  0  0  0  0  0  0
    2.3430    2.1464   -0.4820 H   0  0  0  0  0  0  0  0  0  0  0  0
    2.6161    0.4530   -0.8668 H   0  0  0  0  0  0  0  0  0  0  0  0
   -1.5799   -0.8404    0.8728 N   0  0  0  0  0  0  0  0  0  0  0  0
   -2.9418   -1.2571    1.1143 C   0  0  2  0  0  0  0  0  0  0  0  0
   -2.9418   -2.7655    1.3249 C   0  0  0  0  0  0  0  0  0  0  0  0
   -2.0501   -3.5011    0.9069 O   0  0  0  0  0  0  0  0  0  0  0  0
   -3.8520   -0.8696   -0.0408 C   0  0  0  0  0  0  0  0  0  0  0  0
   -0.9183   -1.5457    0.5621 H   0  0  0  0  0  0  0  0  0  0  0  0
   -3.2665   -0.7593    2.0345 H   0  0  0  0  0  0  0  0  0  0  0  0
   -3.5423   -1.3588   -0.9715 H   0  0  0  0  0  0  0  0  0  0  0  0
   -4.8890   -1.1607    0.1564 H   0  0  0  0  0  0  0  0  0  0  0  0
   -3.8278    0.2123   -0.2100 H   0  0  0  0  0  0  0  0  0  0  0  0
   -4.0762   -3.1986    1.9969 N   0  0  0  0  0  0  0  0  0  0  0  0
   -4.3159   -4.5888    2.3064 C   0  0  0  0  0  0  0  0  0  0  0  0
   -4.7546   -2.5166    2.3232 H   0  0  0  0  0  0  0  0  0  0  0  0
   -4.9080   -5.0475    1.5008 H   0  0  0  0  0  0  0  0  0  0  0  0
   -3.3543   -5.1147    2.3996 H   0  0  0  0  0  0  0  0  0  0  0  0
   -4.8680   -4.6633    3.2549 H   0  0  0  0  0  0  0  0  0  0  0  0
  1  3  1  0  0  0  0
  1  7  1  0  0  0  0
  1  2  2  0  0  0  0
 33 34  1  0  0  0  0
 34 42  1  0  0  0  0
 34 35  2  0  0  0  0
  8  9  1  0  0  0  0
  9 17  1  0  0  0  0
  9 10  2  0  0  0  0
 18 19  1  0  0  0  0
 19 32  1  0  0  0  0
 19 20  2  0  0  0  0
 22 23  1  0  0  0  0
 23 24  1  0  0  0  0
 23 25  2  0  0  0  0
 33 36  1  0  0  0  0
  8 11  1  0  0  0  0
 42 43  1  0  0  0  0
 21 22  1  0  0  0  0
 18 21  1  0  0  0  0
 32 33  1  0  0  0  0
  7  8  1  0  0  0  0
 17 18  1  0  0  0  0
  3  4  1  0  0  0  0
  3  5  1  0  0  0  0
  3  6  1  0  0  0  0
 36 39  1  0  0  0  0
 36 40  1  0  0  0  0
 36 41  1  0  0  0  0
 11 14  1  0  0  0  0
 11 15  1  0  0  0  0
 11 16  1  0  0  0  0
 43 45  1  0  0  0  0
 43 46  1  0  0  0  0
 43 47  1  0  0  0  0
 22 30  1  0  0  0  0
 22 31  1  0  0  0  0
 21 28  1  0  0  0  0
 21 29  1  0  0  0  0
 33 38  1  0  0  0  0
  8 13  1  0  0  0  0
 18 27  1  0  0  0  0
 42 44  1  0  0  0  0
  7 12  1  0  0  0  0
 32 37  1  0  0  0  0
 17 26  1  0  0  0  0
M  CHG  1  24  -1
M  END
$$$$

  -OEChem-05262214473D

 47 46  0     1  0  0  0  0  0999 V2000
    0.5093   -4.7265    3.0306 C   0  0  0  0  0  0  0  0  0  0  0  0
    1.2735   -4.4402    3.9448 O   0  0  0  0  0  0  0  0  0  0  0  0
   -0.4465   -5.8608    3.1982 C   0  0  0  0  0  0  0  0  0  0  0  0
   -0.0219   -6.8213    2.8645 H   0  0  0  0  0  0  0  0  0  0  0  0
   -0.7314   -6.0185    4.2509 H   0  0  0  0  0  0  0  0  0  0  0  0
   -1.3983   -5.7596    2.6527 H   0  0  0  0  0  0  0  0  0  0  0  0
    0.4252   -4.0886    1.8040 N   0  0  0  0  0  0  0  0  0  0  0  0
    1.2532   -2.9707    1.4349 C   0  0  2  0  0  0  0  0  0  0  0  0
    0.3395   -1.8293    1.0083 C   0  0  0  0  0  0  0  0  0  0  0  0
   -0.8136   -2.0027    0.6194 O   0  0  0  0  0  0  0  0  0  0  0  0
    2.2176   -3.3411    0.3189 C   0  0  0  0  0  0  0  0  0  0  0  0
   -0.2574   -4.4279    1.1287 H   0  0  0  0  0  0  0  0  0  0  0  0
    1.8087   -2.6785    2.3327 H   0  0  0  0  0  0  0  0  0  0  0  0
    1.6793   -3.6366   -0.5890 H   0  0  0  0  0  0  0  0  0  0  0  0
    2.8662   -2.4980    0.0589 H   0  0  0  0  0  0  0  0  0  0  0  0
    2.8538   -4.1816    0.6166 H   0  0  0  0  0  0  0  0  0  0  0  0
    0.9758   -0.5952    1.0708 N   0  0  0  0  0  0  0  0  0  0  0  0
    0.3258    0.6374    0.7059 C   0  0  2  0  0  0  0  0  0  0  0  0
   -1.1616    0.4766    1.0022 C   0  0  0  0  0  0  0  0  0  0  0  0
   -1.9336    1.4292    1.0907 O   0  0  0  0  0  0  0  0  0  0  0  0
    0.5411    0.9843   -0.7721 C   0  0  0  0  0  0  0  0  0  0  0  0
    1.9920    1.3214   -1.1134 C   0  0  0  0  0  0  0  0  0  0  0  0
    2.2817    1.6548   -2.5806 C   0  0  0  0  0  0  0  0  0  0  0  0
    1.3013    1.4734   -3.3587 O   0  5  0  0  0  0  0  0  0  0  0  0
    3.4413    2.0797   -2.8397 O   0  0  0  0  0  0  0  0  0  0  0  0
    1.9288   -0.5463    1.4242 H   0  0  0  0  0  0  0  0  0  0  0  0
    0.7336    1.4139    1.3621 H   0  0  0  0  0  0  0  0  0  0  0  0
   -0.1057    1.8227   -1.0590 H   0  0  0  0  0  0  0  0  0  0  0  0
    0.2272    0.1349   -1.3936 H   0  0  0  0  0  0  0  0  0  0  0  0
    2.3430    2.1464   -0.4820 H   0  0  0  0  0  0  0  0  0  0  0  0
    2.6161    0.4530   -0.8668 H   0  0  0  0  0  0  0  0  0  0  0  0
   -1.5132   -0.8511    1.2017 N   0  0  0  0  0  0  0  0  0  0  0  0
   -2.8615   -1.2662    1.5124 C   0  0  2  0  0  0  0  0  0  0  0  0
   -2.7981   -2.6707    2.0979 C   0  0  0  0  0  0  0  0  0  0  0  0
   -1.8593   -3.4388    1.8984 O   0  0  0  0  0  0  0  0  0  0  0  0
   -3.7494   -1.2314    0.2782 C   0  0  0  0  0  0  0  0  0  0  0  0
   -0.8092   -1.5752    1.0935 H   0  0  0  0  0  0  0  0  0  0  0  0
   -3.2400   -0.5710    2.2696 H   0  0  0  0  0  0  0  0  0  0  0  0
   -3.3859   -1.9218   -0.4918 H   0  0  0  0  0  0  0  0  0  0  0  0
   -4.7777   -1.5189    0.5209 H   0  0  0  0  0  0  0  0  0  0  0  0
   -3.7701   -0.2273   -0.1588 H   0  0  0  0  0  0  0  0  0  0  0  0
   -3.9330   -2.9811    2.8339 N   0  0  0  0  0  0  0  0  0  0  0  0
   -4.1178   -4.2595    3.4801 C   0  0  0  0  0  0  0  0  0  0  0  0
   -4.6532   -2.2764    2.9627 H   0  0  0  0  0  0  0  0  0  0  0  0
   -4.6602   -4.9374    2.8047 H   0  0  0  0  0  0  0  0  0  0  0  0
   -3.1362   -4.6924    3.7233 H   0  0  0  0  0  0  0  0  0  0  0  0
   -4.6974   -4.1223    4.4049 H   0  0  0  0  0  0  0  0  0  0  0  0
  1  3  1  0  0  0  0
  1  7  1  0  0  0  0
  1  2  2  0  0  0  0
 33 34  1  0  0  0  0
 34 42  1  0  0  0  0
 34 35  2  0  0  0  0
  8  9  1  0  0  0  0
  9 17  1  0  0  0  0
  9 10  2  0  0  0  0
 18 19  1  0  0  0  0
 19 32  1  0  0  0  0
 19 20  2  0  0  0  0
 22 23  1  0  0  0  0
 23 24  1  0  0  0  0
 23 25  2  0  0  0  0
 33 36  1  0  0  0  0
  8 11  1  0  0  0  0
 42 43  1  0  0  0  0
 21 22  1  0  0  0  0
 18 21  1  0  0  0  0
 32 33  1  0  0  0  0
  7  8  1  0  0  0  0
 17 18  1  0  0  0  0
  3  4  1  0  0  0  0
  3  5  1  0  0  0  0
  3  6  1  0  0  0  0
 36 39  1  0  0  0  0
 36 40  1  0  0  0  0
 36 41  1  0  0  0  0
 11 14  1  0  0  0  0
 11 15  1  0  0  0  0
 11 16  1  0  0  0  0
 43 45  1  0  0  0  0
 43 46  1  0  0  0  0
 43 47  1  0  0  0  0
 22 30  1  0  0  0  0
 22 31  1  0  0  0  0
 21 28  1  0  0  0  0
 21 29  1  0  0  0  0
 33 38  1  0  0  0  0
  8 13  1  0  0  0  0
 18 27  1  0  0  0  0
 42 44  1  0  0  0  0
  7 12  1  0  0  0  0
 32 37  1  0  0  0  0
 17 26  1  0  0  0  0
M  CHG  1  24  -1
M  END
$$$$

  -OEChem-05262214473D

 47 46  0     1  0  0  0  0  0999 V2000
    0.5093   -4.7265    3.0306 C   0  0  0  0  0  0  0  0  0  0  0  0
    1.2735   -4.4402    3.9448 O   0  0  0  0  0  0  0  0  0  0  0  0
   -0.4465   -5.8608    3.1982 C   0  0  0  0  0  0  0  0  0  0  0  0
   -0.0219   -6.8213    2.8645 H   0  0  0  0  0  0  0  0  0  0  0  0
   -0.7314   -6.0185    4.2509 H   0  0  0  0  0  0  0  0  0  0  0  0
   -1.3983   -5.7596    2.6527 H   0  0  0  0  0  0  0  0  0  0  0  0
    0.4252   -4.0886    1.8040 N   0  0  0  0  0  0  0  0  0  0  0  0
    1.2532   -2.9707    1.4349 C   0  0  2  0  0  0  0  0  0  0  0  0
    0.3395   -1.8293    1.0083 C   0  0  0  0  0  0  0  0  0  0  0  0
   -0.8136   -2.0027    0.6194 O   0  0  0  0  0  0  0  0  0  0  0  0
    2.2176   -3.3411    0.3189 C   0  0  0  0  0  0  0  0  0  0  0  0
   -0.2574   -4.4279    1.1287 H   0  0  0  0  0  0  0  0  0  0  0  0
    1.8087   -2.6785    2.3327 H   0  0  0  0  0  0  0  0  0  0  0  0
    1.6793   -3.6366   -0.5890 H   0  0  0  0  0  0  0  0  0  0  0  0
    2.8662   -2.4980    0.0589 H   0  0  0  0  0  0  0  0  0  0  0  0
    2.8538   -4.1816    0.6166 H   0  0  0  0  0  0  0  0  0  0  0  0
    0.9758   -0.5952    1.0708 N   0  0  0  0  0  0  0  0  0  0  0  0
    0.3258    0.6374    0.7059 C   0  0  2  0  0  0  0  0  0  0  0  0
   -1.1616    0.4766    1.0022 C   0  0  0  0  0  0  0  0  0  0  0  0
   -1.9799    1.3779    0.8306 O   0  0  0  0  0  0  0  0  0  0  0  0
    0.5411    0.9843   -0.7721 C   0  0  0  0  0  0  0  0  0  0  0  0
    1.9920    1.3214   -1.1134 C   0  0  0  0  0  0  0  0  0  0  0  0
    2.2817    1.6548   -2.5806 C   0  0  0  0  0  0  0  0  0  0  0  0
    1.3013    1.4734   -3.3587 O   0  5  0  0  0  0  0  0  0  0  0  0
    3.4413    2.0797   -2.8397 O   0  0  0  0  0  0  0  0  0  0  0  0
    1.9288   -0.5463    1.4242 H   0  0  0  0  0  0  0  0  0  0  0  0
    0.7336    1.4139    1.3621 H   0  0  0  0  0  0  0  0  0  0  0  0
   -0.1057    1.8227   -1.0590 H   0  0  0  0  0  0  0  0  0  0  0  0
    0.2272    0.1349   -1.3936 H   0  0  0  0  0  0  0  0  0  0  0  0
    2.3430    2.1464   -0.4820 H   0  0  0  0  0  0  0  0  0  0  0  0
    2.6161    0.4530   -0.8668 H   0  0  0  0  0  0  0  0  0  0  0  0
   -1.4573   -0.7750    1.5239 N   0  0  0  0  0  0  0  0  0  0  0  0
   -2.7944   -1.1705    1.9014 C   0  0  2  0  0  0  0  0  0  0  0  0
   -2.6851   -2.3769    2.8245 C   0  0  0  0  0  0  0  0  0  0  0  0
   -1.7052   -3.1188    2.8456 O   0  0  0  0  0  0  0  0  0  0  0  0
   -3.6408   -1.4953    0.6804 C   0  0  0  0  0  0  0  0  0  0  0  0
   -0.7169   -1.4641    1.6172 H   0  0  0  0  0  0  0  0  0  0  0  0
   -3.2303   -0.3284    2.4500 H   0  0  0  0  0  0  0  0  0  0  0  0
   -3.2196   -2.3366    0.1180 H   0  0  0  0  0  0  0  0  0  0  0  0
   -4.6621   -1.7673    0.9665 H   0  0  0  0  0  0  0  0  0  0  0  0
   -3.6937   -0.6361    0.0031 H   0  0  0  0  0  0  0  0  0  0  0  0
   -3.8285   -2.5525    3.5913 N   0  0  0  0  0  0  0  0  0  0  0  0
   -3.9749   -3.6351    4.5361 C   0  0  0  0  0  0  0  0  0  0  0  0
   -4.5848   -1.8780    3.5226 H   0  0  0  0  0  0  0  0  0  0  0  0
   -4.4619   -4.4894    4.0431 H   0  0  0  0  0  0  0  0  0  0  0  0
   -2.9830   -3.9395    4.9014 H   0  0  0  0  0  0  0  0  0  0  0  0
   -4.5911   -3.3010    5.3838 H   0  0  0  0  0  0  0  0  0  0  0  0
  1  3  1  0  0  0  0
  1  7  1  0  0  0  0
  1  2  2  0  0  0  0
 33 34  1  0  0  0  0
 34 42  1  0  0  0  0
 34 35  2  0  0  0  0
  8  9  1  0  0  0  0
  9 17  1  0  0  0  0
  9 10  2  0  0  0  0
 18 19  1  0  0  0  0
 19 32  1  0  0  0  0
 19 20  2  0  0  0  0
 22 23  1  0  0  0  0
 23 24  1  0  0  0  0
 23 25  2  0  0  0  0
 33 36  1  0  0  0  0
  8 11  1  0  0  0  0
 42 43  1  0  0  0  0
 21 22  1  0  0  0  0
 18 21  1  0  0  0  0
 32 33  1  0  0  0  0
  7  8  1  0  0  0  0
 17 18  1  0  0  0  0
  3  4  1  0  0  0  0
  3  5  1  0  0  0  0
  3  6  1  0  0  0  0
 36 39  1  0  0  0  0
 36 40  1  0  0  0  0
 36 41  1  0  0  0  0
 11 14  1  0  0  0  0
 11 15  1  0  0  0  0
 11 16  1  0  0  0  0
 43 45  1  0  0  0  0
 43 46  1  0  0  0  0
 43 47  1  0  0  0  0
 22 30  1  0  0  0  0
 22 31  1  0  0  0  0
 21 28  1  0  0  0  0
 21 29  1  0  0  0  0
 33 38  1  0  0  0  0
  8 13  1  0  0  0  0
 18 27  1  0  0  0  0
 42 44  1  0  0  0  0
  7 12  1  0  0  0  0
 32 37  1  0  0  0  0
 17 26  1  0  0  0  0
M  CHG  1  24  -1
M  END
$$$$

  -OEChem-05262214473D

 47 46  0     1  0  0  0  0  0999 V2000
    0.5093   -4.7265    3.0306 C   0  0  0  0  0  0  0  0  0  0  0  0
    1.2735   -4.4402    3.9448 O   0  0  0  0  0  0  0  0  0  0  0  0
   -0.4465   -5.8608    3.1982 C   0  0  0  0  0  0  0  0  0  0  0  0
   -0.0219   -6.8213    2.8645 H   0  0  0  0  0  0  0  0  0  0  0  0
   -0.7314   -6.0185    4.2509 H   0  0  0  0  0  0  0  0  0  0  0  0
   -1.3983   -5.7596    2.6527 H   0  0  0  0  0  0  0  0  0  0  0  0
    0.4252   -4.0886    1.8040 N   0  0  0  0  0  0  0  0  0  0  0  0
    1.2532   -2.9707    1.4349 C   0  0  2  0  0  0  0  0  0  0  0  0
    0.3395   -1.8293    1.0083 C   0  0  0  0  0  0  0  0  0  0  0  0
   -0.8136   -2.0027    0.6194 O   0  0  0  0  0  0  0  0  0  0  0  0
    2.2176   -3.3411    0.3189 C   0  0  0  0  0  0  0  0  0  0  0  0
   -0.2574   -4.4279    1.1287 H   0  0  0  0  0  0  0  0  0  0  0  0
    1.8087   -2.6785    2.3327 H   0  0  0  0  0  0  0  0  0  0  0  0
    1.6793   -3.6366   -0.5890 H   0  0  0  0  0  0  0  0  0  0  0  0
    2.8662   -2.4980    0.0589 H   0  0  0  0  0  0  0  0  0  0  0  0
    2.8538   -4.1816    0.6166 H   0  0  0  0  0  0  0  0  0  0  0  0
    0.9758   -0.5952    1.0708 N   0  0  0  0  0  0  0  0  0  0  0  0
    0.3258    0.6374    0.7059 C   0  0  2  0  0  0  0  0  0  0  0  0
   -1.1616    0.4766    1.0022 C   0  0  0  0  0  0  0  0  0  0  0  0
   -2.0149    1.2603    0.5911 O   0  0  0  0  0  0  0  0  0  0  0  0
    0.5411    0.9843   -0.7721 C   0  0  0  0  0  0  0  0  0  0  0  0
    1.9920    1.3214   -1.1134 C   0  0  0  0  0  0  0  0  0  0  0  0
    2.2817    1.6548   -2.5806 C   0  0  0  0  0  0  0  0  0  0  0  0
    1.3013    1.4734   -3.3587 O   0  5  0  0  0  0  0  0  0  0  0  0
    3.4413    2.0797   -2.8397 O   0  0  0  0  0  0  0  0  0  0  0  0
    1.9288   -0.5463    1.4242 H   0  0  0  0  0  0  0  0  0  0  0  0
    0.7336    1.4139    1.3621 H   0  0  0  0  0  0  0  0  0  0  0  0
   -0.1057    1.8227   -1.0590 H   0  0  0  0  0  0  0  0  0  0  0  0
    0.2272    0.1349   -1.3936 H   0  0  0  0  0  0  0  0  0  0  0  0
    2.3430    2.1464   -0.4820 H   0  0  0  0  0  0  0  0  0  0  0  0
    2.6161    0.4530   -0.8668 H   0  0  0  0  0  0  0  0  0  0  0  0
   -1.4158   -0.6174    1.8175 N   0  0  0  0  0  0  0  0  0  0  0  0
   -2.7450   -0.9765    2.2548 C   0  0  2  0  0  0  0  0  0  0  0  0
   -2.6106   -1.9039    3.4553 C   0  0  0  0  0  0  0  0  0  0  0  0
   -1.5983   -2.5629    3.6839 O   0  0  0  0  0  0  0  0  0  0  0  0
   -3.5335   -1.6432    1.1384 C   0  0  0  0  0  0  0  0  0  0  0  0
   -0.6476   -1.2200    2.0975 H   0  0  0  0  0  0  0  0  0  0  0  0
   -3.2380   -0.0481    2.5632 H   0  0  0  0  0  0  0  0  0  0  0  0
   -3.0548   -2.5751    0.8162 H   0  0  0  0  0  0  0  0  0  0  0  0
   -4.5501   -1.8889    1.4628 H   0  0  0  0  0  0  0  0  0  0  0  0
   -3.6037   -0.9863    0.2648 H   0  0  0  0  0  0  0  0  0  0  0  0
   -3.7697   -1.9421    4.2176 N   0  0  0  0  0  0  0  0  0  0  0  0
   -3.8971   -2.7583    5.4024 C   0  0  0  0  0  0  0  0  0  0  0  0
   -4.5539   -1.3483    3.9646 H   0  0  0  0  0  0  0  0  0  0  0  0
   -4.3267   -3.7340    5.1317 H   0  0  0  0  0  0  0  0  0  0  0  0
   -2.9049   -2.9071    5.8534 H   0  0  0  0  0  0  0  0  0  0  0  0
   -4.5565   -2.2552    6.1249 H   0  0  0  0  0  0  0  0  0  0  0  0
  1  3  1  0  0  0  0
  1  7  1  0  0  0  0
  1  2  2  0  0  0  0
 33 34  1  0  0  0  0
 34 42  1  0  0  0  0
 34 35  2  0  0  0  0
  8  9  1  0  0  0  0
  9 17  1  0  0  0  0
  9 10  2  0  0  0  0
 18 19  1  0  0  0  0
 19 32  1  0  0  0  0
 19 20  2  0  0  0  0
 22 23  1  0  0  0  0
 23 24  1  0  0  0  0
 23 25  2  0  0  0  0
 33 36  1  0  0  0  0
  8 11  1  0  0  0  0
 42 43  1  0  0  0  0
 21 22  1  0  0  0  0
 18 21  1  0  0  0  0
 32 33  1  0  0  0  0
  7  8  1  0  0  0  0
 17 18  1  0  0  0  0
  3  4  1  0  0  0  0
  3  5  1  0  0  0  0
  3  6  1  0  0  0  0
 36 39  1  0  0  0  0
 36 40  1  0  0  0  0
 36 41  1  0  0  0  0
 11 14  1  0  0  0  0
 11 15  1  0  0  0  0
 11 16  1  0  0  0  0
 43 45  1  0  0  0  0
 43 46  1  0  0  0  0
 43 47  1  0  0  0  0
 22 30  1  0  0  0  0
 22 31  1  0  0  0  0
 21 28  1  0  0  0  0
 21 29  1  0  0  0  0
 33 38  1  0  0  0  0
  8 13  1  0  0  0  0
 18 27  1  0  0  0  0
 42 44  1  0  0  0  0
  7 12  1  0  0  0  0
 32 37  1  0  0  0  0
 17 26  1  0  0  0  0
M  CHG  1  24  -1
M  END
$$$$

  -OEChem-05262214473D

 47 46  0     1  0  0  0  0  0999 V2000
    0.5093   -4.7265    3.0306 C   0  0  0  0  0  0  0  0  0  0  0  0
    1.2735   -4.4402    3.9448 O   0  0  0  0  0  0  0  0  0  0  0  0
   -0.4465   -5.8608    3.1982 C   0  0  0  0  0  0  0  0  0  0  0  0
   -0.0219   -6.8213    2.8645 H   0  0  0  0  0  0  0  0  0  0  0  0
   -0.7314   -6.0185    4.2509 H   0  0  0  0  0  0  0  0  0  0  0  0
   -1.3983   -5.7596    2.6527 H   0  0  0  0  0  0  0  0  0  0  0  0
    0.4252   -4.0886    1.8040 N   0  0  0  0  0  0  0  0  0  0  0  0
    1.2532   -2.9707    1.4349 C   0  0  2  0  0  0  0  0  0  0  0  0
    0.3395   -1.8293    1.0083 C   0  0  0  0  0  0  0  0  0  0  0  0
   -0.8136   -2.0027    0.6194 O   0  0  0  0  0  0  0  0  0  0  0  0
    2.2176   -3.3411    0.3189 C   0  0  0  0  0  0  0  0  0  0  0  0
   -0.2574   -4.4279    1.1287 H   0  0  0  0  0  0  0  0  0  0  0  0
    1.8087   -2.6785    2.3327 H   0  0  0  0  0  0  0  0  0  0  0  0
    1.6793   -3.6366   -0.5890 H   0  0  0  0  0  0  0  0  0  0  0  0
    2.8662   -2.4980    0.0589 H   0  0  0  0  0  0  0  0  0  0  0  0
    2.8538   -4.1816    0.6166 H   0  0  0  0  0  0  0  0  0  0  0  0
    0.9758   -0.5952    1.0708 N   0  0  0  0  0  0  0  0  0  0  0  0
    0.3258    0.6374    0.7059 C   0  0  2  0  0  0  0  0  0  0  0  0
   -1.1616    0.4766    1.0022 C   0  0  0  0  0  0  0  0  0  0  0  0
   -2.0363    1.0845    0.3884 O   0  0  0  0  0  0  0  0  0  0  0  0
    0.5411    0.9843   -0.7721 C   0  0  0  0  0  0  0  0  0  0  0  0
    1.9920    1.3214   -1.1134 C   0  0  0  0  0  0  0  0  0  0  0  0
    2.2817    1.6548   -2.5806 C   0  0  0  0  0  0  0  0  0  0  0  0
    1.3013    1.4734   -3.3587 O   0  5  0  0  0  0  0  0  0  0  0  0
    3.4413    2.0797   -2.8397 O   0  0  0  0  0  0  0  0  0  0  0  0
    1.9288   -0.5463    1.4242 H   0  0  0  0  0  0  0  0  0  0  0  0
    0.7336    1.4139    1.3621 H   0  0  0  0  0  0  0  0  0  0  0  0
   -0.1057    1.8227   -1.0590 H   0  0  0  0  0  0  0  0  0  0  0  0
    0.2272    0.1349   -1.3936 H   0  0  0  0  0  0  0  0  0  0  0  0
    2.3430    2.1464   -0.4820 H   0  0  0  0  0  0  0  0  0  0  0  0
    2.6161    0.4530   -0.8668 H   0  0  0  0  0  0  0  0  0  0  0  0
   -1.3917   -0.3890    2.0624 N   0  0  0  0  0  0  0  0  0  0  0  0
   -2.7166   -0.6973    2.5486 C   0  0  2  0  0  0  0  0  0  0  0  0
   -2.5795   -1.2841    3.9473 C   0  0  0  0  0  0  0  0  0  0  0  0
   -1.5459   -1.8089    4.3562 O   0  0  0  0  0  0  0  0  0  0  0  0
   -3.4350   -1.6650    1.6211 C   0  0  0  0  0  0  0  0  0  0  0  0
   -0.6061   -0.8595    2.5018 H   0  0  0  0  0  0  0  0  0  0  0  0
   -3.2627    0.2509    2.6016 H   0  0  0  0  0  0  0  0  0  0  0  0
   -2.9026   -2.6209    1.5553 H   0  0  0  0  0  0  0  0  0  0  0  0
   -4.4494   -1.8755    1.9759 H   0  0  0  0  0  0  0  0  0  0  0  0
   -3.5064   -1.2539    0.6084 H   0  0  0  0  0  0  0  0  0  0  0  0
   -3.7607   -1.1915    4.6701 N   0  0  0  0  0  0  0  0  0  0  0  0
   -3.8896   -1.6888    6.0200 C   0  0  0  0  0  0  0  0  0  0  0  0
   -4.5629   -0.7235    4.2588 H   0  0  0  0  0  0  0  0  0  0  0  0
   -4.2638   -2.7229    5.9961 H   0  0  0  0  0  0  0  0  0  0  0  0
   -2.9074   -1.6657    6.5145 H   0  0  0  0  0  0  0  0  0  0  0  0
   -4.5959   -1.0562    6.5777 H   0  0  0  0  0  0  0  0  0  0  0  0
  1  3  1  0  0  0  0
  1  7  1  0  0  0  0
  1  2  2  0  0  0  0
 33 34  1  0  0  0  0
 34 42  1  0  0  0  0
 34 35  2  0  0  0  0
  8  9  1  0  0  0  0
  9 17  1  0  0  0  0
  9 10  2  0  0  0  0
 18 19  1  0  0  0  0
 19 32  1  0  0  0  0
 19 20  2  0  0  0  0
 22 23  1  0  0  0  0
 23 24  1  0  0  0  0
 23 25  2  0  0  0  0
 33 36  1  0  0  0  0
  8 11  1  0  0  0  0
 42 43  1  0  0  0  0
 21 22  1  0  0  0  0
 18 21  1  0  0  0  0
 32 33  1  0  0  0  0
  7  8  1  0  0  0  0
 17 18  1  0  0  0  0
  3  4  1  0  0  0  0
  3  5  1  0  0  0  0
  3  6  1  0  0  0  0
 36 39  1  0  0  0  0
 36 40  1  0  0  0  0
 36 41  1  0  0  0  0
 11 14  1  0  0  0  0
 11 15  1  0  0  0  0
 11 16  1  0  0  0  0
 43 45  1  0  0  0  0
 43 46  1  0  0  0  0
 43 47  1  0  0  0  0
 22 30  1  0  0  0  0
 22 31  1  0  0  0  0
 21 28  1  0  0  0  0
 21 29  1  0  0  0  0
 33 38  1  0  0  0  0
  8 13  1  0  0  0  0
 18 27  1  0  0  0  0
 42 44  1  0  0  0  0
  7 12  1  0  0  0  0
 32 37  1  0  0  0  0
 17 26  1  0  0  0  0
M  CHG  1  24  -1
M  END
$$$$

  -OEChem-05262214473D

 47 46  0     1  0  0  0  0  0999 V2000
    0.5093   -4.7265    3.0306 C   0  0  0  0  0  0  0  0  0  0  0  0
    1.2735   -4.4402    3.9448 O   0  0  0  0  0  0  0  0  0  0  0  0
   -0.4465   -5.8608    3.1982 C   0  0  0  0  0  0  0  0  0  0  0  0
   -0.0219   -6.8213    2.8645 H   0  0  0  0  0  0  0  0  0  0  0  0
   -0.7314   -6.0185    4.2509 H   0  0  0  0  0  0  0  0  0  0  0  0
   -1.3983   -5.7596    2.6527 H   0  0  0  0  0  0  0  0  0  0  0  0
    0.4252   -4.0886    1.8040 N   0  0  0  0  0  0  0  0  0  0  0  0
    1.2532   -2.9707    1.4349 C   0  0  2  0  0  0  0  0  0  0  0  0
    0.3395   -1.8293    1.0083 C   0  0  0  0  0  0  0  0  0  0  0  0
   -0.8136   -2.0027    0.6194 O   0  0  0  0  0  0  0  0  0  0  0  0
    2.2176   -3.3411    0.3189 C   0  0  0  0  0  0  0  0  0  0  0  0
   -0.2574   -4.4279    1.1287 H   0  0  0  0  0  0  0  0  0  0  0  0
    1.8087   -2.6785    2.3327 H   0  0  0  0  0  0  0  0  0  0  0  0
    1.6793   -3.6366   -0.5890 H   0  0  0  0  0  0  0  0  0  0  0  0
    2.8662   -2.4980    0.0589 H   0  0  0  0  0  0  0  0  0  0  0  0
    2.8538   -4.1816    0.6166 H   0  0  0  0  0  0  0  0  0  0  0  0
    0.9758   -0.5952    1.0708 N   0  0  0  0  0  0  0  0  0  0  0  0
    0.3258    0.6374    0.7059 C   0  0  2  0  0  0  0  0  0  0  0  0
   -1.1616    0.4766    1.0022 C   0  0  0  0  0  0  0  0  0  0  0  0
   -2.0425    0.8625    0.2365 O   0  0  0  0  0  0  0  0  0  0  0  0
    0.5411    0.9843   -0.7721 C   0  0  0  0  0  0  0  0  0  0  0  0
    1.9920    1.3214   -1.1134 C   0  0  0  0  0  0  0  0  0  0  0  0
    2.2817    1.6548   -2.5806 C   0  0  0  0  0  0  0  0  0  0  0  0
    1.3013    1.4734   -3.3587 O   0  5  0  0  0  0  0  0  0  0  0  0
    3.4413    2.0797   -2.8397 O   0  0  0  0  0  0  0  0  0  0  0  0
    1.9288   -0.5463    1.4242 H   0  0  0  0  0  0  0  0  0  0  0  0
    0.7336    1.4139    1.3621 H   0  0  0  0  0  0  0  0  0  0  0  0
   -0.1057    1.8227   -1.0590 H   0  0  0  0  0  0  0  0  0  0  0  0
    0.2272    0.1349   -1.3936 H   0  0  0  0  0  0  0  0  0  0  0  0
    2.3430    2.1464   -0.4820 H   0  0  0  0  0  0  0  0  0  0  0  0
    2.6161    0.4530   -0.8668 H   0  0  0  0  0  0  0  0  0  0  0  0
   -1.3866   -0.1053    2.2419 N   0  0  0  0  0  0  0  0  0  0  0  0
   -2.7113   -0.3521    2.7626 C   0  0  2  0  0  0  0  0  0  0  0  0
   -2.5942   -0.5597    4.2669 C   0  0  0  0  0  0  0  0  0  0  0  0
   -1.5515   -0.9083    4.8167 O   0  0  0  0  0  0  0  0  0  0  0  0
   -3.3520   -1.5593    2.0956 C   0  0  0  0  0  0  0  0  0  0  0  0
   -0.5951   -0.4071    2.8024 H   0  0  0  0  0  0  0  0  0  0  0  0
   -3.3026    0.5481    2.5625 H   0  0  0  0  0  0  0  0  0  0  0  0
   -2.7735   -2.4709    2.2850 H   0  0  0  0  0  0  0  0  0  0  0  0
   -4.3667   -1.7279    2.4708 H   0  0  0  0  0  0  0  0  0  0  0  0
   -3.4082   -1.4208    1.0105 H   0  0  0  0  0  0  0  0  0  0  0  0
   -3.8020   -0.3518    4.9180 N   0  0  0  0  0  0  0  0  0  0  0  0
   -3.9531   -0.4994    6.3468 C   0  0  0  0  0  0  0  0  0  0  0  0
   -4.6109   -0.0462    4.3850 H   0  0  0  0  0  0  0  0  0  0  0  0
   -4.2774   -1.5248    6.5777 H   0  0  0  0  0  0  0  0  0  0  0  0
   -2.9902   -0.2998    6.8397 H   0  0  0  0  0  0  0  0  0  0  0  0
   -4.7066    0.2142    6.7114 H   0  0  0  0  0  0  0  0  0  0  0  0
  1  3  1  0  0  0  0
  1  7  1  0  0  0  0
  1  2  2  0  0  0  0
 33 34  1  0  0  0  0
 34 42  1  0  0  0  0
 34 35  2  0  0  0  0
  8  9  1  0  0  0  0
  9 17  1  0  0  0  0
  9 10  2  0  0  0  0
 18 19  1  0  0  0  0
 19 32  1  0  0  0  0
 19 20  2  0  0  0  0
 22 23  1  0  0  0  0
 23 24  1  0  0  0  0
 23 25  2  0  0  0  0
 33 36  1  0  0  0  0
  8 11  1  0  0  0  0
 42 43  1  0  0  0  0
 21 22  1  0  0  0  0
 18 21  1  0  0  0  0
 32 33  1  0  0  0  0
  7  8  1  0  0  0  0
 17 18  1  0  0  0  0
  3  4  1  0  0  0  0
  3  5  1  0  0  0  0
  3  6  1  0  0  0  0
 36 39  1  0  0  0  0
 36 40  1  0  0  0  0
 36 41  1  0  0  0  0
 11 14  1  0  0  0  0
 11 15  1  0  0  0  0
 11 16  1  0  0  0  0
 43 45  1  0  0  0  0
 43 46  1  0  0  0  0
 43 47  1  0  0  0  0
 22 30  1  0  0  0  0
 22 31  1  0  0  0  0
 21 28  1  0  0  0  0
 21 29  1  0  0  0  0
 33 38  1  0  0  0  0
  8 13  1  0  0  0  0
 18 27  1  0  0  0  0
 42 44  1  0  0  0  0
  7 12  1  0  0  0  0
 32 37  1  0  0  0  0
 17 26  1  0  0  0  0
M  CHG  1  24  -1
M  END
$$$$

  -OEChem-05262214473D

 47 46  0     1  0  0  0  0  0999 V2000
    0.5093   -4.7265    3.0306 C   0  0  0  0  0  0  0  0  0  0  0  0
    1.2735   -4.4402    3.9448 O   0  0  0  0  0  0  0  0  0  0  0  0
   -0.4465   -5.8608    3.1982 C   0  0  0  0  0  0  0  0  0  0  0  0
   -0.0219   -6.8213    2.8645 H   0  0  0  0  0  0  0  0  0  0  0  0
   -0.7314   -6.0185    4.2509 H   0  0  0  0  0  0  0  0  0  0  0  0
   -1.3983   -5.7596    2.6527 H   0  0  0  0  0  0  0  0  0  0  0  0
    0.4252   -4.0886    1.8040 N   0  0  0  0  0  0  0  0  0  0  0  0
    1.2532   -2.9707    1.4349 C   0  0  2  0  0  0  0  0  0  0  0  0
    0.3395   -1.8293    1.0083 C   0  0  0  0  0  0  0  0  0  0  0  0
   -0.8136   -2.0027    0.6194 O   0  0  0  0  0  0  0  0  0  0  0  0
    2.2176   -3.3411    0.3189 C   0  0  0  0  0  0  0  0  0  0  0  0
   -0.2574   -4.4279    1.1287 H   0  0  0  0  0  0  0  0  0  0  0  0
    1.8087   -2.6785    2.3327 H   0  0  0  0  0  0  0  0  0  0  0  0
    1.6793   -3.6366   -0.5890 H   0  0  0  0  0  0  0  0  0  0  0  0
    2.8662   -2.4980    0.0589 H   0  0  0  0  0  0  0  0  0  0  0  0
    2.8538   -4.1816    0.6166 H   0  0  0  0  0  0  0  0  0  0  0  0
    0.9758   -0.5952    1.0708 N   0  0  0  0  0  0  0  0  0  0  0  0
    0.3258    0.6374    0.7059 C   0  0  2  0  0  0  0  0  0  0  0  0
   -1.1616    0.4766    1.0022 C   0  0  0  0  0  0  0  0  0  0  0  0
   -2.0333    0.6094    0.1456 O   0  0  0  0  0  0  0  0  0  0  0  0
    0.5411    0.9843   -0.7721 C   0  0  0  0  0  0  0  0  0  0  0  0
    1.9920    1.3214   -1.1134 C   0  0  0  0  0  0  0  0  0  0  0  0
    2.2817    1.6548   -2.5806 C   0  0  0  0  0  0  0  0  0  0  0  0
    1.3013    1.4734   -3.3587 O   0  5  0  0  0  0  0  0  0  0  0  0
    3.4413    2.0797   -2.8397 O   0  0  0  0  0  0  0  0  0  0  0  0
    1.9288   -0.5463    1.4242 H   0  0  0  0  0  0  0  0  0  0  0  0
    0.7336    1.4139    1.3621 H   0  0  0  0  0  0  0  0  0  0  0  0
   -0.1057    1.8227   -1.0590 H   0  0  0  0  0  0  0  0  0  0  0  0
    0.2272    0.1349   -1.3936 H   0  0  0  0  0  0  0  0  0  0  0  0
    2.3430    2.1464   -0.4820 H   0  0  0  0  0  0  0  0  0  0  0  0
    2.6161    0.4530   -0.8668 H   0  0  0  0  0  0  0  0  0  0  0  0
   -1.4009    0.2143    2.3439 N   0  0  0  0  0  0  0  0  0  0  0  0
   -2.7293    0.0356    2.8824 C   0  0  2  0  0  0  0  0  0  0  0  0
   -2.6534    0.2200    4.3923 C   0  0  0  0  0  0  0  0  0  0  0  0
   -1.6147    0.0776    5.0341 O   0  0  0  0  0  0  0  0  0  0  0  0
   -3.2900   -1.3333    2.5295 C   0  0  0  0  0  0  0  0  0  0  0  0
   -0.6154    0.1063    2.9788 H   0  0  0  0  0  0  0  0  0  0  0  0
   -3.3550    0.8233    2.4487 H   0  0  0  0  0  0  0  0  0  0  0  0
   -2.6762   -2.1354    2.9554 H   0  0  0  0  0  0  0  0  0  0  0  0
   -4.3078   -1.4563    2.9140 H   0  0  0  0  0  0  0  0  0  0  0  0
   -3.3160   -1.4756    1.4437 H   0  0  0  0  0  0  0  0  0  0  0  0
   -3.8910    0.5198    4.9443 N   0  0  0  0  0  0  0  0  0  0  0  0
   -4.0831    0.7287    6.3605 C   0  0  0  0  0  0  0  0  0  0  0  0
   -4.6948    0.6374    4.3346 H   0  0  0  0  0  0  0  0  0  0  0  0
   -4.3667   -0.2215    6.8366 H   0  0  0  0  0  0  0  0  0  0  0  0
   -3.1477    1.0974    6.8068 H   0  0  0  0  0  0  0  0  0  0  0  0
   -4.8810    1.4696    6.5168 H   0  0  0  0  0  0  0  0  0  0  0  0
  1  3  1  0  0  0  0
  1  7  1  0  0  0  0
  1  2  2  0  0  0  0
 33 34  1  0  0  0  0
 34 42  1  0  0  0  0
 34 35  2  0  0  0  0
  8  9  1  0  0  0  0
  9 17  1  0  0  0  0
  9 10  2  0  0  0  0
 18 19  1  0  0  0  0
 19 32  1  0  0  0  0
 19 20  2  0  0  0  0
 22 23  1  0  0  0  0
 23 24  1  0  0  0  0
 23 25  2  0  0  0  0
 33 36  1  0  0  0  0
  8 11  1  0  0  0  0
 42 43  1  0  0  0  0
 21 22  1  0  0  0  0
 18 21  1  0  0  0  0
 32 33  1  0  0  0  0
  7  8  1  0  0  0  0
 17 18  1  0  0  0  0
  3  4  1  0  0  0  0
  3  5  1  0  0  0  0
  3  6  1  0  0  0  0
 36 39  1  0  0  0  0
 36 40  1  0  0  0  0
 36 41  1  0  0  0  0
 11 14  1  0  0  0  0
 11 15  1  0  0  0  0
 11 16  1  0  0  0  0
 43 45  1  0  0  0  0
 43 46  1  0  0  0  0
 43 47  1  0  0  0  0
 22 30  1  0  0  0  0
 22 31  1  0  0  0  0
 21 28  1  0  0  0  0
 21 29  1  0  0  0  0
 33 38  1  0  0  0  0
  8 13  1  0  0  0  0
 18 27  1  0  0  0  0
 42 44  1  0  0  0  0
  7 12  1  0  0  0  0
 32 37  1  0  0  0  0
 17 26  1  0  0  0  0
M  CHG  1  24  -1
M  END
$$$$

  -OEChem-05262214473D

 47 46  0     1  0  0  0  0  0999 V2000
    0.5093   -4.7265    3.0306 C   0  0  0  0  0  0  0  0  0  0  0  0
    1.2735   -4.4402    3.9448 O   0  0  0  0  0  0  0  0  0  0  0  0
   -0.4465   -5.8608    3.1982 C   0  0  0  0  0  0  0  0  0  0  0  0
   -0.0219   -6.8213    2.8645 H   0  0  0  0  0  0  0  0  0  0  0  0
   -0.7314   -6.0185    4.2509 H   0  0  0  0  0  0  0  0  0  0  0  0
   -1.3983   -5.7596    2.6527 H   0  0  0  0  0  0  0  0  0  0  0  0
    0.4252   -4.0886    1.8040 N   0  0  0  0  0  0  0  0  0  0  0  0
    1.2532   -2.9707    1.4349 C   0  0  2  0  0  0  0  0  0  0  0  0
    0.3395   -1.8293    1.0083 C   0  0  0  0  0  0  0  0  0  0  0  0
   -0.8136   -2.0027    0.6194 O   0  0  0  0  0  0  0  0  0  0  0  0
    2.2176   -3.3411    0.3189 C   0  0  0  0  0  0  0  0  0  0  0  0
   -0.2574   -4.4279    1.1287 H   0  0  0  0  0  0  0  0  0  0  0  0
    1.8087   -2.6785    2.3327 H   0  0  0  0  0  0  0  0  0  0  0  0
    1.6793   -3.6366   -0.5890 H   0  0  0  0  0  0  0  0  0  0  0  0
    2.8662   -2.4980    0.0589 H   0  0  0  0  0  0  0  0  0  0  0  0
    2.8538   -4.1816    0.6166 H   0  0  0  0  0  0  0  0  0  0  0  0
    0.9758   -0.5952    1.0708 N   0  0  0  0  0  0  0  0  0  0  0  0
    0.3258    0.6374    0.7059 C   0  0  2  0  0  0  0  0  0  0  0  0
   -1.1616    0.4766    1.0022 C   0  0  0  0  0  0  0  0  0  0  0  0
   -2.0091    0.3424    0.1219 O   0  0  0  0  0  0  0  0  0  0  0  0
    0.5411    0.9843   -0.7721 C   0  0  0  0  0  0  0  0  0  0  0  0
    1.9920    1.3214   -1.1134 C   0  0  0  0  0  0  0  0  0  0  0  0
    2.2817    1.6548   -2.5806 C   0  0  0  0  0  0  0  0  0  0  0  0
    1.3013    1.4734   -3.3587 O   0  5  0  0  0  0  0  0  0  0  0  0
    3.4413    2.0797   -2.8397 O   0  0  0  0  0  0  0  0  0  0  0  0
    1.9288   -0.5463    1.4242 H   0  0  0  0  0  0  0  0  0  0  0  0
    0.7336    1.4139    1.3621 H   0  0  0  0  0  0  0  0  0  0  0  0
   -0.1057    1.8227   -1.0590 H   0  0  0  0  0  0  0  0  0  0  0  0
    0.2272    0.1349   -1.3936 H   0  0  0  0  0  0  0  0  0  0  0  0
    2.3430    2.1464   -0.4820 H   0  0  0  0  0  0  0  0  0  0  0  0
    2.6161    0.4530   -0.8668 H   0  0  0  0  0  0  0  0  0  0  0  0
   -1.4334    0.5480    2.3613 N   0  0  0  0  0  0  0  0  0  0  0  0
   -2.7695    0.4395    2.8998 C   0  0  2  0  0  0  0  0  0  0  0  0
   -2.7533    1.0018    4.3151 C   0  0  0  0  0  0  0  0  0  0  0  0
   -1.7313    1.0816    4.9935 O   0  0  0  0  0  0  0  0  0  0  0  0
   -3.2533   -1.0023    2.8932 C   0  0  0  0  0  0  0  0  0  0  0  0
   -0.6657    0.6457    3.0191 H   0  0  0  0  0  0  0  0  0  0  0  0
   -3.4163    1.0578    2.2679 H   0  0  0  0  0  0  0  0  0  0  0  0
   -2.6174   -1.6371    3.5210 H   0  0  0  0  0  0  0  0  0  0  0  0
   -4.2767   -1.0791    3.2750 H   0  0  0  0  0  0  0  0  0  0  0  0
   -3.2360   -1.4145    1.8785 H   0  0  0  0  0  0  0  0  0  0  0  0
   -4.0214    1.3639    4.7473 N   0  0  0  0  0  0  0  0  0  0  0  0
   -4.2707    1.9119    6.0601 C   0  0  0  0  0  0  0  0  0  0  0  0
   -4.8089    1.2808    4.1110 H   0  0  0  0  0  0  0  0  0  0  0  0
   -4.5255    1.0983    6.7553 H   0  0  0  0  0  0  0  0  0  0  0  0
   -3.3693    2.4309    6.4179 H   0  0  0  0  0  0  0  0  0  0  0  0
   -5.1073    2.6242    6.0072 H   0  0  0  0  0  0  0  0  0  0  0  0
  1  3  1  0  0  0  0
  1  7  1  0  0  0  0
  1  2  2  0  0  0  0
 33 34  1  0  0  0  0
 34 42  1  0  0  0  0
 34 35  2  0  0  0  0
  8  9  1  0  0  0  0
  9 17  1  0  0  0  0
  9 10  2  0  0  0  0
 18 19  1  0  0  0  0
 19 32  1  0  0  0  0
 19 20  2  0  0  0  0
 22 23  1  0  0  0  0
 23 24  1  0  0  0  0
 23 25  2  0  0  0  0
 33 36  1  0  0  0  0
  8 11  1  0  0  0  0
 42 43  1  0  0  0  0
 21 22  1  0  0  0  0
 18 21  1  0  0  0  0
 32 33  1  0  0  0  0
  7  8  1  0  0  0  0
 17 18  1  0  0  0  0
  3  4  1  0  0  0  0
  3  5  1  0  0  0  0
  3  6  1  0  0  0  0
 36 39  1  0  0  0  0
 36 40  1  0  0  0  0
 36 41  1  0  0  0  0
 11 14  1  0  0  0  0
 11 15  1  0  0  0  0
 11 16  1  0  0  0  0
 43 45  1  0  0  0  0
 43 46  1  0  0  0  0
 43 47  1  0  0  0  0
 22 30  1  0  0  0  0
 22 31  1  0  0  0  0
 21 28  1  0  0  0  0
 21 29  1  0  0  0  0
 33 38  1  0  0  0  0
  8 13  1  0  0  0  0
 18 27  1  0  0  0  0
 42 44  1  0  0  0  0
  7 12  1  0  0  0  0
 32 37  1  0  0  0  0
 17 26  1  0  0  0  0
M  CHG  1  24  -1
M  END
$$$$

  -OEChem-05262214473D

 47 46  0     1  0  0  0  0  0999 V2000
    0.5093   -4.7265    3.0306 C   0  0  0  0  0  0  0  0  0  0  0  0
    1.2735   -4.4402    3.9448 O   0  0  0  0  0  0  0  0  0  0  0  0
   -0.4465   -5.8608    3.1982 C   0  0  0  0  0  0  0  0  0  0  0  0
   -0.0219   -6.8213    2.8645 H   0  0  0  0  0  0  0  0  0  0  0  0
   -0.7314   -6.0185    4.2509 H   0  0  0  0  0  0  0  0  0  0  0  0
   -1.3983   -5.7596    2.6527 H   0  0  0  0  0  0  0  0  0  0  0  0
    0.4252   -4.0886    1.8040 N   0  0  0  0  0  0  0  0  0  0  0  0
    1.2532   -2.9707    1.4349 C   0  0  2  0  0  0  0  0  0  0  0  0
    0.3395   -1.8293    1.0083 C   0  0  0  0  0  0  0  0  0  0  0  0
   -0.8136   -2.0027    0.6194 O   0  0  0  0  0  0  0  0  0  0  0  0
    2.2176   -3.3411    0.3189 C   0  0  0  0  0  0  0  0  0  0  0  0
   -0.2574   -4.4279    1.1287 H   0  0  0  0  0  0  0  0  0  0  0  0
    1.8087   -2.6785    2.3327 H   0  0  0  0  0  0  0  0  0  0  0  0
    1.6793   -3.6366   -0.5890 H   0  0  0  0  0  0  0  0  0  0  0  0
    2.8662   -2.4980    0.0589 H   0  0  0  0  0  0  0  0  0  0  0  0
    2.8538   -4.1816    0.6166 H   0  0  0  0  0  0  0  0  0  0  0  0
    0.9758   -0.5952    1.0708 N   0  0  0  0  0  0  0  0  0  0  0  0
    0.3258    0.6374    0.7059 C   0  0  2  0  0  0  0  0  0  0  0  0
   -1.1616    0.4766    1.0022 C   0  0  0  0  0  0  0  0  0  0  0  0
   -1.9718    0.0798    0.1671 O   0  0  0  0  0  0  0  0  0  0  0  0
    0.5411    0.9843   -0.7721 C   0  0  0  0  0  0  0  0  0  0  0  0
    1.9920    1.3214   -1.1134 C   0  0  0  0  0  0  0  0  0  0  0  0
    2.2817    1.6548   -2.5806 C   0  0  0  0  0  0  0  0  0  0  0  0
    1.3013    1.4734   -3.3587 O   0  5  0  0  0  0  0  0  0  0  0  0
    3.4413    2.0797   -2.8397 O   0  0  0  0  0  0  0  0  0  0  0  0
    1.9288   -0.5463    1.4242 H   0  0  0  0  0  0  0  0  0  0  0  0
    0.7336    1.4139    1.3621 H   0  0  0  0  0  0  0  0  0  0  0  0
   -0.1057    1.8227   -1.0590 H   0  0  0  0  0  0  0  0  0  0  0  0
    0.2272    0.1349   -1.3936 H   0  0  0  0  0  0  0  0  0  0  0  0
    2.3430    2.1464   -0.4820 H   0  0  0  0  0  0  0  0  0  0  0  0
    2.6161    0.4530   -0.8668 H   0  0  0  0  0  0  0  0  0  0  0  0
   -1.4822    0.8731    2.2931 N   0  0  0  0  0  0  0  0  0  0  0  0
   -2.8291    0.8319    2.8135 C   0  0  2  0  0  0  0  0  0  0  0  0
   -2.8870    1.7324    4.0404 C   0  0  0  0  0  0  0  0  0  0  0  0
   -1.8933    2.0353    4.6976 O   0  0  0  0  0  0  0  0  0  0  0  0
   -3.2444   -0.5889    3.1620 C   0  0  0  0  0  0  0  0  0  0  0  0
   -0.7424    1.1744    2.9205 H   0  0  0  0  0  0  0  0  0  0  0  0
   -3.4825    1.2356    2.0323 H   0  0  0  0  0  0  0  0  0  0  0  0
   -2.6011   -1.0101    3.9431 H   0  0  0  0  0  0  0  0  0  0  0  0
   -4.2754   -0.6221    3.5294 H   0  0  0  0  0  0  0  0  0  0  0  0
   -3.1736   -1.2418    2.2853 H   0  0  0  0  0  0  0  0  0  0  0  0
   -4.1845    2.1230    4.3404 N   0  0  0  0  0  0  0  0  0  0  0  0
   -4.5033    2.9695    5.4663 C   0  0  0  0  0  0  0  0  0  0  0  0
   -4.9453    1.8402    3.7296 H   0  0  0  0  0  0  0  0  0  0  0  0
   -4.7431    2.3446    6.3392 H   0  0  0  0  0  0  0  0  0  0  0  0
   -3.6397    3.6095    5.6998 H   0  0  0  0  0  0  0  0  0  0  0  0
   -5.3700    3.5995    5.2174 H   0  0  0  0  0  0  0  0  0  0  0  0
  1  3  1  0  0  0  0
  1  7  1  0  0  0  0
  1  2  2  0  0  0  0
 33 34  1  0  0  0  0
 34 42  1  0  0  0  0
 34 35  2  0  0  0  0
  8  9  1  0  0  0  0
  9 17  1  0  0  0  0
  9 10  2  0  0  0  0
 18 19  1  0  0  0  0
 19 32  1  0  0  0  0
 19 20  2  0  0  0  0
 22 23  1  0  0  0  0
 23 24  1  0  0  0  0
 23 25  2  0  0  0  0
 33 36  1  0  0  0  0
  8 11  1  0  0  0  0
 42 43  1  0  0  0  0
 21 22  1  0  0  0  0
 18 21  1  0  0  0  0
 32 33  1  0  0  0  0
  7  8  1  0  0  0  0
 17 18  1  0  0  0  0
  3  4  1  0  0  0  0
  3  5  1  0  0  0  0
  3  6  1  0  0  0  0
 36 39  1  0  0  0  0
 36 40  1  0  0  0  0
 36 41  1  0  0  0  0
 11 14  1  0  0  0  0
 11 15  1  0  0  0  0
 11 16  1  0  0  0  0
 43 45  1  0  0  0  0
 43 46  1  0  0  0  0
 43 47  1  0  0  0  0
 22 30  1  0  0  0  0
 22 31  1  0  0  0  0
 21 28  1  0  0  0  0
 21 29  1  0  0  0  0
 33 38  1  0  0  0  0
  8 13  1  0  0  0  0
 18 27  1  0  0  0  0
 42 44  1  0  0  0  0
  7 12  1  0  0  0  0
 32 37  1  0  0  0  0
 17 26  1  0  0  0  0
M  CHG  1  24  -1
M  END
$$$$

  -OEChem-05262214473D

 47 46  0     1  0  0  0  0  0999 V2000
    0.5093   -4.7265    3.0306 C   0  0  0  0  0  0  0  0  0  0  0  0
    1.2735   -4.4402    3.9448 O   0  0  0  0  0  0  0  0  0  0  0  0
   -0.4465   -5.8608    3.1982 C   0  0  0  0  0  0  0  0  0  0  0  0
   -0.0219   -6.8213    2.8645 H   0  0  0  0  0  0  0  0  0  0  0  0
   -0.7314   -6.0185    4.2509 H   0  0  0  0  0  0  0  0  0  0  0  0
   -1.3983   -5.7596    2.6527 H   0  0  0  0  0  0  0  0  0  0  0  0
    0.4252   -4.0886    1.8040 N   0  0  0  0  0  0  0  0  0  0  0  0
    1.2532   -2.9707    1.4349 C   0  0  2  0  0  0  0  0  0  0  0  0
    0.3395   -1.8293    1.0083 C   0  0  0  0  0  0  0  0  0  0  0  0
   -0.8136   -2.0027    0.6194 O   0  0  0  0  0  0  0  0  0  0  0  0
    2.2176   -3.3411    0.3189 C   0  0  0  0  0  0  0  0  0  0  0  0
   -0.2574   -4.4279    1.1287 H   0  0  0  0  0  0  0  0  0  0  0  0
    1.8087   -2.6785    2.3327 H   0  0  0  0  0  0  0  0  0  0  0  0
    1.6793   -3.6366   -0.5890 H   0  0  0  0  0  0  0  0  0  0  0  0
    2.8662   -2.4980    0.0589 H   0  0  0  0  0  0  0  0  0  0  0  0
    2.8538   -4.1816    0.6166 H   0  0  0  0  0  0  0  0  0  0  0  0
    0.9758   -0.5952    1.0708 N   0  0  0  0  0  0  0  0  0  0  0  0
    0.3258    0.6374    0.7059 C   0  0  2  0  0  0  0  0  0  0  0  0
   -1.1616    0.4766    1.0022 C   0  0  0  0  0  0  0  0  0  0  0  0
   -1.9237   -0.1606    0.2781 O   0  0  0  0  0  0  0  0  0  0  0  0
    0.5411    0.9843   -0.7721 C   0  0  0  0  0  0  0  0  0  0  0  0
    1.9920    1.3214   -1.1134 C   0  0  0  0  0  0  0  0  0  0  0  0
    2.2817    1.6548   -2.5806 C   0  0  0  0  0  0  0  0  0  0  0  0
    1.3013    1.4734   -3.3587 O   0  5  0  0  0  0  0  0  0  0  0  0
    3.4413    2.0797   -2.8397 O   0  0  0  0  0  0  0  0  0  0  0  0
    1.9288   -0.5463    1.4242 H   0  0  0  0  0  0  0  0  0  0  0  0
    0.7336    1.4139    1.3621 H   0  0  0  0  0  0  0  0  0  0  0  0
   -0.1057    1.8227   -1.0590 H   0  0  0  0  0  0  0  0  0  0  0  0
    0.2272    0.1349   -1.3936 H   0  0  0  0  0  0  0  0  0  0  0  0
    2.3430    2.1464   -0.4820 H   0  0  0  0  0  0  0  0  0  0  0  0
    2.6161    0.4530   -0.8668 H   0  0  0  0  0  0  0  0  0  0  0  0
   -1.5437    1.1675    2.1437 N   0  0  0  0  0  0  0  0  0  0  0  0
   -2.9040    1.1862    2.6294 C   0  0  2  0  0  0  0  0  0  0  0  0
   -3.0453    2.3621    3.5870 C   0  0  0  0  0  0  0  0  0  0  0  0
   -2.0896    2.8736    4.1667 O   0  0  0  0  0  0  0  0  0  0  0  0
   -3.2640   -0.1214    3.3175 C   0  0  0  0  0  0  0  0  0  0  0  0
   -0.8405    1.6563    2.6897 H   0  0  0  0  0  0  0  0  0  0  0  0
   -3.5488    1.3445    1.7581 H   0  0  0  0  0  0  0  0  0  0  0  0
   -2.6283   -0.2972    4.1930 H   0  0  0  0  0  0  0  0  0  0  0  0
   -4.3041   -0.1164    3.6598 H   0  0  0  0  0  0  0  0  0  0  0  0
   -3.1332   -0.9691    2.6363 H   0  0  0  0  0  0  0  0  0  0  0  0
   -4.3691    2.7452    3.7512 N   0  0  0  0  0  0  0  0  0  0  0  0
   -4.7649    3.8295    4.6193 C   0  0  0  0  0  0  0  0  0  0  0  0
   -5.0948    2.2773    3.2163 H   0  0  0  0  0  0  0  0  0  0  0  0
   -5.0045    3.4325    5.6168 H   0  0  0  0  0  0  0  0  0  0  0  0
   -3.9406    4.5532    4.7011 H   0  0  0  0  0  0  0  0  0  0  0  0
   -5.6512    4.3290    4.2011 H   0  0  0  0  0  0  0  0  0  0  0  0
  1  3  1  0  0  0  0
  1  7  1  0  0  0  0
  1  2  2  0  0  0  0
 33 34  1  0  0  0  0
 34 42  1  0  0  0  0
 34 35  2  0  0  0  0
  8  9  1  0  0  0  0
  9 17  1  0  0  0  0
  9 10  2  0  0  0  0
 18 19  1  0  0  0  0
 19 32  1  0  0  0  0
 19 20  2  0  0  0  0
 22 23  1  0  0  0  0
 23 24  1  0  0  0  0
 23 25  2  0  0  0  0
 33 36  1  0  0  0  0
  8 11  1  0  0  0  0
 42 43  1  0  0  0  0
 21 22  1  0  0  0  0
 18 21  1  0  0  0  0
 32 33  1  0  0  0  0
  7  8  1  0  0  0  0
 17 18  1  0  0  0  0
  3  4  1  0  0  0  0
  3  5  1  0  0  0  0
  3  6  1  0  0  0  0
 36 39  1  0  0  0  0
 36 40  1  0  0  0  0
 36 41  1  0  0  0  0
 11 14  1  0  0  0  0
 11 15  1  0  0  0  0
 11 16  1  0  0  0  0
 43 45  1  0  0  0  0
 43 46  1  0  0  0  0
 43 47  1  0  0  0  0
 22 30  1  0  0  0  0
 22 31  1  0  0  0  0
 21 28  1  0  0  0  0
 21 29  1  0  0  0  0
 33 38  1  0  0  0  0
  8 13  1  0  0  0  0
 18 27  1  0  0  0  0
 42 44  1  0  0  0  0
  7 12  1  0  0  0  0
 32 37  1  0  0  0  0
 17 26  1  0  0  0  0
M  CHG  1  24  -1
M  END
$$$$

  -OEChem-05262214473D

 47 46  0     1  0  0  0  0  0999 V2000
    0.5093   -4.7265    3.0306 C   0  0  0  0  0  0  0  0  0  0  0  0
    1.2735   -4.4402    3.9448 O   0  0  0  0  0  0  0  0  0  0  0  0
   -0.4465   -5.8608    3.1982 C   0  0  0  0  0  0  0  0  0  0  0  0
   -0.0219   -6.8213    2.8645 H   0  0  0  0  0  0  0  0  0  0  0  0
   -0.7314   -6.0185    4.2509 H   0  0  0  0  0  0  0  0  0  0  0  0
   -1.3983   -5.7596    2.6527 H   0  0  0  0  0  0  0  0  0  0  0  0
    0.4252   -4.0886    1.8040 N   0  0  0  0  0  0  0  0  0  0  0  0
    1.2532   -2.9707    1.4349 C   0  0  2  0  0  0  0  0  0  0  0  0
    0.3395   -1.8293    1.0083 C   0  0  0  0  0  0  0  0  0  0  0  0
   -0.8136   -2.0027    0.6194 O   0  0  0  0  0  0  0  0  0  0  0  0
    2.2176   -3.3411    0.3189 C   0  0  0  0  0  0  0  0  0  0  0  0
   -0.2574   -4.4279    1.1287 H   0  0  0  0  0  0  0  0  0  0  0  0
    1.8087   -2.6785    2.3327 H   0  0  0  0  0  0  0  0  0  0  0  0
    1.6793   -3.6366   -0.5890 H   0  0  0  0  0  0  0  0  0  0  0  0
    2.8662   -2.4980    0.0589 H   0  0  0  0  0  0  0  0  0  0  0  0
    2.8538   -4.1816    0.6166 H   0  0  0  0  0  0  0  0  0  0  0  0
    0.9758   -0.5952    1.0708 N   0  0  0  0  0  0  0  0  0  0  0  0
    0.3258    0.6374    0.7059 C   0  0  2  0  0  0  0  0  0  0  0  0
   -1.1616    0.4766    1.0022 C   0  0  0  0  0  0  0  0  0  0  0  0
   -1.8682   -0.3624    0.4472 O   0  0  0  0  0  0  0  0  0  0  0  0
    0.5411    0.9843   -0.7721 C   0  0  0  0  0  0  0  0  0  0  0  0
    1.9920    1.3214   -1.1134 C   0  0  0  0  0  0  0  0  0  0  0  0
    2.2817    1.6548   -2.5806 C   0  0  0  0  0  0  0  0  0  0  0  0
    1.3013    1.4734   -3.3587 O   0  5  0  0  0  0  0  0  0  0  0  0
    3.4413    2.0797   -2.8397 O   0  0  0  0  0  0  0  0  0  0  0  0
    1.9288   -0.5463    1.4242 H   0  0  0  0  0  0  0  0  0  0  0  0
    0.7336    1.4139    1.3621 H   0  0  0  0  0  0  0  0  0  0  0  0
   -0.1057    1.8227   -1.0590 H   0  0  0  0  0  0  0  0  0  0  0  0
    0.2272    0.1349   -1.3936 H   0  0  0  0  0  0  0  0  0  0  0  0
    2.3430    2.1464   -0.4820 H   0  0  0  0  0  0  0  0  0  0  0  0
    2.6161    0.4530   -0.8668 H   0  0  0  0  0  0  0  0  0  0  0  0
   -1.6139    1.4110    1.9235 N   0  0  0  0  0  0  0  0  0  0  0  0
   -2.9892    1.4782    2.3602 C   0  0  2  0  0  0  0  0  0  0  0  0
   -3.2176    2.8479    2.9858 C   0  0  0  0  0  0  0  0  0  0  0  0
   -2.3070    3.5395    3.4369 O   0  0  0  0  0  0  0  0  0  0  0  0
   -3.3106    0.3686    3.3492 C   0  0  0  0  0  0  0  0  0  0  0  0
   -0.9531    2.0586    2.3425 H   0  0  0  0  0  0  0  0  0  0  0  0
   -3.6110    1.3772    1.4640 H   0  0  0  0  0  0  0  0  0  0  0  0
   -2.6973    0.4533    4.2537 H   0  0  0  0  0  0  0  0  0  0  0  0
   -4.3607    0.4036    3.6574 H   0  0  0  0  0  0  0  0  0  0  0  0
   -3.1174   -0.6151    2.9076 H   0  0  0  0  0  0  0  0  0  0  0  0
   -4.5626    3.1883    3.0201 N   0  0  0  0  0  0  0  0  0  0  0  0
   -5.0378    4.4333    3.5770 C   0  0  0  0  0  0  0  0  0  0  0  0
   -5.2471    2.5624    2.6060 H   0  0  0  0  0  0  0  0  0  0  0  0
   -5.2921    4.2879    4.6373 H   0  0  0  0  0  0  0  0  0  0  0  0
   -4.2514    5.1975    3.4902 H   0  0  0  0  0  0  0  0  0  0  0  0
   -5.9319    4.7630    3.0276 H   0  0  0  0  0  0  0  0  0  0  0  0
  1  3  1  0  0  0  0
  1  7  1  0  0  0  0
  1  2  2  0  0  0  0
 33 34  1  0  0  0  0
 34 42  1  0  0  0  0
 34 35  2  0  0  0  0
  8  9  1  0  0  0  0
  9 17  1  0  0  0  0
  9 10  2  0  0  0  0
 18 19  1  0  0  0  0
 19 32  1  0  0  0  0
 19 20  2  0  0  0  0
 22 23  1  0  0  0  0
 23 24  1  0  0  0  0
 23 25  2  0  0  0  0
 33 36  1  0  0  0  0
  8 11  1  0  0  0  0
 42 43  1  0  0  0  0
 21 22  1  0  0  0  0
 18 21  1  0  0  0  0
 32 33  1  0  0  0  0
  7  8  1  0  0  0  0
 17 18  1  0  0  0  0
  3  4  1  0  0  0  0
  3  5  1  0  0  0  0
  3  6  1  0  0  0  0
 36 39  1  0  0  0  0
 36 40  1  0  0  0  0
 36 41  1  0  0  0  0
 11 14  1  0  0  0  0
 11 15  1  0  0  0  0
 11 16  1  0  0  0  0
 43 45  1  0  0  0  0
 43 46  1  0  0  0  0
 43 47  1  0  0  0  0
 22 30  1  0  0  0  0
 22 31  1  0  0  0  0
 21 28  1  0  0  0  0
 21 29  1  0  0  0  0
 33 38  1  0  0  0  0
  8 13  1  0  0  0  0
 18 27  1  0  0  0  0
 42 44  1  0  0  0  0
  7 12  1  0  0  0  0
 32 37  1  0  0  0  0
 17 26  1  0  0  0  0
M  CHG  1  24  -1
M  END
$$$$

  -OEChem-05262214473D

 47 46  0     1  0  0  0  0  0999 V2000
    0.5093   -4.7265    3.0306 C   0  0  0  0  0  0  0  0  0  0  0  0
    1.2735   -4.4402    3.9448 O   0  0  0  0  0  0  0  0  0  0  0  0
   -0.4465   -5.8608    3.1982 C   0  0  0  0  0  0  0  0  0  0  0  0
   -0.0219   -6.8213    2.8645 H   0  0  0  0  0  0  0  0  0  0  0  0
   -0.7314   -6.0185    4.2509 H   0  0  0  0  0  0  0  0  0  0  0  0
   -1.3983   -5.7596    2.6527 H   0  0  0  0  0  0  0  0  0  0  0  0
    0.4252   -4.0886    1.8040 N   0  0  0  0  0  0  0  0  0  0  0  0
    1.2532   -2.9707    1.4349 C   0  0  2  0  0  0  0  0  0  0  0  0
    0.3395   -1.8293    1.0083 C   0  0  0  0  0  0  0  0  0  0  0  0
   -0.8136   -2.0027    0.6194 O   0  0  0  0  0  0  0  0  0  0  0  0
    2.2176   -3.3411    0.3189 C   0  0  0  0  0  0  0  0  0  0  0  0
   -0.2574   -4.4279    1.1287 H   0  0  0  0  0  0  0  0  0  0  0  0
    1.8087   -2.6785    2.3327 H   0  0  0  0  0  0  0  0  0  0  0  0
    1.6793   -3.6366   -0.5890 H   0  0  0  0  0  0  0  0  0  0  0  0
    2.8662   -2.4980    0.0589 H   0  0  0  0  0  0  0  0  0  0  0  0
    2.8538   -4.1816    0.6166 H   0  0  0  0  0  0  0  0  0  0  0  0
    0.9758   -0.5952    1.0708 N   0  0  0  0  0  0  0  0  0  0  0  0
    0.3258    0.6374    0.7059 C   0  0  2  0  0  0  0  0  0  0  0  0
   -1.1616    0.4766    1.0022 C   0  0  0  0  0  0  0  0  0  0  0  0
   -1.8090   -0.5118    0.6631 O   0  0  0  0  0  0  0  0  0  0  0  0
    0.5411    0.9843   -0.7721 C   0  0  0  0  0  0  0  0  0  0  0  0
    1.9920    1.3214   -1.1134 C   0  0  0  0  0  0  0  0  0  0  0  0
    2.2817    1.6548   -2.5806 C   0  0  0  0  0  0  0  0  0  0  0  0
    1.3013    1.4734   -3.3587 O   0  5  0  0  0  0  0  0  0  0  0  0
    3.4413    2.0797   -2.8397 O   0  0  0  0  0  0  0  0  0  0  0  0
    1.9288   -0.5463    1.4242 H   0  0  0  0  0  0  0  0  0  0  0  0
    0.7336    1.4139    1.3621 H   0  0  0  0  0  0  0  0  0  0  0  0
   -0.1057    1.8227   -1.0590 H   0  0  0  0  0  0  0  0  0  0  0  0
    0.2272    0.1349   -1.3936 H   0  0  0  0  0  0  0  0  0  0  0  0
    2.3430    2.1464   -0.4820 H   0  0  0  0  0  0  0  0  0  0  0  0
    2.6161    0.4530   -0.8668 H   0  0  0  0  0  0  0  0  0  0  0  0
   -1.6879    1.5871    1.6473 N   0  0  0  0  0  0  0  0  0  0  0  0
   -3.0788    1.6880    2.0241 C   0  0  2  0  0  0  0  0  0  0  0  0
   -3.3920    3.1567    2.2777 C   0  0  0  0  0  0  0  0  0  0  0  0
   -2.5305    3.9876    2.5579 O   0  0  0  0  0  0  0  0  0  0  0  0
   -3.3811    0.8474    3.2548 C   0  0  0  0  0  0  0  0  0  0  0  0
   -1.0727    2.3539    1.9024 H   0  0  0  0  0  0  0  0  0  0  0  0
   -3.6646    1.3313    1.1699 H   0  0  0  0  0  0  0  0  0  0  0  0
   -2.8034    1.1899    4.1211 H   0  0  0  0  0  0  0  0  0  0  0  0
   -4.4416    0.9024    3.5222 H   0  0  0  0  0  0  0  0  0  0  0  0
   -3.1274   -0.2038    3.0807 H   0  0  0  0  0  0  0  0  0  0  0  0
   -4.7519    3.4219    2.1968 N   0  0  0  0  0  0  0  0  0  0  0  0
   -5.3033    4.7396    2.4104 C   0  0  0  0  0  0  0  0  0  0  0  0
   -5.3920    2.6761    1.9404 H   0  0  0  0  0  0  0  0  0  0  0  0
   -5.5861    4.8524    3.4675 H   0  0  0  0  0  0  0  0  0  0  0  0
   -4.5510    5.4985    2.1493 H   0  0  0  0  0  0  0  0  0  0  0  0
   -6.1927    4.8719    1.7769 H   0  0  0  0  0  0  0  0  0  0  0  0
  1  3  1  0  0  0  0
  1  7  1  0  0  0  0
  1  2  2  0  0  0  0
 33 34  1  0  0  0  0
 34 42  1  0  0  0  0
 34 35  2  0  0  0  0
  8  9  1  0  0  0  0
  9 17  1  0  0  0  0
  9 10  2  0  0  0  0
 18 19  1  0  0  0  0
 19 32  1  0  0  0  0
 19 20  2  0  0  0  0
 22 23  1  0  0  0  0
 23 24  1  0  0  0  0
 23 25  2  0  0  0  0
 33 36  1  0  0  0  0
  8 11  1  0  0  0  0
 42 43  1  0  0  0  0
 21 22  1  0  0  0  0
 18 21  1  0  0  0  0
 32 33  1  0  0  0  0
  7  8  1  0  0  0  0
 17 18  1  0  0  0  0
  3  4  1  0  0  0  0
  3  5  1  0  0  0  0
  3  6  1  0  0  0  0
 36 39  1  0  0  0  0
 36 40  1  0  0  0  0
 36 41  1  0  0  0  0
 11 14  1  0  0  0  0
 11 15  1  0  0  0  0
 11 16  1  0  0  0  0
 43 45  1  0  0  0  0
 43 46  1  0  0  0  0
 43 47  1  0  0  0  0
 22 30  1  0  0  0  0
 22 31  1  0  0  0  0
 21 28  1  0  0  0  0
 21 29  1  0  0  0  0
 33 38  1  0  0  0  0
  8 13  1  0  0  0  0
 18 27  1  0  0  0  0
 42 44  1  0  0  0  0
  7 12  1  0  0  0  0
 32 37  1  0  0  0  0
 17 26  1  0  0  0  0
M  CHG  1  24  -1
M  END
$$$$

  -OEChem-05262214473D

 47 46  0     1  0  0  0  0  0999 V2000
    0.5093   -4.7265    3.0306 C   0  0  0  0  0  0  0  0  0  0  0  0
    1.2735   -4.4402    3.9448 O   0  0  0  0  0  0  0  0  0  0  0  0
   -0.4465   -5.8608    3.1982 C   0  0  0  0  0  0  0  0  0  0  0  0
   -0.0219   -6.8213    2.8645 H   0  0  0  0  0  0  0  0  0  0  0  0
   -0.7314   -6.0185    4.2509 H   0  0  0  0  0  0  0  0  0  0  0  0
   -1.3983   -5.7596    2.6527 H   0  0  0  0  0  0  0  0  0  0  0  0
    0.4252   -4.0886    1.8040 N   0  0  0  0  0  0  0  0  0  0  0  0
    1.2532   -2.9707    1.4349 C   0  0  2  0  0  0  0  0  0  0  0  0
    0.3395   -1.8293    1.0083 C   0  0  0  0  0  0  0  0  0  0  0  0
   -0.8136   -2.0027    0.6194 O   0  0  0  0  0  0  0  0  0  0  0  0
    2.2176   -3.3411    0.3189 C   0  0  0  0  0  0  0  0  0  0  0  0
   -0.2574   -4.4279    1.1287 H   0  0  0  0  0  0  0  0  0  0  0  0
    1.8087   -2.6785    2.3327 H   0  0  0  0  0  0  0  0  0  0  0  0
    1.6793   -3.6366   -0.5890 H   0  0  0  0  0  0  0  0  0  0  0  0
    2.8662   -2.4980    0.0589 H   0  0  0  0  0  0  0  0  0  0  0  0
    2.8538   -4.1816    0.6166 H   0  0  0  0  0  0  0  0  0  0  0  0
    0.9758   -0.5952    1.0708 N   0  0  0  0  0  0  0  0  0  0  0  0
    0.3258    0.6374    0.7059 C   0  0  2  0  0  0  0  0  0  0  0  0
   -1.1616    0.4766    1.0022 C   0  0  0  0  0  0  0  0  0  0  0  0
   -1.7503   -0.5987    0.9109 O   0  0  0  0  0  0  0  0  0  0  0  0
    0.5411    0.9843   -0.7721 C   0  0  0  0  0  0  0  0  0  0  0  0
    1.9920    1.3214   -1.1134 C   0  0  0  0  0  0  0  0  0  0  0  0
    2.2817    1.6548   -2.5806 C   0  0  0  0  0  0  0  0  0  0  0  0
    1.3013    1.4734   -3.3587 O   0  5  0  0  0  0  0  0  0  0  0  0
    3.4413    2.0797   -2.8397 O   0  0  0  0  0  0  0  0  0  0  0  0
    1.9288   -0.5463    1.4242 H   0  0  0  0  0  0  0  0  0  0  0  0
    0.7336    1.4139    1.3621 H   0  0  0  0  0  0  0  0  0  0  0  0
   -0.1057    1.8227   -1.0590 H   0  0  0  0  0  0  0  0  0  0  0  0
    0.2272    0.1349   -1.3936 H   0  0  0  0  0  0  0  0  0  0  0  0
    2.3430    2.1464   -0.4820 H   0  0  0  0  0  0  0  0  0  0  0  0
    2.6161    0.4530   -0.8668 H   0  0  0  0  0  0  0  0  0  0  0  0
   -1.7608    1.6838    1.3342 N   0  0  0  0  0  0  0  0  0  0  0  0
   -3.1668    1.8013    1.6441 C   0  0  2  0  0  0  0  0  0  0  0  0
   -3.5567    3.2676    1.5111 C   0  0  0  0  0  0  0  0  0  0  0  0
   -2.7449    4.1873    1.5897 O   0  0  0  0  0  0  0  0  0  0  0  0
   -3.4708    1.2826    3.0409 C   0  0  0  0  0  0  0  0  0  0  0  0
   -1.1910    2.5221    1.3996 H   0  0  0  0  0  0  0  0  0  0  0  0
   -3.7061    1.2101    0.8959 H   0  0  0  0  0  0  0  0  0  0  0  0
   -2.9392    1.8627    3.8041 H   0  0  0  0  0  0  0  0  0  0  0  0
   -4.5410    1.3460    3.2635 H   0  0  0  0  0  0  0  0  0  0  0  0
   -3.1624    0.2366    3.1439 H   0  0  0  0  0  0  0  0  0  0  0  0
   -4.9239    3.4303    1.3373 N   0  0  0  0  0  0  0  0  0  0  0  0
   -5.5433    4.7277    1.1990 C   0  0  0  0  0  0  0  0  0  0  0  0
   -5.5195    2.6107    1.2648 H   0  0  0  0  0  0  0  0  0  0  0  0
   -5.8666    5.0875    2.1869 H   0  0  0  0  0  0  0  0  0  0  0  0
   -4.8190    5.4358    0.7700 H   0  0  0  0  0  0  0  0  0  0  0  0
   -6.4161    4.6482    0.5342 H   0  0  0  0  0  0  0  0  0  0  0  0
  1  3  1  0  0  0  0
  1  7  1  0  0  0  0
  1  2  2  0  0  0  0
 33 34  1  0  0  0  0
 34 42  1  0  0  0  0
 34 35  2  0  0  0  0
  8  9  1  0  0  0  0
  9 17  1  0  0  0  0
  9 10  2  0  0  0  0
 18 19  1  0  0  0  0
 19 32  1  0  0  0  0
 19 20  2  0  0  0  0
 22 23  1  0  0  0  0
 23 24  1  0  0  0  0
 23 25  2  0  0  0  0
 33 36  1  0  0  0  0
  8 11  1  0  0  0  0
 42 43  1  0  0  0  0
 21 22  1  0  0  0  0
 18 21  1  0  0  0  0
 32 33  1  0  0  0  0
  7  8  1  0  0  0  0
 17 18  1  0  0  0  0
  3  4  1  0  0  0  0
  3  5  1  0  0  0  0
  3  6  1  0  0  0  0
 36 39  1  0  0  0  0
 36 40  1  0  0  0  0
 36 41  1  0  0  0  0
 11 14  1  0  0  0  0
 11 15  1  0  0  0  0
 11 16  1  0  0  0  0
 43 45  1  0  0  0  0
 43 46  1  0  0  0  0
 43 47  1  0  0  0  0
 22 30  1  0  0  0  0
 22 31  1  0  0  0  0
 21 28  1  0  0  0  0
 21 29  1  0  0  0  0
 33 38  1  0  0  0  0
  8 13  1  0  0  0  0
 18 27  1  0  0  0  0
 42 44  1  0  0  0  0
  7 12  1  0  0  0  0
 32 37  1  0  0  0  0
 17 26  1  0  0  0  0
M  CHG  1  24  -1
M  END
$$$$

  -OEChem-05262214473D

 47 46  0     1  0  0  0  0  0999 V2000
    0.5093   -4.7265    3.0306 C   0  0  0  0  0  0  0  0  0  0  0  0
    1.2735   -4.4402    3.9448 O   0  0  0  0  0  0  0  0  0  0  0  0
   -0.4465   -5.8608    3.1982 C   0  0  0  0  0  0  0  0  0  0  0  0
   -0.0219   -6.8213    2.8645 H   0  0  0  0  0  0  0  0  0  0  0  0
   -0.7314   -6.0185    4.2509 H   0  0  0  0  0  0  0  0  0  0  0  0
   -1.3983   -5.7596    2.6527 H   0  0  0  0  0  0  0  0  0  0  0  0
    0.4252   -4.0886    1.8040 N   0  0  0  0  0  0  0  0  0  0  0  0
    1.2532   -2.9707    1.4349 C   0  0  2  0  0  0  0  0  0  0  0  0
    0.3395   -1.8293    1.0083 C   0  0  0  0  0  0  0  0  0  0  0  0
   -0.8136   -2.0027    0.6194 O   0  0  0  0  0  0  0  0  0  0  0  0
    2.2176   -3.3411    0.3189 C   0  0  0  0  0  0  0  0  0  0  0  0
   -0.2574   -4.4279    1.1287 H   0  0  0  0  0  0  0  0  0  0  0  0
    1.8087   -2.6785    2.3327 H   0  0  0  0  0  0  0  0  0  0  0  0
    1.6793   -3.6366   -0.5890 H   0  0  0  0  0  0  0  0  0  0  0  0
    2.8662   -2.4980    0.0589 H   0  0  0  0  0  0  0  0  0  0  0  0
    2.8538   -4.1816    0.6166 H   0  0  0  0  0  0  0  0  0  0  0  0
    0.9758   -0.5952    1.0708 N   0  0  0  0  0  0  0  0  0  0  0  0
    0.3258    0.6374    0.7059 C   0  0  2  0  0  0  0  0  0  0  0  0
   -1.1616    0.4766    1.0022 C   0  0  0  0  0  0  0  0  0  0  0  0
   -1.6959   -0.6171    1.1738 O   0  0  0  0  0  0  0  0  0  0  0  0
    0.5411    0.9843   -0.7721 C   0  0  0  0  0  0  0  0  0  0  0  0
    1.9920    1.3214   -1.1134 C   0  0  0  0  0  0  0  0  0  0  0  0
    2.2817    1.6548   -2.5806 C   0  0  0  0  0  0  0  0  0  0  0  0
    1.3013    1.4734   -3.3587 O   0  5  0  0  0  0  0  0  0  0  0  0
    3.4413    2.0797   -2.8397 O   0  0  0  0  0  0  0  0  0  0  0  0
    1.9288   -0.5463    1.4242 H   0  0  0  0  0  0  0  0  0  0  0  0
    0.7336    1.4139    1.3621 H   0  0  0  0  0  0  0  0  0  0  0  0
   -0.1057    1.8227   -1.0590 H   0  0  0  0  0  0  0  0  0  0  0  0
    0.2272    0.1349   -1.3936 H   0  0  0  0  0  0  0  0  0  0  0  0
    2.3430    2.1464   -0.4820 H   0  0  0  0  0  0  0  0  0  0  0  0
    2.6161    0.4530   -0.8668 H   0  0  0  0  0  0  0  0  0  0  0  0
   -1.8274    1.6944    1.0052 N   0  0  0  0  0  0  0  0  0  0  0  0
   -3.2471    1.8104    1.2460 C   0  0  2  0  0  0  0  0  0  0  0  0
   -3.7004    3.1728    0.7381 C   0  0  0  0  0  0  0  0  0  0  0  0
   -2.9356    4.1250    0.5983 O   0  0  0  0  0  0  0  0  0  0  0  0
   -3.5734    1.6445    2.7220 C   0  0  0  0  0  0  0  0  0  0  0  0
   -1.3000    2.5516    0.8682 H   0  0  0  0  0  0  0  0  0  0  0  0
   -3.7325    1.0218    0.6608 H   0  0  0  0  0  0  0  0  0  0  0  0
   -3.0956    2.4257    3.3244 H   0  0  0  0  0  0  0  0  0  0  0  0
   -4.6523    1.7042    2.8990 H   0  0  0  0  0  0  0  0  0  0  0  0
   -3.2201    0.6762    3.0928 H   0  0  0  0  0  0  0  0  0  0  0  0
   -5.0672    3.2128    0.5004 N   0  0  0  0  0  0  0  0  0  0  0  0
   -5.7415    4.3984    0.0253 C   0  0  0  0  0  0  0  0  0  0  0  0
   -5.6209    2.3705    0.6253 H   0  0  0  0  0  0  0  0  0  0  0  0
   -6.1144    4.9774    0.8830 H   0  0  0  0  0  0  0  0  0  0  0  0
   -5.0370    5.0136   -0.5538 H   0  0  0  0  0  0  0  0  0  0  0  0
   -6.5867    4.1073   -0.6157 H   0  0  0  0  0  0  0  0  0  0  0  0
  1  3  1  0  0  0  0
  1  7  1  0  0  0  0
  1  2  2  0  0  0  0
 33 34  1  0  0  0  0
 34 42  1  0  0  0  0
 34 35  2  0  0  0  0
  8  9  1  0  0  0  0
  9 17  1  0  0  0  0
  9 10  2  0  0  0  0
 18 19  1  0  0  0  0
 19 32  1  0  0  0  0
 19 20  2  0  0  0  0
 22 23  1  0  0  0  0
 23 24  1  0  0  0  0
 23 25  2  0  0  0  0
 33 36  1  0  0  0  0
  8 11  1  0  0  0  0
 42 43  1  0  0  0  0
 21 22  1  0  0  0  0
 18 21  1  0  0  0  0
 32 33  1  0  0  0  0
  7  8  1  0  0  0  0
 17 18  1  0  0  0  0
  3  4  1  0  0  0  0
  3  5  1  0  0  0  0
  3  6  1  0  0  0  0
 36 39  1  0  0  0  0
 36 40  1  0  0  0  0
 36 41  1  0  0  0  0
 11 14  1  0  0  0  0
 11 15  1  0  0  0  0
 11 16  1  0  0  0  0
 43 45  1  0  0  0  0
 43 46  1  0  0  0  0
 43 47  1  0  0  0  0
 22 30  1  0  0  0  0
 22 31  1  0  0  0  0
 21 28  1  0  0  0  0
 21 29  1  0  0  0  0
 33 38  1  0  0  0  0
  8 13  1  0  0  0  0
 18 27  1  0  0  0  0
 42 44  1  0  0  0  0
  7 12  1  0  0  0  0
 32 37  1  0  0  0  0
 17 26  1  0  0  0  0
M  CHG  1  24  -1
M  END
$$$$

  -OEChem-05262214473D

 47 46  0     1  0  0  0  0  0999 V2000
    0.5093   -4.7265    3.0306 C   0  0  0  0  0  0  0  0  0  0  0  0
    1.2735   -4.4402    3.9448 O   0  0  0  0  0  0  0  0  0  0  0  0
   -0.4465   -5.8608    3.1982 C   0  0  0  0  0  0  0  0  0  0  0  0
   -0.0219   -6.8213    2.8645 H   0  0  0  0  0  0  0  0  0  0  0  0
   -0.7314   -6.0185    4.2509 H   0  0  0  0  0  0  0  0  0  0  0  0
   -1.3983   -5.7596    2.6527 H   0  0  0  0  0  0  0  0  0  0  0  0
    0.4252   -4.0886    1.8040 N   0  0  0  0  0  0  0  0  0  0  0  0
    1.2532   -2.9707    1.4349 C   0  0  2  0  0  0  0  0  0  0  0  0
    0.3395   -1.8293    1.0083 C   0  0  0  0  0  0  0  0  0  0  0  0
   -0.8136   -2.0027    0.6194 O   0  0  0  0  0  0  0  0  0  0  0  0
    2.2176   -3.3411    0.3189 C   0  0  0  0  0  0  0  0  0  0  0  0
   -0.2574   -4.4279    1.1287 H   0  0  0  0  0  0  0  0  0  0  0  0
    1.8087   -2.6785    2.3327 H   0  0  0  0  0  0  0  0  0  0  0  0
    1.6793   -3.6366   -0.5890 H   0  0  0  0  0  0  0  0  0  0  0  0
    2.8662   -2.4980    0.0589 H   0  0  0  0  0  0  0  0  0  0  0  0
    2.8538   -4.1816    0.6166 H   0  0  0  0  0  0  0  0  0  0  0  0
    0.9758   -0.5952    1.0708 N   0  0  0  0  0  0  0  0  0  0  0  0
    0.3258    0.6374    0.7059 C   0  0  2  0  0  0  0  0  0  0  0  0
   -1.0629    0.6276    1.3363 C   0  0  0  0  0  0  0  0  0  0  0  0
   -1.4951   -0.3196    1.9899 O   0  0  0  0  0  0  0  0  0  0  0  0
    0.2204    0.8024   -0.8149 C   0  0  0  0  0  0  0  0  0  0  0  0
    1.5727    0.9850   -1.5029 C   0  0  0  0  0  0  0  0  0  0  0  0
    1.5414    1.1319   -3.0277 C   0  0  0  0  0  0  0  0  0  0  0  0
    0.4027    0.9442   -3.5451 O   0  5  0  0  0  0  0  0  0  0  0  0
    2.6333    1.4333   -3.5836 O   0  0  0  0  0  0  0  0  0  0  0  0
    1.9288   -0.5463    1.4242 H   0  0  0  0  0  0  0  0  0  0  0  0
    0.9111    1.4465    1.1560 H   0  0  0  0  0  0  0  0  0  0  0  0
   -0.4296    1.6527   -1.0561 H   0  0  0  0  0  0  0  0  0  0  0  0
   -0.2696   -0.0825   -1.2428 H   0  0  0  0  0  0  0  0  0  0  0  0
    2.0997    1.8438   -1.0704 H   0  0  0  0  0  0  0  0  0  0  0  0
    2.1899    0.1023   -1.2921 H   0  0  0  0  0  0  0  0  0  0  0  0
   -1.7772    1.7808    1.0426 N   0  0  0  0  0  0  0  0  0  0  0  0
   -3.1249    2.0080    1.5103 C   0  0  2  0  0  0  0  0  0  0  0  0
   -3.7401    3.1084    0.6557 C   0  0  0  0  0  0  0  0  0  0  0  0
   -3.0687    3.9296    0.0344 O   0  0  0  0  0  0  0  0  0  0  0  0
   -3.1430    2.3888    2.9824 C   0  0  0  0  0  0  0  0  0  0  0  0
   -1.3327    2.5198    0.5059 H   0  0  0  0  0  0  0  0  0  0  0  0
   -3.6752    1.0736    1.3551 H   0  0  0  0  0  0  0  0  0  0  0  0
   -2.5964    3.3227    3.1575 H   0  0  0  0  0  0  0  0  0  0  0  0
   -4.1670    2.5328    3.3425 H   0  0  0  0  0  0  0  0  0  0  0  0
   -2.6734    1.6096    3.5924 H   0  0  0  0  0  0  0  0  0  0  0  0
   -5.1270    3.0921    0.7031 N   0  0  0  0  0  0  0  0  0  0  0  0
   -5.9428    4.0443   -0.0138 C   0  0  0  0  0  0  0  0  0  0  0  0
   -5.6005    2.3633    1.2288 H   0  0  0  0  0  0  0  0  0  0  0  0
   -6.1677    4.9004    0.6394 H   0  0  0  0  0  0  0  0  0  0  0  0
   -5.4001    4.3951   -0.9040 H   0  0  0  0  0  0  0  0  0  0  0  0
   -6.8821    3.5626   -0.3232 H   0  0  0  0  0  0  0  0  0  0  0  0
  1  3  1  0  0  0  0
  1  7  1  0  0  0  0
  1  2  2  0  0  0  0
 33 34  1  0  0  0  0
 34 42  1  0  0  0  0
 34 35  2  0  0  0  0
  8  9  1  0  0  0  0
  9 17  1  0  0  0  0
  9 10  2  0  0  0  0
 18 19  1  0  0  0  0
 19 32  1  0  0  0  0
 19 20  2  0  0  0  0
 22 23  1  0  0  0  0
 23 24  1  0  0  0  0
 23 25  2  0  0  0  0
 33 36  1  0  0  0  0
  8 11  1  0  0  0  0
 42 43  1  0  0  0  0
 21 22  1  0  0  0  0
 18 21  1  0  0  0  0
 32 33  1  0  0  0  0
  7  8  1  0  0  0  0
 17 18  1  0  0  0  0
  3  4  1  0  0  0  0
  3  5  1  0  0  0  0
  3  6  1  0  0  0  0
 36 39  1  0  0  0  0
 36 40  1  0  0  0  0
 36 41  1  0  0  0  0
 11 14  1  0  0  0  0
 11 15  1  0  0  0  0
 11 16  1  0  0  0  0
 43 45  1  0  0  0  0
 43 46  1  0  0  0  0
 43 47  1  0  0  0  0
 22 30  1  0  0  0  0
 22 31  1  0  0  0  0
 21 28  1  0  0  0  0
 21 29  1  0  0  0  0
 33 38  1  0  0  0  0
  8 13  1  0  0  0  0
 18 27  1  0  0  0  0
 42 44  1  0  0  0  0
  7 12  1  0  0  0  0
 32 37  1  0  0  0  0
 17 26  1  0  0  0  0
M  CHG  1  24  -1
M  END
$$$$

  -OEChem-05262214473D

 47 46  0     1  0  0  0  0  0999 V2000
    0.5093   -4.7265    3.0306 C   0  0  0  0  0  0  0  0  0  0  0  0
    1.2735   -4.4402    3.9448 O   0  0  0  0  0  0  0  0  0  0  0  0
   -0.4465   -5.8608    3.1982 C   0  0  0  0  0  0  0  0  0  0  0  0
   -0.0219   -6.8213    2.8645 H   0  0  0  0  0  0  0  0  0  0  0  0
   -0.7314   -6.0185    4.2509 H   0  0  0  0  0  0  0  0  0  0  0  0
   -1.3983   -5.7596    2.6527 H   0  0  0  0  0  0  0  0  0  0  0  0
    0.4252   -4.0886    1.8040 N   0  0  0  0  0  0  0  0  0  0  0  0
    1.2532   -2.9707    1.4349 C   0  0  2  0  0  0  0  0  0  0  0  0
    0.3395   -1.8293    1.0083 C   0  0  0  0  0  0  0  0  0  0  0  0
   -0.8136   -2.0027    0.6194 O   0  0  0  0  0  0  0  0  0  0  0  0
    2.2176   -3.3411    0.3189 C   0  0  0  0  0  0  0  0  0  0  0  0
   -0.2574   -4.4279    1.1287 H   0  0  0  0  0  0  0  0  0  0  0  0
    1.8087   -2.6785    2.3327 H   0  0  0  0  0  0  0  0  0  0  0  0
    1.6793   -3.6366   -0.5890 H   0  0  0  0  0  0  0  0  0  0  0  0
    2.8662   -2.4980    0.0589 H   0  0  0  0  0  0  0  0  0  0  0  0
    2.8538   -4.1816    0.6166 H   0  0  0  0  0  0  0  0  0  0  0  0
    0.9758   -0.5952    1.0708 N   0  0  0  0  0  0  0  0  0  0  0  0
    0.3258    0.6374    0.7059 C   0  0  2  0  0  0  0  0  0  0  0  0
   -1.0629    0.6276    1.3363 C   0  0  0  0  0  0  0  0  0  0  0  0
   -1.4009   -0.1796    2.1996 O   0  0  0  0  0  0  0  0  0  0  0  0
    0.2204    0.8024   -0.8149 C   0  0  0  0  0  0  0  0  0  0  0  0
    1.5727    0.9850   -1.5029 C   0  0  0  0  0  0  0  0  0  0  0  0
    1.5414    1.1319   -3.0277 C   0  0  0  0  0  0  0  0  0  0  0  0
    0.4027    0.9442   -3.5451 O   0  5  0  0  0  0  0  0  0  0  0  0
    2.6333    1.4333   -3.5836 O   0  0  0  0  0  0  0  0  0  0  0  0
    1.9288   -0.5463    1.4242 H   0  0  0  0  0  0  0  0  0  0  0  0
    0.9111    1.4465    1.1560 H   0  0  0  0  0  0  0  0  0  0  0  0
   -0.4296    1.6527   -1.0561 H   0  0  0  0  0  0  0  0  0  0  0  0
   -0.2696   -0.0825   -1.2428 H   0  0  0  0  0  0  0  0  0  0  0  0
    2.0997    1.8438   -1.0704 H   0  0  0  0  0  0  0  0  0  0  0  0
    2.1899    0.1023   -1.2921 H   0  0  0  0  0  0  0  0  0  0  0  0
   -1.8919    1.5958    0.7870 N   0  0  0  0  0  0  0  0  0  0  0  0
   -3.2628    1.7809    1.2029 C   0  0  2  0  0  0  0  0  0  0  0  0
   -3.9795    2.5766    0.1200 C   0  0  0  0  0  0  0  0  0  0  0  0
   -3.3908    3.2954   -0.6848 O   0  0  0  0  0  0  0  0  0  0  0  0
   -3.3427    2.4937    2.5439 C   0  0  0  0  0  0  0  0  0  0  0  0
   -1.5211    2.2308    0.0863 H   0  0  0  0  0  0  0  0  0  0  0  0
   -3.7079    0.7828    1.2786 H   0  0  0  0  0  0  0  0  0  0  0  0
   -2.9016    3.4955    2.4878 H   0  0  0  0  0  0  0  0  0  0  0  0
   -4.3814    2.6078    2.8714 H   0  0  0  0  0  0  0  0  0  0  0  0
   -2.8015    1.9350    3.3151 H   0  0  0  0  0  0  0  0  0  0  0  0
   -5.3574    2.4234    0.1853 N   0  0  0  0  0  0  0  0  0  0  0  0
   -6.2597    3.0868   -0.7266 C   0  0  0  0  0  0  0  0  0  0  0  0
   -5.7579    1.7926    0.8733 H   0  0  0  0  0  0  0  0  0  0  0  0
   -6.5841    4.0435   -0.2913 H   0  0  0  0  0  0  0  0  0  0  0  0
   -5.7447    3.2741   -1.6804 H   0  0  0  0  0  0  0  0  0  0  0  0
   -7.1376    2.4480   -0.9032 H   0  0  0  0  0  0  0  0  0  0  0  0
  1  3  1  0  0  0  0
  1  7  1  0  0  0  0
  1  2  2  0  0  0  0
 33 34  1  0  0  0  0
 34 42  1  0  0  0  0
 34 35  2  0  0  0  0
  8  9  1  0  0  0  0
  9 17  1  0  0  0  0
  9 10  2  0  0  0  0
 18 19  1  0  0  0  0
 19 32  1  0  0  0  0
 19 20  2  0  0  0  0
 22 23  1  0  0  0  0
 23 24  1  0  0  0  0
 23 25  2  0  0  0  0
 33 36  1  0  0  0  0
  8 11  1  0  0  0  0
 42 43  1  0  0  0  0
 21 22  1  0  0  0  0
 18 21  1  0  0  0  0
 32 33  1  0  0  0  0
  7  8  1  0  0  0  0
 17 18  1  0  0  0  0
  3  4  1  0  0  0  0
  3  5  1  0  0  0  0
  3  6  1  0  0  0  0
 36 39  1  0  0  0  0
 36 40  1  0  0  0  0
 36 41  1  0  0  0  0
 11 14  1  0  0  0  0
 11 15  1  0  0  0  0
 11 16  1  0  0  0  0
 43 45  1  0  0  0  0
 43 46  1  0  0  0  0
 43 47  1  0  0  0  0
 22 30  1  0  0  0  0
 22 31  1  0  0  0  0
 21 28  1  0  0  0  0
 21 29  1  0  0  0  0
 33 38  1  0  0  0  0
  8 13  1  0  0  0  0
 18 27  1  0  0  0  0
 42 44  1  0  0  0  0
  7 12  1  0  0  0  0
 32 37  1  0  0  0  0
 17 26  1  0  0  0  0
M  CHG  1  24  -1
M  END
$$$$

  -OEChem-05262214473D

 47 46  0     1  0  0  0  0  0999 V2000
    0.5093   -4.7265    3.0306 C   0  0  0  0  0  0  0  0  0  0  0  0
    1.2735   -4.4402    3.9448 O   0  0  0  0  0  0  0  0  0  0  0  0
   -0.4465   -5.8608    3.1982 C   0  0  0  0  0  0  0  0  0  0  0  0
   -0.0219   -6.8213    2.8645 H   0  0  0  0  0  0  0  0  0  0  0  0
   -0.7314   -6.0185    4.2509 H   0  0  0  0  0  0  0  0  0  0  0  0
   -1.3983   -5.7596    2.6527 H   0  0  0  0  0  0  0  0  0  0  0  0
    0.4252   -4.0886    1.8040 N   0  0  0  0  0  0  0  0  0  0  0  0
    1.2532   -2.9707    1.4349 C   0  0  2  0  0  0  0  0  0  0  0  0
    0.3395   -1.8293    1.0083 C   0  0  0  0  0  0  0  0  0  0  0  0
   -0.8136   -2.0027    0.6194 O   0  0  0  0  0  0  0  0  0  0  0  0
    2.2176   -3.3411    0.3189 C   0  0  0  0  0  0  0  0  0  0  0  0
   -0.2574   -4.4279    1.1287 H   0  0  0  0  0  0  0  0  0  0  0  0
    1.8087   -2.6785    2.3327 H   0  0  0  0  0  0  0  0  0  0  0  0
    1.6793   -3.6366   -0.5890 H   0  0  0  0  0  0  0  0  0  0  0  0
    2.8662   -2.4980    0.0589 H   0  0  0  0  0  0  0  0  0  0  0  0
    2.8538   -4.1816    0.6166 H   0  0  0  0  0  0  0  0  0  0  0  0
    0.9758   -0.5952    1.0708 N   0  0  0  0  0  0  0  0  0  0  0  0
    0.3258    0.6374    0.7059 C   0  0  2  0  0  0  0  0  0  0  0  0
   -1.0629    0.6276    1.3363 C   0  0  0  0  0  0  0  0  0  0  0  0
   -1.3252    0.0150    2.3693 O   0  0  0  0  0  0  0  0  0  0  0  0
    0.2204    0.8024   -0.8149 C   0  0  0  0  0  0  0  0  0  0  0  0
    1.5727    0.9850   -1.5029 C   0  0  0  0  0  0  0  0  0  0  0  0
    1.5414    1.1319   -3.0277 C   0  0  0  0  0  0  0  0  0  0  0  0
    0.4027    0.9442   -3.5451 O   0  5  0  0  0  0  0  0  0  0  0  0
    2.6333    1.4333   -3.5836 O   0  0  0  0  0  0  0  0  0  0  0  0
    1.9288   -0.5463    1.4242 H   0  0  0  0  0  0  0  0  0  0  0  0
    0.9111    1.4465    1.1560 H   0  0  0  0  0  0  0  0  0  0  0  0
   -0.4296    1.6527   -1.0561 H   0  0  0  0  0  0  0  0  0  0  0  0
   -0.2696   -0.0825   -1.2428 H   0  0  0  0  0  0  0  0  0  0  0  0
    2.0997    1.8438   -1.0704 H   0  0  0  0  0  0  0  0  0  0  0  0
    2.1899    0.1023   -1.2921 H   0  0  0  0  0  0  0  0  0  0  0  0
   -1.9825    1.3445    0.5835 N   0  0  0  0  0  0  0  0  0  0  0  0
   -3.3713    1.4744    0.9594 C   0  0  2  0  0  0  0  0  0  0  0  0
   -4.1530    1.9111   -0.2725 C   0  0  0  0  0  0  0  0  0  0  0  0
   -3.6328    2.4789   -1.2307 O   0  0  0  0  0  0  0  0  0  0  0  0
   -3.5462    2.4703    2.0953 C   0  0  0  0  0  0  0  0  0  0  0  0
   -1.6715    1.8326   -0.2512 H   0  0  0  0  0  0  0  0  0  0  0  0
   -3.7083    0.4805    1.2732 H   0  0  0  0  0  0  0  0  0  0  0  0
   -3.2138    3.4720    1.7996 H   0  0  0  0  0  0  0  0  0  0  0  0
   -4.5957    2.5463    2.3982 H   0  0  0  0  0  0  0  0  0  0  0  0
   -2.9596    2.1703    2.9704 H   0  0  0  0  0  0  0  0  0  0  0  0
   -5.5074    1.6308   -0.1575 N   0  0  0  0  0  0  0  0  0  0  0  0
   -6.4621    1.9601   -1.1901 C   0  0  0  0  0  0  0  0  0  0  0  0
   -5.8483    1.1406    0.6642 H   0  0  0  0  0  0  0  0  0  0  0  0
   -6.8931    2.9519   -0.9889 H   0  0  0  0  0  0  0  0  0  0  0  0
   -5.9563    1.9715   -2.1668 H   0  0  0  0  0  0  0  0  0  0  0  0
   -7.2642    1.2073   -1.2013 H   0  0  0  0  0  0  0  0  0  0  0  0
  1  3  1  0  0  0  0
  1  7  1  0  0  0  0
  1  2  2  0  0  0  0
 33 34  1  0  0  0  0
 34 42  1  0  0  0  0
 34 35  2  0  0  0  0
  8  9  1  0  0  0  0
  9 17  1  0  0  0  0
  9 10  2  0  0  0  0
 18 19  1  0  0  0  0
 19 32  1  0  0  0  0
 19 20  2  0  0  0  0
 22 23  1  0  0  0  0
 23 24  1  0  0  0  0
 23 25  2  0  0  0  0
 33 36  1  0  0  0  0
  8 11  1  0  0  0  0
 42 43  1  0  0  0  0
 21 22  1  0  0  0  0
 18 21  1  0  0  0  0
 32 33  1  0  0  0  0
  7  8  1  0  0  0  0
 17 18  1  0  0  0  0
  3  4  1  0  0  0  0
  3  5  1  0  0  0  0
  3  6  1  0  0  0  0
 36 39  1  0  0  0  0
 36 40  1  0  0  0  0
 36 41  1  0  0  0  0
 11 14  1  0  0  0  0
 11 15  1  0  0  0  0
 11 16  1  0  0  0  0
 43 45  1  0  0  0  0
 43 46  1  0  0  0  0
 43 47  1  0  0  0  0
 22 30  1  0  0  0  0
 22 31  1  0  0  0  0
 21 28  1  0  0  0  0
 21 29  1  0  0  0  0
 33 38  1  0  0  0  0
  8 13  1  0  0  0  0
 18 27  1  0  0  0  0
 42 44  1  0  0  0  0
  7 12  1  0  0  0  0
 32 37  1  0  0  0  0
 17 26  1  0  0  0  0
M  CHG  1  24  -1
M  END
$$$$

  -OEChem-05262214473D

 47 46  0     1  0  0  0  0  0999 V2000
    0.5093   -4.7265    3.0306 C   0  0  0  0  0  0  0  0  0  0  0  0
    1.2735   -4.4402    3.9448 O   0  0  0  0  0  0  0  0  0  0  0  0
   -0.4465   -5.8608    3.1982 C   0  0  0  0  0  0  0  0  0  0  0  0
   -0.0219   -6.8213    2.8645 H   0  0  0  0  0  0  0  0  0  0  0  0
   -0.7314   -6.0185    4.2509 H   0  0  0  0  0  0  0  0  0  0  0  0
   -1.3983   -5.7596    2.6527 H   0  0  0  0  0  0  0  0  0  0  0  0
    0.4252   -4.0886    1.8040 N   0  0  0  0  0  0  0  0  0  0  0  0
    1.2532   -2.9707    1.4349 C   0  0  2  0  0  0  0  0  0  0  0  0
    0.3395   -1.8293    1.0083 C   0  0  0  0  0  0  0  0  0  0  0  0
   -0.8136   -2.0027    0.6194 O   0  0  0  0  0  0  0  0  0  0  0  0
    2.2176   -3.3411    0.3189 C   0  0  0  0  0  0  0  0  0  0  0  0
   -0.2574   -4.4279    1.1287 H   0  0  0  0  0  0  0  0  0  0  0  0
    1.8087   -2.6785    2.3327 H   0  0  0  0  0  0  0  0  0  0  0  0
    1.6793   -3.6366   -0.5890 H   0  0  0  0  0  0  0  0  0  0  0  0
    2.8662   -2.4980    0.0589 H   0  0  0  0  0  0  0  0  0  0  0  0
    2.8538   -4.1816    0.6166 H   0  0  0  0  0  0  0  0  0  0  0  0
    0.9758   -0.5952    1.0708 N   0  0  0  0  0  0  0  0  0  0  0  0
    0.3258    0.6374    0.7059 C   0  0  2  0  0  0  0  0  0  0  0  0
   -1.0629    0.6276    1.3363 C   0  0  0  0  0  0  0  0  0  0  0  0
   -1.2732    0.2511    2.4875 O   0  0  0  0  0  0  0  0  0  0  0  0
    0.2204    0.8024   -0.8149 C   0  0  0  0  0  0  0  0  0  0  0  0
    1.5727    0.9850   -1.5029 C   0  0  0  0  0  0  0  0  0  0  0  0
    1.5414    1.1319   -3.0277 C   0  0  0  0  0  0  0  0  0  0  0  0
    0.4027    0.9442   -3.5451 O   0  5  0  0  0  0  0  0  0  0  0  0
    2.6333    1.4333   -3.5836 O   0  0  0  0  0  0  0  0  0  0  0  0
    1.9288   -0.5463    1.4242 H   0  0  0  0  0  0  0  0  0  0  0  0
    0.9111    1.4465    1.1560 H   0  0  0  0  0  0  0  0  0  0  0  0
   -0.4296    1.6527   -1.0561 H   0  0  0  0  0  0  0  0  0  0  0  0
   -0.2696   -0.0825   -1.2428 H   0  0  0  0  0  0  0  0  0  0  0  0
    2.0997    1.8438   -1.0704 H   0  0  0  0  0  0  0  0  0  0  0  0
    2.1899    0.1023   -1.2921 H   0  0  0  0  0  0  0  0  0  0  0  0
   -2.0428    1.0442    0.4460 N   0  0  0  0  0  0  0  0  0  0  0  0
   -3.4428    1.1094    0.7962 C   0  0  2  0  0  0  0  0  0  0  0  0
   -4.2488    1.1571   -0.4952 C   0  0  0  0  0  0  0  0  0  0  0  0
   -3.7784    1.5356   -1.5659 O   0  0  0  0  0  0  0  0  0  0  0  0
   -3.7395    2.3201    1.6672 C   0  0  0  0  0  0  0  0  0  0  0  0
   -1.7737    1.3523   -0.4837 H   0  0  0  0  0  0  0  0  0  0  0  0
   -3.6762    0.1871    1.3392 H   0  0  0  0  0  0  0  0  0  0  0  0
   -3.5117    3.2537    1.1400 H   0  0  0  0  0  0  0  0  0  0  0  0
   -4.7954    2.3524    1.9553 H   0  0  0  0  0  0  0  0  0  0  0  0
   -3.1370    2.2994    2.5817 H   0  0  0  0  0  0  0  0  0  0  0  0
   -5.5671    0.7684   -0.3022 N   0  0  0  0  0  0  0  0  0  0  0  0
   -6.5364    0.7408   -1.3725 C   0  0  0  0  0  0  0  0  0  0  0  0
   -5.8654    0.4519    0.6157 H   0  0  0  0  0  0  0  0  0  0  0  0
   -7.0737    1.7001   -1.4061 H   0  0  0  0  0  0  0  0  0  0  0  0
   -6.0206    0.5760   -2.3300 H   0  0  0  0  0  0  0  0  0  0  0  0
   -7.2532   -0.0749   -1.1970 H   0  0  0  0  0  0  0  0  0  0  0  0
  1  3  1  0  0  0  0
  1  7  1  0  0  0  0
  1  2  2  0  0  0  0
 33 34  1  0  0  0  0
 34 42  1  0  0  0  0
 34 35  2  0  0  0  0
  8  9  1  0  0  0  0
  9 17  1  0  0  0  0
  9 10  2  0  0  0  0
 18 19  1  0  0  0  0
 19 32  1  0  0  0  0
 19 20  2  0  0  0  0
 22 23  1  0  0  0  0
 23 24  1  0  0  0  0
 23 25  2  0  0  0  0
 33 36  1  0  0  0  0
  8 11  1  0  0  0  0
 42 43  1  0  0  0  0
 21 22  1  0  0  0  0
 18 21  1  0  0  0  0
 32 33  1  0  0  0  0
  7  8  1  0  0  0  0
 17 18  1  0  0  0  0
  3  4  1  0  0  0  0
  3  5  1  0  0  0  0
  3  6  1  0  0  0  0
 36 39  1  0  0  0  0
 36 40  1  0  0  0  0
 36 41  1  0  0  0  0
 11 14  1  0  0  0  0
 11 15  1  0  0  0  0
 11 16  1  0  0  0  0
 43 45  1  0  0  0  0
 43 46  1  0  0  0  0
 43 47  1  0  0  0  0
 22 30  1  0  0  0  0
 22 31  1  0  0  0  0
 21 28  1  0  0  0  0
 21 29  1  0  0  0  0
 33 38  1  0  0  0  0
  8 13  1  0  0  0  0
 18 27  1  0  0  0  0
 42 44  1  0  0  0  0
  7 12  1  0  0  0  0
 32 37  1  0  0  0  0
 17 26  1  0  0  0  0
M  CHG  1  24  -1
M  END
$$$$

  -OEChem-05262214473D

 47 46  0     1  0  0  0  0  0999 V2000
    0.5093   -4.7265    3.0306 C   0  0  0  0  0  0  0  0  0  0  0  0
    1.2735   -4.4402    3.9448 O   0  0  0  0  0  0  0  0  0  0  0  0
   -0.4465   -5.8608    3.1982 C   0  0  0  0  0  0  0  0  0  0  0  0
   -0.0219   -6.8213    2.8645 H   0  0  0  0  0  0  0  0  0  0  0  0
   -0.7314   -6.0185    4.2509 H   0  0  0  0  0  0  0  0  0  0  0  0
   -1.3983   -5.7596    2.6527 H   0  0  0  0  0  0  0  0  0  0  0  0
    0.4252   -4.0886    1.8040 N   0  0  0  0  0  0  0  0  0  0  0  0
    1.2532   -2.9707    1.4349 C   0  0  2  0  0  0  0  0  0  0  0  0
    0.3395   -1.8293    1.0083 C   0  0  0  0  0  0  0  0  0  0  0  0
   -0.8136   -2.0027    0.6194 O   0  0  0  0  0  0  0  0  0  0  0  0
    2.2176   -3.3411    0.3189 C   0  0  0  0  0  0  0  0  0  0  0  0
   -0.2574   -4.4279    1.1287 H   0  0  0  0  0  0  0  0  0  0  0  0
    1.8087   -2.6785    2.3327 H   0  0  0  0  0  0  0  0  0  0  0  0
    1.6793   -3.6366   -0.5890 H   0  0  0  0  0  0  0  0  0  0  0  0
    2.8662   -2.4980    0.0589 H   0  0  0  0  0  0  0  0  0  0  0  0
    2.8538   -4.1816    0.6166 H   0  0  0  0  0  0  0  0  0  0  0  0
    0.9758   -0.5952    1.0708 N   0  0  0  0  0  0  0  0  0  0  0  0
    0.3258    0.6374    0.7059 C   0  0  2  0  0  0  0  0  0  0  0  0
   -1.0629    0.6276    1.3363 C   0  0  0  0  0  0  0  0  0  0  0  0
   -1.2485    0.5126    2.5460 O   0  0  0  0  0  0  0  0  0  0  0  0
    0.2204    0.8024   -0.8149 C   0  0  0  0  0  0  0  0  0  0  0  0
    1.5727    0.9850   -1.5029 C   0  0  0  0  0  0  0  0  0  0  0  0
    1.5414    1.1319   -3.0277 C   0  0  0  0  0  0  0  0  0  0  0  0
    0.4027    0.9442   -3.5451 O   0  5  0  0  0  0  0  0  0  0  0  0
    2.6333    1.4333   -3.5836 O   0  0  0  0  0  0  0  0  0  0  0  0
    1.9288   -0.5463    1.4242 H   0  0  0  0  0  0  0  0  0  0  0  0
    0.9111    1.4465    1.1560 H   0  0  0  0  0  0  0  0  0  0  0  0
   -0.4296    1.6527   -1.0561 H   0  0  0  0  0  0  0  0  0  0  0  0
   -0.2696   -0.0825   -1.2428 H   0  0  0  0  0  0  0  0  0  0  0  0
    2.0997    1.8438   -1.0704 H   0  0  0  0  0  0  0  0  0  0  0  0
    2.1899    0.1023   -1.2921 H   0  0  0  0  0  0  0  0  0  0  0  0
   -2.0687    0.7153    0.3839 N   0  0  0  0  0  0  0  0  0  0  0  0
   -3.4725    0.7107    0.7244 C   0  0  2  0  0  0  0  0  0  0  0  0
   -4.2603    0.3662   -0.5327 C   0  0  0  0  0  0  0  0  0  0  0  0
   -3.8175    0.5300   -1.6677 O   0  0  0  0  0  0  0  0  0  0  0  0
   -3.9094    2.0536    1.2887 C   0  0  0  0  0  0  0  0  0  0  0  0
   -1.8206    0.8227   -0.5952 H   0  0  0  0  0  0  0  0  0  0  0  0
   -3.6140   -0.0773    1.4722 H   0  0  0  0  0  0  0  0  0  0  0  0
   -3.7751    2.8556    0.5537 H   0  0  0  0  0  0  0  0  0  0  0  0
   -4.9668    2.0395    1.5729 H   0  0  0  0  0  0  0  0  0  0  0  0
   -3.3214    2.3135    2.1756 H   0  0  0  0  0  0  0  0  0  0  0  0
   -5.5321   -0.1052   -0.2388 N   0  0  0  0  0  0  0  0  0  0  0  0
   -6.4774   -0.4878   -1.2616 C   0  0  0  0  0  0  0  0  0  0  0  0
   -5.8083   -0.2266    0.7311 H   0  0  0  0  0  0  0  0  0  0  0  0
   -7.1135    0.3733   -1.5143 H   0  0  0  0  0  0  0  0  0  0  0  0
   -5.9332   -0.8173   -2.1589 H   0  0  0  0  0  0  0  0  0  0  0  0
   -7.1055   -1.3112   -0.8906 H   0  0  0  0  0  0  0  0  0  0  0  0
  1  3  1  0  0  0  0
  1  7  1  0  0  0  0
  1  2  2  0  0  0  0
 33 34  1  0  0  0  0
 34 42  1  0  0  0  0
 34 35  2  0  0  0  0
  8  9  1  0  0  0  0
  9 17  1  0  0  0  0
  9 10  2  0  0  0  0
 18 19  1  0  0  0  0
 19 32  1  0  0  0  0
 19 20  2  0  0  0  0
 22 23  1  0  0  0  0
 23 24  1  0  0  0  0
 23 25  2  0  0  0  0
 33 36  1  0  0  0  0
  8 11  1  0  0  0  0
 42 43  1  0  0  0  0
 21 22  1  0  0  0  0
 18 21  1  0  0  0  0
 32 33  1  0  0  0  0
  7  8  1  0  0  0  0
 17 18  1  0  0  0  0
  3  4  1  0  0  0  0
  3  5  1  0  0  0  0
  3  6  1  0  0  0  0
 36 39  1  0  0  0  0
 36 40  1  0  0  0  0
 36 41  1  0  0  0  0
 11 14  1  0  0  0  0
 11 15  1  0  0  0  0
 11 16  1  0  0  0  0
 43 45  1  0  0  0  0
 43 46  1  0  0  0  0
 43 47  1  0  0  0  0
 22 30  1  0  0  0  0
 22 31  1  0  0  0  0
 21 28  1  0  0  0  0
 21 29  1  0  0  0  0
 33 38  1  0  0  0  0
  8 13  1  0  0  0  0
 18 27  1  0  0  0  0
 42 44  1  0  0  0  0
  7 12  1  0  0  0  0
 32 37  1  0  0  0  0
 17 26  1  0  0  0  0
M  CHG  1  24  -1
M  END
$$$$

  -OEChem-05262214473D

 47 46  0     1  0  0  0  0  0999 V2000
    0.5093   -4.7265    3.0306 C   0  0  0  0  0  0  0  0  0  0  0  0
    1.2735   -4.4402    3.9448 O   0  0  0  0  0  0  0  0  0  0  0  0
   -0.4465   -5.8608    3.1982 C   0  0  0  0  0  0  0  0  0  0  0  0
   -0.0219   -6.8213    2.8645 H   0  0  0  0  0  0  0  0  0  0  0  0
   -0.7314   -6.0185    4.2509 H   0  0  0  0  0  0  0  0  0  0  0  0
   -1.3983   -5.7596    2.6527 H   0  0  0  0  0  0  0  0  0  0  0  0
    0.4252   -4.0886    1.8040 N   0  0  0  0  0  0  0  0  0  0  0  0
    1.2532   -2.9707    1.4349 C   0  0  2  0  0  0  0  0  0  0  0  0
    0.3395   -1.8293    1.0083 C   0  0  0  0  0  0  0  0  0  0  0  0
   -0.8136   -2.0027    0.6194 O   0  0  0  0  0  0  0  0  0  0  0  0
    2.2176   -3.3411    0.3189 C   0  0  0  0  0  0  0  0  0  0  0  0
   -0.2574   -4.4279    1.1287 H   0  0  0  0  0  0  0  0  0  0  0  0
    1.8087   -2.6785    2.3327 H   0  0  0  0  0  0  0  0  0  0  0  0
    1.6793   -3.6366   -0.5890 H   0  0  0  0  0  0  0  0  0  0  0  0
    2.8662   -2.4980    0.0589 H   0  0  0  0  0  0  0  0  0  0  0  0
    2.8538   -4.1816    0.6166 H   0  0  0  0  0  0  0  0  0  0  0  0
    0.9758   -0.5952    1.0708 N   0  0  0  0  0  0  0  0  0  0  0  0
    0.3258    0.6374    0.7059 C   0  0  2  0  0  0  0  0  0  0  0  0
   -1.0629    0.6276    1.3363 C   0  0  0  0  0  0  0  0  0  0  0  0
   -1.2526    0.7816    2.5411 O   0  0  0  0  0  0  0  0  0  0  0  0
    0.2204    0.8024   -0.8149 C   0  0  0  0  0  0  0  0  0  0  0  0
    1.5727    0.9850   -1.5029 C   0  0  0  0  0  0  0  0  0  0  0  0
    1.5414    1.1319   -3.0277 C   0  0  0  0  0  0  0  0  0  0  0  0
    0.4027    0.9442   -3.5451 O   0  5  0  0  0  0  0  0  0  0  0  0
    2.6333    1.4333   -3.5836 O   0  0  0  0  0  0  0  0  0  0  0  0
    1.9288   -0.5463    1.4242 H   0  0  0  0  0  0  0  0  0  0  0  0
    0.9111    1.4465    1.1560 H   0  0  0  0  0  0  0  0  0  0  0  0
   -0.4296    1.6527   -1.0561 H   0  0  0  0  0  0  0  0  0  0  0  0
   -0.2696   -0.0825   -1.2428 H   0  0  0  0  0  0  0  0  0  0  0  0
    2.0997    1.8438   -1.0704 H   0  0  0  0  0  0  0  0  0  0  0  0
    2.1899    0.1023   -1.2921 H   0  0  0  0  0  0  0  0  0  0  0  0
   -2.0584    0.3801    0.4014 N   0  0  0  0  0  0  0  0  0  0  0  0
   -3.4585    0.3054    0.7490 C   0  0  2  0  0  0  0  0  0  0  0  0
   -4.1867   -0.4079   -0.3825 C   0  0  0  0  0  0  0  0  0  0  0  0
   -3.7476   -0.4696   -1.5290 O   0  0  0  0  0  0  0  0  0  0  0  0
   -4.0444    1.6887    0.9857 C   0  0  0  0  0  0  0  0  0  0  0  0
   -1.8090    0.2798   -0.5781 H   0  0  0  0  0  0  0  0  0  0  0  0
   -3.5259   -0.2947    1.6630 H   0  0  0  0  0  0  0  0  0  0  0  0
   -3.9858    2.3046    0.0809 H   0  0  0  0  0  0  0  0  0  0  0  0
   -5.0983    1.6287    1.2770 H   0  0  0  0  0  0  0  0  0  0  0  0
   -3.5005    2.2118    1.7796 H   0  0  0  0  0  0  0  0  0  0  0  0
   -5.4051   -0.9303    0.0284 N   0  0  0  0  0  0  0  0  0  0  0  0
   -6.2892   -1.6421   -0.8647 C   0  0  0  0  0  0  0  0  0  0  0  0
   -5.6807   -0.8486    1.0026 H   0  0  0  0  0  0  0  0  0  0  0  0
   -7.0099   -0.9381   -1.3062 H   0  0  0  0  0  0  0  0  0  0  0  0
   -5.6999   -2.1135   -1.6651 H   0  0  0  0  0  0  0  0  0  0  0  0
   -6.8310   -2.4174   -0.3031 H   0  0  0  0  0  0  0  0  0  0  0  0
  1  3  1  0  0  0  0
  1  7  1  0  0  0  0
  1  2  2  0  0  0  0
 33 34  1  0  0  0  0
 34 42  1  0  0  0  0
 34 35  2  0  0  0  0
  8  9  1  0  0  0  0
  9 17  1  0  0  0  0
  9 10  2  0  0  0  0
 18 19  1  0  0  0  0
 19 32  1  0  0  0  0
 19 20  2  0  0  0  0
 22 23  1  0  0  0  0
 23 24  1  0  0  0  0
 23 25  2  0  0  0  0
 33 36  1  0  0  0  0
  8 11  1  0  0  0  0
 42 43  1  0  0  0  0
 21 22  1  0  0  0  0
 18 21  1  0  0  0  0
 32 33  1  0  0  0  0
  7  8  1  0  0  0  0
 17 18  1  0  0  0  0
  3  4  1  0  0  0  0
  3  5  1  0  0  0  0
  3  6  1  0  0  0  0
 36 39  1  0  0  0  0
 36 40  1  0  0  0  0
 36 41  1  0  0  0  0
 11 14  1  0  0  0  0
 11 15  1  0  0  0  0
 11 16  1  0  0  0  0
 43 45  1  0  0  0  0
 43 46  1  0  0  0  0
 43 47  1  0  0  0  0
 22 30  1  0  0  0  0
 22 31  1  0  0  0  0
 21 28  1  0  0  0  0
 21 29  1  0  0  0  0
 33 38  1  0  0  0  0
  8 13  1  0  0  0  0
 18 27  1  0  0  0  0
 42 44  1  0  0  0  0
  7 12  1  0  0  0  0
 32 37  1  0  0  0  0
 17 26  1  0  0  0  0
M  CHG  1  24  -1
M  END
$$$$

  -OEChem-05262214473D

 47 46  0     1  0  0  0  0  0999 V2000
    0.5093   -4.7265    3.0306 C   0  0  0  0  0  0  0  0  0  0  0  0
    1.2735   -4.4402    3.9448 O   0  0  0  0  0  0  0  0  0  0  0  0
   -0.4465   -5.8608    3.1982 C   0  0  0  0  0  0  0  0  0  0  0  0
   -0.0219   -6.8213    2.8645 H   0  0  0  0  0  0  0  0  0  0  0  0
   -0.7314   -6.0185    4.2509 H   0  0  0  0  0  0  0  0  0  0  0  0
   -1.3983   -5.7596    2.6527 H   0  0  0  0  0  0  0  0  0  0  0  0
    0.4252   -4.0886    1.8040 N   0  0  0  0  0  0  0  0  0  0  0  0
    1.2532   -2.9707    1.4349 C   0  0  2  0  0  0  0  0  0  0  0  0
    0.3395   -1.8293    1.0083 C   0  0  0  0  0  0  0  0  0  0  0  0
   -0.8136   -2.0027    0.6194 O   0  0  0  0  0  0  0  0  0  0  0  0
    2.2176   -3.3411    0.3189 C   0  0  0  0  0  0  0  0  0  0  0  0
   -0.2574   -4.4279    1.1287 H   0  0  0  0  0  0  0  0  0  0  0  0
    1.8087   -2.6785    2.3327 H   0  0  0  0  0  0  0  0  0  0  0  0
    1.6793   -3.6366   -0.5890 H   0  0  0  0  0  0  0  0  0  0  0  0
    2.8662   -2.4980    0.0589 H   0  0  0  0  0  0  0  0  0  0  0  0
    2.8538   -4.1816    0.6166 H   0  0  0  0  0  0  0  0  0  0  0  0
    0.9758   -0.5952    1.0708 N   0  0  0  0  0  0  0  0  0  0  0  0
    0.3258    0.6374    0.7059 C   0  0  2  0  0  0  0  0  0  0  0  0
   -1.0629    0.6276    1.3363 C   0  0  0  0  0  0  0  0  0  0  0  0
   -1.2854    1.0399    2.4728 O   0  0  0  0  0  0  0  0  0  0  0  0
    0.2204    0.8024   -0.8149 C   0  0  0  0  0  0  0  0  0  0  0  0
    1.5727    0.9850   -1.5029 C   0  0  0  0  0  0  0  0  0  0  0  0
    1.5414    1.1319   -3.0277 C   0  0  0  0  0  0  0  0  0  0  0  0
    0.4027    0.9442   -3.5451 O   0  5  0  0  0  0  0  0  0  0  0  0
    2.6333    1.4333   -3.5836 O   0  0  0  0  0  0  0  0  0  0  0  0
    1.9288   -0.5463    1.4242 H   0  0  0  0  0  0  0  0  0  0  0  0
    0.9111    1.4465    1.1560 H   0  0  0  0  0  0  0  0  0  0  0  0
   -0.4296    1.6527   -1.0561 H   0  0  0  0  0  0  0  0  0  0  0  0
   -0.2696   -0.0825   -1.2428 H   0  0  0  0  0  0  0  0  0  0  0  0
    2.0997    1.8438   -1.0704 H   0  0  0  0  0  0  0  0  0  0  0  0
    2.1899    0.1023   -1.2921 H   0  0  0  0  0  0  0  0  0  0  0  0
   -2.0127    0.0616    0.4973 N   0  0  0  0  0  0  0  0  0  0  0  0
   -3.4017   -0.0787    0.8684 C   0  0  2  0  0  0  0  0  0  0  0  0
   -4.0330   -1.1123   -0.0549 C   0  0  0  0  0  0  0  0  0  0  0  0
   -3.5733   -1.3950   -1.1594 O   0  0  0  0  0  0  0  0  0  0  0  0
   -4.1353    1.2504    0.7788 C   0  0  0  0  0  0  0  0  0  0  0  0
   -1.7398   -0.2393   -0.4337 H   0  0  0  0  0  0  0  0  0  0  0  0
   -3.4178   -0.4503    1.8987 H   0  0  0  0  0  0  0  0  0  0  0  0
   -4.1297    1.6385   -0.2464 H   0  0  0  0  0  0  0  0  0  0  0  0
   -5.1808    1.1481    1.0877 H   0  0  0  0  0  0  0  0  0  0  0  0
   -3.6618    2.0010    1.4208 H   0  0  0  0  0  0  0  0  0  0  0  0
   -5.1945   -1.6507    0.4811 N   0  0  0  0  0  0  0  0  0  0  0  0
   -5.9845   -2.6434   -0.2090 C   0  0  0  0  0  0  0  0  0  0  0  0
   -5.4913   -1.3719    1.4117 H   0  0  0  0  0  0  0  0  0  0  0  0
   -6.7698   -2.1446   -0.7960 H   0  0  0  0  0  0  0  0  0  0  0  0
   -5.3367   -3.2241   -0.8822 H   0  0  0  0  0  0  0  0  0  0  0  0
   -6.4486   -3.3180    0.5255 H   0  0  0  0  0  0  0  0  0  0  0  0
  1  3  1  0  0  0  0
  1  7  1  0  0  0  0
  1  2  2  0  0  0  0
 33 34  1  0  0  0  0
 34 42  1  0  0  0  0
 34 35  2  0  0  0  0
  8  9  1  0  0  0  0
  9 17  1  0  0  0  0
  9 10  2  0  0  0  0
 18 19  1  0  0  0  0
 19 32  1  0  0  0  0
 19 20  2  0  0  0  0
 22 23  1  0  0  0  0
 23 24  1  0  0  0  0
 23 25  2  0  0  0  0
 33 36  1  0  0  0  0
  8 11  1  0  0  0  0
 42 43  1  0  0  0  0
 21 22  1  0  0  0  0
 18 21  1  0  0  0  0
 32 33  1  0  0  0  0
  7  8  1  0  0  0  0
 17 18  1  0  0  0  0
  3  4  1  0  0  0  0
  3  5  1  0  0  0  0
  3  6  1  0  0  0  0
 36 39  1  0  0  0  0
 36 40  1  0  0  0  0
 36 41  1  0  0  0  0
 11 14  1  0  0  0  0
 11 15  1  0  0  0  0
 11 16  1  0  0  0  0
 43 45  1  0  0  0  0
 43 46  1  0  0  0  0
 43 47  1  0  0  0  0
 22 30  1  0  0  0  0
 22 31  1  0  0  0  0
 21 28  1  0  0  0  0
 21 29  1  0  0  0  0
 33 38  1  0  0  0  0
  8 13  1  0  0  0  0
 18 27  1  0  0  0  0
 42 44  1  0  0  0  0
  7 12  1  0  0  0  0
 32 37  1  0  0  0  0
 17 26  1  0  0  0  0
M  CHG  1  24  -1
M  END
$$$$

  -OEChem-05262214473D

 47 46  0     1  0  0  0  0  0999 V2000
    0.5093   -4.7265    3.0306 C   0  0  0  0  0  0  0  0  0  0  0  0
    1.2735   -4.4402    3.9448 O   0  0  0  0  0  0  0  0  0  0  0  0
   -0.4465   -5.8608    3.1982 C   0  0  0  0  0  0  0  0  0  0  0  0
   -0.0219   -6.8213    2.8645 H   0  0  0  0  0  0  0  0  0  0  0  0
   -0.7314   -6.0185    4.2509 H   0  0  0  0  0  0  0  0  0  0  0  0
   -1.3983   -5.7596    2.6527 H   0  0  0  0  0  0  0  0  0  0  0  0
    0.4252   -4.0886    1.8040 N   0  0  0  0  0  0  0  0  0  0  0  0
    1.2532   -2.9707    1.4349 C   0  0  2  0  0  0  0  0  0  0  0  0
    0.3395   -1.8293    1.0083 C   0  0  0  0  0  0  0  0  0  0  0  0
   -0.8136   -2.0027    0.6194 O   0  0  0  0  0  0  0  0  0  0  0  0
    2.2176   -3.3411    0.3189 C   0  0  0  0  0  0  0  0  0  0  0  0
   -0.2574   -4.4279    1.1287 H   0  0  0  0  0  0  0  0  0  0  0  0
    1.8087   -2.6785    2.3327 H   0  0  0  0  0  0  0  0  0  0  0  0
    1.6793   -3.6366   -0.5890 H   0  0  0  0  0  0  0  0  0  0  0  0
    2.8662   -2.4980    0.0589 H   0  0  0  0  0  0  0  0  0  0  0  0
    2.8538   -4.1816    0.6166 H   0  0  0  0  0  0  0  0  0  0  0  0
    0.9758   -0.5952    1.0708 N   0  0  0  0  0  0  0  0  0  0  0  0
    0.3258    0.6374    0.7059 C   0  0  2  0  0  0  0  0  0  0  0  0
   -1.0629    0.6276    1.3363 C   0  0  0  0  0  0  0  0  0  0  0  0
   -1.3446    1.2697    2.3460 O   0  0  0  0  0  0  0  0  0  0  0  0
    0.2204    0.8024   -0.8149 C   0  0  0  0  0  0  0  0  0  0  0  0
    1.5727    0.9850   -1.5029 C   0  0  0  0  0  0  0  0  0  0  0  0
    1.5414    1.1319   -3.0277 C   0  0  0  0  0  0  0  0  0  0  0  0
    0.4027    0.9442   -3.5451 O   0  5  0  0  0  0  0  0  0  0  0  0
    2.6333    1.4333   -3.5836 O   0  0  0  0  0  0  0  0  0  0  0  0
    1.9288   -0.5463    1.4242 H   0  0  0  0  0  0  0  0  0  0  0  0
    0.9111    1.4465    1.1560 H   0  0  0  0  0  0  0  0  0  0  0  0
   -0.4296    1.6527   -1.0561 H   0  0  0  0  0  0  0  0  0  0  0  0
   -0.2696   -0.0825   -1.2428 H   0  0  0  0  0  0  0  0  0  0  0  0
    2.0997    1.8438   -1.0704 H   0  0  0  0  0  0  0  0  0  0  0  0
    2.1899    0.1023   -1.2921 H   0  0  0  0  0  0  0  0  0  0  0  0
   -1.9345   -0.2186    0.6650 N   0  0  0  0  0  0  0  0  0  0  0  0
   -3.3059   -0.4155    1.0742 C   0  0  2  0  0  0  0  0  0  0  0  0
   -3.8098   -1.6991    0.4277 C   0  0  0  0  0  0  0  0  0  0  0  0
   -3.3066   -2.1830   -0.5840 O   0  0  0  0  0  0  0  0  0  0  0  0
   -4.1758    0.7685    0.6820 C   0  0  0  0  0  0  0  0  0  0  0  0
   -1.6177   -0.6993   -0.1718 H   0  0  0  0  0  0  0  0  0  0  0  0
   -3.2971   -0.5334    2.1633 H   0  0  0  0  0  0  0  0  0  0  0  0
   -4.1969    0.9025   -0.4057 H   0  0  0  0  0  0  0  0  0  0  0  0
   -5.2088    0.6305    1.0180 H   0  0  0  0  0  0  0  0  0  0  0  0
   -3.7946    1.6955    1.1237 H   0  0  0  0  0  0  0  0  0  0  0  0
   -4.9148   -2.2173    1.0886 N   0  0  0  0  0  0  0  0  0  0  0  0
   -5.5842   -3.4235    0.6608 C   0  0  0  0  0  0  0  0  0  0  0  0
   -5.2531   -1.7606    1.9304 H   0  0  0  0  0  0  0  0  0  0  0  0
   -6.4097   -3.1641   -0.0184 H   0  0  0  0  0  0  0  0  0  0  0  0
   -4.8684   -4.0736    0.1363 H   0  0  0  0  0  0  0  0  0  0  0  0
   -5.9841   -3.9518    1.5388 H   0  0  0  0  0  0  0  0  0  0  0  0
  1  3  1  0  0  0  0
  1  7  1  0  0  0  0
  1  2  2  0  0  0  0
 33 34  1  0  0  0  0
 34 42  1  0  0  0  0
 34 35  2  0  0  0  0
  8  9  1  0  0  0  0
  9 17  1  0  0  0  0
  9 10  2  0  0  0  0
 18 19  1  0  0  0  0
 19 32  1  0  0  0  0
 19 20  2  0  0  0  0
 22 23  1  0  0  0  0
 23 24  1  0  0  0  0
 23 25  2  0  0  0  0
 33 36  1  0  0  0  0
  8 11  1  0  0  0  0
 42 43  1  0  0  0  0
 21 22  1  0  0  0  0
 18 21  1  0  0  0  0
 32 33  1  0  0  0  0
  7  8  1  0  0  0  0
 17 18  1  0  0  0  0
  3  4  1  0  0  0  0
  3  5  1  0  0  0  0
  3  6  1  0  0  0  0
 36 39  1  0  0  0  0
 36 40  1  0  0  0  0
 36 41  1  0  0  0  0
 11 14  1  0  0  0  0
 11 15  1  0  0  0  0
 11 16  1  0  0  0  0
 43 45  1  0  0  0  0
 43 46  1  0  0  0  0
 43 47  1  0  0  0  0
 22 30  1  0  0  0  0
 22 31  1  0  0  0  0
 21 28  1  0  0  0  0
 21 29  1  0  0  0  0
 33 38  1  0  0  0  0
  8 13  1  0  0  0  0
 18 27  1  0  0  0  0
 42 44  1  0  0  0  0
  7 12  1  0  0  0  0
 32 37  1  0  0  0  0
 17 26  1  0  0  0  0
M  CHG  1  24  -1
M  END
$$$$

  -OEChem-05262214473D

 47 46  0     1  0  0  0  0  0999 V2000
    0.5093   -4.7265    3.0306 C   0  0  0  0  0  0  0  0  0  0  0  0
    1.2735   -4.4402    3.9448 O   0  0  0  0  0  0  0  0  0  0  0  0
   -0.4465   -5.8608    3.1982 C   0  0  0  0  0  0  0  0  0  0  0  0
   -0.0219   -6.8213    2.8645 H   0  0  0  0  0  0  0  0  0  0  0  0
   -0.7314   -6.0185    4.2509 H   0  0  0  0  0  0  0  0  0  0  0  0
   -1.3983   -5.7596    2.6527 H   0  0  0  0  0  0  0  0  0  0  0  0
    0.4252   -4.0886    1.8040 N   0  0  0  0  0  0  0  0  0  0  0  0
    1.2532   -2.9707    1.4349 C   0  0  2  0  0  0  0  0  0  0  0  0
    0.3395   -1.8293    1.0083 C   0  0  0  0  0  0  0  0  0  0  0  0
   -0.8136   -2.0027    0.6194 O   0  0  0  0  0  0  0  0  0  0  0  0
    2.2176   -3.3411    0.3189 C   0  0  0  0  0  0  0  0  0  0  0  0
   -0.2574   -4.4279    1.1287 H   0  0  0  0  0  0  0  0  0  0  0  0
    1.8087   -2.6785    2.3327 H   0  0  0  0  0  0  0  0  0  0  0  0
    1.6793   -3.6366   -0.5890 H   0  0  0  0  0  0  0  0  0  0  0  0
    2.8662   -2.4980    0.0589 H   0  0  0  0  0  0  0  0  0  0  0  0
    2.8538   -4.1816    0.6166 H   0  0  0  0  0  0  0  0  0  0  0  0
    0.9758   -0.5952    1.0708 N   0  0  0  0  0  0  0  0  0  0  0  0
    0.3258    0.6374    0.7059 C   0  0  2  0  0  0  0  0  0  0  0  0
   -1.0629    0.6276    1.3363 C   0  0  0  0  0  0  0  0  0  0  0  0
   -1.4261    1.4555    2.1692 O   0  0  0  0  0  0  0  0  0  0  0  0
    0.2204    0.8024   -0.8149 C   0  0  0  0  0  0  0  0  0  0  0  0
    1.5727    0.9850   -1.5029 C   0  0  0  0  0  0  0  0  0  0  0  0
    1.5414    1.1319   -3.0277 C   0  0  0  0  0  0  0  0  0  0  0  0
    0.4027    0.9442   -3.5451 O   0  5  0  0  0  0  0  0  0  0  0  0
    2.6333    1.4333   -3.5836 O   0  0  0  0  0  0  0  0  0  0  0  0
    1.9288   -0.5463    1.4242 H   0  0  0  0  0  0  0  0  0  0  0  0
    0.9111    1.4465    1.1560 H   0  0  0  0  0  0  0  0  0  0  0  0
   -0.4296    1.6527   -1.0561 H   0  0  0  0  0  0  0  0  0  0  0  0
   -0.2696   -0.0825   -1.2428 H   0  0  0  0  0  0  0  0  0  0  0  0
    2.0997    1.8438   -1.0704 H   0  0  0  0  0  0  0  0  0  0  0  0
    2.1899    0.1023   -1.2921 H   0  0  0  0  0  0  0  0  0  0  0  0
   -1.8294   -0.4413    0.8932 N   0  0  0  0  0  0  0  0  0  0  0  0
   -3.1776   -0.6821    1.3526 C   0  0  2  0  0  0  0  0  0  0  0  0
   -3.5322   -2.1283    1.0326 C   0  0  0  0  0  0  0  0  0  0  0  0
   -2.9656   -2.7801    0.1580 O   0  0  0  0  0  0  0  0  0  0  0  0
   -4.1633    0.2760    0.7020 C   0  0  0  0  0  0  0  0  0  0  0  0
   -1.4509   -1.0688    0.1899 H   0  0  0  0  0  0  0  0  0  0  0  0
   -3.1721   -0.5385    2.4386 H   0  0  0  0  0  0  0  0  0  0  0  0
   -4.1828    0.1469   -0.3863 H   0  0  0  0  0  0  0  0  0  0  0  0
   -5.1804    0.1110    1.0726 H   0  0  0  0  0  0  0  0  0  0  0  0
   -3.8896    1.3163    0.9084 H   0  0  0  0  0  0  0  0  0  0  0  0
   -4.5850   -2.5916    1.8093 N   0  0  0  0  0  0  0  0  0  0  0  0
   -5.1155   -3.9292    1.6854 C   0  0  0  0  0  0  0  0  0  0  0  0
   -4.9823   -1.9884    2.5235 H   0  0  0  0  0  0  0  0  0  0  0  0
   -5.9540   -3.9271    0.9735 H   0  0  0  0  0  0  0  0  0  0  0  0
   -4.3269   -4.6040    1.3210 H   0  0  0  0  0  0  0  0  0  0  0  0
   -5.4694   -4.2755    2.6677 H   0  0  0  0  0  0  0  0  0  0  0  0
  1  3  1  0  0  0  0
  1  7  1  0  0  0  0
  1  2  2  0  0  0  0
 33 34  1  0  0  0  0
 34 42  1  0  0  0  0
 34 35  2  0  0  0  0
  8  9  1  0  0  0  0
  9 17  1  0  0  0  0
  9 10  2  0  0  0  0
 18 19  1  0  0  0  0
 19 32  1  0  0  0  0
 19 20  2  0  0  0  0
 22 23  1  0  0  0  0
 23 24  1  0  0  0  0
 23 25  2  0  0  0  0
 33 36  1  0  0  0  0
  8 11  1  0  0  0  0
 42 43  1  0  0  0  0
 21 22  1  0  0  0  0
 18 21  1  0  0  0  0
 32 33  1  0  0  0  0
  7  8  1  0  0  0  0
 17 18  1  0  0  0  0
  3  4  1  0  0  0  0
  3  5  1  0  0  0  0
  3  6  1  0  0  0  0
 36 39  1  0  0  0  0
 36 40  1  0  0  0  0
 36 41  1  0  0  0  0
 11 14  1  0  0  0  0
 11 15  1  0  0  0  0
 11 16  1  0  0  0  0
 43 45  1  0  0  0  0
 43 46  1  0  0  0  0
 43 47  1  0  0  0  0
 22 30  1  0  0  0  0
 22 31  1  0  0  0  0
 21 28  1  0  0  0  0
 21 29  1  0  0  0  0
 33 38  1  0  0  0  0
  8 13  1  0  0  0  0
 18 27  1  0  0  0  0
 42 44  1  0  0  0  0
  7 12  1  0  0  0  0
 32 37  1  0  0  0  0
 17 26  1  0  0  0  0
M  CHG  1  24  -1
M  END
$$$$

  -OEChem-05262214473D

 47 46  0     1  0  0  0  0  0999 V2000
    0.5093   -4.7265    3.0306 C   0  0  0  0  0  0  0  0  0  0  0  0
    1.2735   -4.4402    3.9448 O   0  0  0  0  0  0  0  0  0  0  0  0
   -0.4465   -5.8608    3.1982 C   0  0  0  0  0  0  0  0  0  0  0  0
   -0.0219   -6.8213    2.8645 H   0  0  0  0  0  0  0  0  0  0  0  0
   -0.7314   -6.0185    4.2509 H   0  0  0  0  0  0  0  0  0  0  0  0
   -1.3983   -5.7596    2.6527 H   0  0  0  0  0  0  0  0  0  0  0  0
    0.4252   -4.0886    1.8040 N   0  0  0  0  0  0  0  0  0  0  0  0
    1.2532   -2.9707    1.4349 C   0  0  2  0  0  0  0  0  0  0  0  0
    0.3395   -1.8293    1.0083 C   0  0  0  0  0  0  0  0  0  0  0  0
   -0.8136   -2.0027    0.6194 O   0  0  0  0  0  0  0  0  0  0  0  0
    2.2176   -3.3411    0.3189 C   0  0  0  0  0  0  0  0  0  0  0  0
   -0.2574   -4.4279    1.1287 H   0  0  0  0  0  0  0  0  0  0  0  0
    1.8087   -2.6785    2.3327 H   0  0  0  0  0  0  0  0  0  0  0  0
    1.6793   -3.6366   -0.5890 H   0  0  0  0  0  0  0  0  0  0  0  0
    2.8662   -2.4980    0.0589 H   0  0  0  0  0  0  0  0  0  0  0  0
    2.8538   -4.1816    0.6166 H   0  0  0  0  0  0  0  0  0  0  0  0
    0.9758   -0.5952    1.0708 N   0  0  0  0  0  0  0  0  0  0  0  0
    0.3258    0.6374    0.7059 C   0  0  2  0  0  0  0  0  0  0  0  0
   -1.0629    0.6276    1.3363 C   0  0  0  0  0  0  0  0  0  0  0  0
   -1.5245    1.5846    1.9546 O   0  0  0  0  0  0  0  0  0  0  0  0
    0.2204    0.8024   -0.8149 C   0  0  0  0  0  0  0  0  0  0  0  0
    1.5727    0.9850   -1.5029 C   0  0  0  0  0  0  0  0  0  0  0  0
    1.5414    1.1319   -3.0277 C   0  0  0  0  0  0  0  0  0  0  0  0
    0.4027    0.9442   -3.5451 O   0  5  0  0  0  0  0  0  0  0  0  0
    2.6333    1.4333   -3.5836 O   0  0  0  0  0  0  0  0  0  0  0  0
    1.9288   -0.5463    1.4242 H   0  0  0  0  0  0  0  0  0  0  0  0
    0.9111    1.4465    1.1560 H   0  0  0  0  0  0  0  0  0  0  0  0
   -0.4296    1.6527   -1.0561 H   0  0  0  0  0  0  0  0  0  0  0  0
   -0.2696   -0.0825   -1.2428 H   0  0  0  0  0  0  0  0  0  0  0  0
    2.0997    1.8438   -1.0704 H   0  0  0  0  0  0  0  0  0  0  0  0
    2.1899    0.1023   -1.2921 H   0  0  0  0  0  0  0  0  0  0  0  0
   -1.7044   -0.5914    1.1663 N   0  0  0  0  0  0  0  0  0  0  0  0
   -3.0257   -0.8603    1.6845 C   0  0  2  0  0  0  0  0  0  0  0  0
   -3.2192   -2.3705    1.7185 C   0  0  0  0  0  0  0  0  0  0  0  0
   -2.5735   -3.1455    1.0159 O   0  0  0  0  0  0  0  0  0  0  0  0
   -4.0985   -0.1938    0.8375 C   0  0  0  0  0  0  0  0  0  0  0  0
   -1.2509   -1.3226    0.6265 H   0  0  0  0  0  0  0  0  0  0  0  0
   -3.0512   -0.4652    2.7059 H   0  0  0  0  0  0  0  0  0  0  0  0
   -4.0883   -0.5769   -0.1894 H   0  0  0  0  0  0  0  0  0  0  0  0
   -5.0974   -0.3748    1.2479 H   0  0  0  0  0  0  0  0  0  0  0  0
   -3.9405    0.8891    0.7897 H   0  0  0  0  0  0  0  0  0  0  0  0
   -4.2276   -2.7479    2.5942 N   0  0  0  0  0  0  0  0  0  0  0  0
   -4.6104   -4.1260    2.7952 C   0  0  0  0  0  0  0  0  0  0  0  0
   -4.6973   -2.0396    3.1505 H   0  0  0  0  0  0  0  0  0  0  0  0
   -5.4339   -4.3816    2.1122 H   0  0  0  0  0  0  0  0  0  0  0  0
   -3.7490   -4.7791    2.5913 H   0  0  0  0  0  0  0  0  0  0  0  0
   -4.9395   -4.2671    3.8352 H   0  0  0  0  0  0  0  0  0  0  0  0
  1  3  1  0  0  0  0
  1  7  1  0  0  0  0
  1  2  2  0  0  0  0
 33 34  1  0  0  0  0
 34 42  1  0  0  0  0
 34 35  2  0  0  0  0
  8  9  1  0  0  0  0
  9 17  1  0  0  0  0
  9 10  2  0  0  0  0
 18 19  1  0  0  0  0
 19 32  1  0  0  0  0
 19 20  2  0  0  0  0
 22 23  1  0  0  0  0
 23 24  1  0  0  0  0
 23 25  2  0  0  0  0
 33 36  1  0  0  0  0
  8 11  1  0  0  0  0
 42 43  1  0  0  0  0
 21 22  1  0  0  0  0
 18 21  1  0  0  0  0
 32 33  1  0  0  0  0
  7  8  1  0  0  0  0
 17 18  1  0  0  0  0
  3  4  1  0  0  0  0
  3  5  1  0  0  0  0
  3  6  1  0  0  0  0
 36 39  1  0  0  0  0
 36 40  1  0  0  0  0
 36 41  1  0  0  0  0
 11 14  1  0  0  0  0
 11 15  1  0  0  0  0
 11 16  1  0  0  0  0
 43 45  1  0  0  0  0
 43 46  1  0  0  0  0
 43 47  1  0  0  0  0
 22 30  1  0  0  0  0
 22 31  1  0  0  0  0
 21 28  1  0  0  0  0
 21 29  1  0  0  0  0
 33 38  1  0  0  0  0
  8 13  1  0  0  0  0
 18 27  1  0  0  0  0
 42 44  1  0  0  0  0
  7 12  1  0  0  0  0
 32 37  1  0  0  0  0
 17 26  1  0  0  0  0
M  CHG  1  24  -1
M  END
$$$$

  -OEChem-05262214473D

 47 46  0     1  0  0  0  0  0999 V2000
    0.5093   -4.7265    3.0306 C   0  0  0  0  0  0  0  0  0  0  0  0
    1.2735   -4.4402    3.9448 O   0  0  0  0  0  0  0  0  0  0  0  0
   -0.4465   -5.8608    3.1982 C   0  0  0  0  0  0  0  0  0  0  0  0
   -0.0219   -6.8213    2.8645 H   0  0  0  0  0  0  0  0  0  0  0  0
   -0.7314   -6.0185    4.2509 H   0  0  0  0  0  0  0  0  0  0  0  0
   -1.3983   -5.7596    2.6527 H   0  0  0  0  0  0  0  0  0  0  0  0
    0.4252   -4.0886    1.8040 N   0  0  0  0  0  0  0  0  0  0  0  0
    1.2532   -2.9707    1.4349 C   0  0  2  0  0  0  0  0  0  0  0  0
    0.3395   -1.8293    1.0083 C   0  0  0  0  0  0  0  0  0  0  0  0
   -0.8136   -2.0027    0.6194 O   0  0  0  0  0  0  0  0  0  0  0  0
    2.2176   -3.3411    0.3189 C   0  0  0  0  0  0  0  0  0  0  0  0
   -0.2574   -4.4279    1.1287 H   0  0  0  0  0  0  0  0  0  0  0  0
    1.8087   -2.6785    2.3327 H   0  0  0  0  0  0  0  0  0  0  0  0
    1.6793   -3.6366   -0.5890 H   0  0  0  0  0  0  0  0  0  0  0  0
    2.8662   -2.4980    0.0589 H   0  0  0  0  0  0  0  0  0  0  0  0
    2.8538   -4.1816    0.6166 H   0  0  0  0  0  0  0  0  0  0  0  0
    0.9758   -0.5952    1.0708 N   0  0  0  0  0  0  0  0  0  0  0  0
    0.3258    0.6374    0.7059 C   0  0  2  0  0  0  0  0  0  0  0  0
   -1.0629    0.6276    1.3363 C   0  0  0  0  0  0  0  0  0  0  0  0
   -1.6329    1.6482    1.7166 O   0  0  0  0  0  0  0  0  0  0  0  0
    0.2204    0.8024   -0.8149 C   0  0  0  0  0  0  0  0  0  0  0  0
    1.5727    0.9850   -1.5029 C   0  0  0  0  0  0  0  0  0  0  0  0
    1.5414    1.1319   -3.0277 C   0  0  0  0  0  0  0  0  0  0  0  0
    0.4027    0.9442   -3.5451 O   0  5  0  0  0  0  0  0  0  0  0  0
    2.6333    1.4333   -3.5836 O   0  0  0  0  0  0  0  0  0  0  0  0
    1.9288   -0.5463    1.4242 H   0  0  0  0  0  0  0  0  0  0  0  0
    0.9111    1.4465    1.1560 H   0  0  0  0  0  0  0  0  0  0  0  0
   -0.4296    1.6527   -1.0561 H   0  0  0  0  0  0  0  0  0  0  0  0
   -0.2696   -0.0825   -1.2428 H   0  0  0  0  0  0  0  0  0  0  0  0
    2.0997    1.8438   -1.0704 H   0  0  0  0  0  0  0  0  0  0  0  0
    2.1899    0.1023   -1.2921 H   0  0  0  0  0  0  0  0  0  0  0  0
   -1.5680   -0.6586    1.4656 N   0  0  0  0  0  0  0  0  0  0  0  0
   -2.8604   -0.9379    2.0474 C   0  0  2  0  0  0  0  0  0  0  0  0
   -2.8920   -2.4094    2.4387 C   0  0  0  0  0  0  0  0  0  0  0  0
   -2.1572   -3.2543    1.9314 O   0  0  0  0  0  0  0  0  0  0  0  0
   -3.9859   -0.6086    1.0791 C   0  0  0  0  0  0  0  0  0  0  0  0
   -1.0313   -1.4435    1.1085 H   0  0  0  0  0  0  0  0  0  0  0  0
   -2.9428   -0.3184    2.9471 H   0  0  0  0  0  0  0  0  0  0  0  0
   -3.9200   -1.2196    0.1715 H   0  0  0  0  0  0  0  0  0  0  0  0
   -4.9656   -0.7939    1.5318 H   0  0  0  0  0  0  0  0  0  0  0  0
   -3.9438    0.4430    0.7757 H   0  0  0  0  0  0  0  0  0  0  0  0
   -3.8669   -2.6757    3.3899 N   0  0  0  0  0  0  0  0  0  0  0  0
   -4.1032   -4.0006    3.9143 C   0  0  0  0  0  0  0  0  0  0  0  0
   -4.4176   -1.9109    3.7686 H   0  0  0  0  0  0  0  0  0  0  0  0
   -4.8848   -4.4966    3.3201 H   0  0  0  0  0  0  0  0  0  0  0  0
   -3.1742   -4.5871    3.8605 H   0  0  0  0  0  0  0  0  0  0  0  0
   -4.4304   -3.9271    4.9619 H   0  0  0  0  0  0  0  0  0  0  0  0
  1  3  1  0  0  0  0
  1  7  1  0  0  0  0
  1  2  2  0  0  0  0
 33 34  1  0  0  0  0
 34 42  1  0  0  0  0
 34 35  2  0  0  0  0
  8  9  1  0  0  0  0
  9 17  1  0  0  0  0
  9 10  2  0  0  0  0
 18 19  1  0  0  0  0
 19 32  1  0  0  0  0
 19 20  2  0  0  0  0
 22 23  1  0  0  0  0
 23 24  1  0  0  0  0
 23 25  2  0  0  0  0
 33 36  1  0  0  0  0
  8 11  1  0  0  0  0
 42 43  1  0  0  0  0
 21 22  1  0  0  0  0
 18 21  1  0  0  0  0
 32 33  1  0  0  0  0
  7  8  1  0  0  0  0
 17 18  1  0  0  0  0
  3  4  1  0  0  0  0
  3  5  1  0  0  0  0
  3  6  1  0  0  0  0
 36 39  1  0  0  0  0
 36 40  1  0  0  0  0
 36 41  1  0  0  0  0
 11 14  1  0  0  0  0
 11 15  1  0  0  0  0
 11 16  1  0  0  0  0
 43 45  1  0  0  0  0
 43 46  1  0  0  0  0
 43 47  1  0  0  0  0
 22 30  1  0  0  0  0
 22 31  1  0  0  0  0
 21 28  1  0  0  0  0
 21 29  1  0  0  0  0
 33 38  1  0  0  0  0
  8 13  1  0  0  0  0
 18 27  1  0  0  0  0
 42 44  1  0  0  0  0
  7 12  1  0  0  0  0
 32 37  1  0  0  0  0
 17 26  1  0  0  0  0
M  CHG  1  24  -1
M  END
$$$$

  -OEChem-05262214473D

 47 46  0     1  0  0  0  0  0999 V2000
    0.5093   -4.7265    3.0306 C   0  0  0  0  0  0  0  0  0  0  0  0
    1.2735   -4.4402    3.9448 O   0  0  0  0  0  0  0  0  0  0  0  0
   -0.4465   -5.8608    3.1982 C   0  0  0  0  0  0  0  0  0  0  0  0
   -0.0219   -6.8213    2.8645 H   0  0  0  0  0  0  0  0  0  0  0  0
   -0.7314   -6.0185    4.2509 H   0  0  0  0  0  0  0  0  0  0  0  0
   -1.3983   -5.7596    2.6527 H   0  0  0  0  0  0  0  0  0  0  0  0
    0.4252   -4.0886    1.8040 N   0  0  0  0  0  0  0  0  0  0  0  0
    1.2532   -2.9707    1.4349 C   0  0  2  0  0  0  0  0  0  0  0  0
    0.3395   -1.8293    1.0083 C   0  0  0  0  0  0  0  0  0  0  0  0
   -0.8136   -2.0027    0.6194 O   0  0  0  0  0  0  0  0  0  0  0  0
    2.2176   -3.3411    0.3189 C   0  0  0  0  0  0  0  0  0  0  0  0
   -0.2574   -4.4279    1.1287 H   0  0  0  0  0  0  0  0  0  0  0  0
    1.8087   -2.6785    2.3327 H   0  0  0  0  0  0  0  0  0  0  0  0
    1.6793   -3.6366   -0.5890 H   0  0  0  0  0  0  0  0  0  0  0  0
    2.8662   -2.4980    0.0589 H   0  0  0  0  0  0  0  0  0  0  0  0
    2.8538   -4.1816    0.6166 H   0  0  0  0  0  0  0  0  0  0  0  0
    0.9758   -0.5952    1.0708 N   0  0  0  0  0  0  0  0  0  0  0  0
    0.3258    0.6374    0.7059 C   0  0  2  0  0  0  0  0  0  0  0  0
   -1.0629    0.6276    1.3363 C   0  0  0  0  0  0  0  0  0  0  0  0
   -1.7441    1.6419    1.4716 O   0  0  0  0  0  0  0  0  0  0  0  0
    0.2204    0.8024   -0.8149 C   0  0  0  0  0  0  0  0  0  0  0  0
    1.5727    0.9850   -1.5029 C   0  0  0  0  0  0  0  0  0  0  0  0
    1.5414    1.1319   -3.0277 C   0  0  0  0  0  0  0  0  0  0  0  0
    0.4027    0.9442   -3.5451 O   0  5  0  0  0  0  0  0  0  0  0  0
    2.6333    1.4333   -3.5836 O   0  0  0  0  0  0  0  0  0  0  0  0
    1.9288   -0.5463    1.4242 H   0  0  0  0  0  0  0  0  0  0  0  0
    0.9111    1.4465    1.1560 H   0  0  0  0  0  0  0  0  0  0  0  0
   -0.4296    1.6527   -1.0561 H   0  0  0  0  0  0  0  0  0  0  0  0
   -0.2696   -0.0825   -1.2428 H   0  0  0  0  0  0  0  0  0  0  0  0
    2.0997    1.8438   -1.0704 H   0  0  0  0  0  0  0  0  0  0  0  0
    2.1899    0.1023   -1.2921 H   0  0  0  0  0  0  0  0  0  0  0  0
   -1.4296   -0.6385    1.7709 N   0  0  0  0  0  0  0  0  0  0  0  0
   -2.6931   -0.9097    2.4165 C   0  0  2  0  0  0  0  0  0  0  0  0
   -2.5730   -2.2423    3.1440 C   0  0  0  0  0  0  0  0  0  0  0  0
   -1.7449   -3.0991    2.8420 O   0  0  0  0  0  0  0  0  0  0  0  0
   -3.8332   -0.9404    1.4105 C   0  0  0  0  0  0  0  0  0  0  0  0
   -0.8070   -1.4233    1.6029 H   0  0  0  0  0  0  0  0  0  0  0  0
   -2.8542   -0.1081    3.1456 H   0  0  0  0  0  0  0  0  0  0  0  0
   -3.6892   -1.7373    0.6718 H   0  0  0  0  0  0  0  0  0  0  0  0
   -4.7939   -1.1177    1.9050 H   0  0  0  0  0  0  0  0  0  0  0  0
   -3.8992    0.0085    0.8672 H   0  0  0  0  0  0  0  0  0  0  0  0
   -3.5276   -2.3799    4.1420 N   0  0  0  0  0  0  0  0  0  0  0  0
   -3.6287   -3.5614    4.9665 C   0  0  0  0  0  0  0  0  0  0  0  0
   -4.1622   -1.6109    4.3358 H   0  0  0  0  0  0  0  0  0  0  0  0
   -4.3441   -4.2643    4.5148 H   0  0  0  0  0  0  0  0  0  0  0  0
   -2.6417   -4.0411    5.0422 H   0  0  0  0  0  0  0  0  0  0  0  0
   -3.9769   -3.2787    5.9709 H   0  0  0  0  0  0  0  0  0  0  0  0
  1  3  1  0  0  0  0
  1  7  1  0  0  0  0
  1  2  2  0  0  0  0
 33 34  1  0  0  0  0
 34 42  1  0  0  0  0
 34 35  2  0  0  0  0
  8  9  1  0  0  0  0
  9 17  1  0  0  0  0
  9 10  2  0  0  0  0
 18 19  1  0  0  0  0
 19 32  1  0  0  0  0
 19 20  2  0  0  0  0
 22 23  1  0  0  0  0
 23 24  1  0  0  0  0
 23 25  2  0  0  0  0
 33 36  1  0  0  0  0
  8 11  1  0  0  0  0
 42 43  1  0  0  0  0
 21 22  1  0  0  0  0
 18 21  1  0  0  0  0
 32 33  1  0  0  0  0
  7  8  1  0  0  0  0
 17 18  1  0  0  0  0
  3  4  1  0  0  0  0
  3  5  1  0  0  0  0
  3  6  1  0  0  0  0
 36 39  1  0  0  0  0
 36 40  1  0  0  0  0
 36 41  1  0  0  0  0
 11 14  1  0  0  0  0
 11 15  1  0  0  0  0
 11 16  1  0  0  0  0
 43 45  1  0  0  0  0
 43 46  1  0  0  0  0
 43 47  1  0  0  0  0
 22 30  1  0  0  0  0
 22 31  1  0  0  0  0
 21 28  1  0  0  0  0
 21 29  1  0  0  0  0
 33 38  1  0  0  0  0
  8 13  1  0  0  0  0
 18 27  1  0  0  0  0
 42 44  1  0  0  0  0
  7 12  1  0  0  0  0
 32 37  1  0  0  0  0
 17 26  1  0  0  0  0
M  CHG  1  24  -1
M  END
$$$$

  -OEChem-05262214473D

 47 46  0     1  0  0  0  0  0999 V2000
    0.5093   -4.7265    3.0306 C   0  0  0  0  0  0  0  0  0  0  0  0
    1.2735   -4.4402    3.9448 O   0  0  0  0  0  0  0  0  0  0  0  0
   -0.4465   -5.8608    3.1982 C   0  0  0  0  0  0  0  0  0  0  0  0
   -0.0219   -6.8213    2.8645 H   0  0  0  0  0  0  0  0  0  0  0  0
   -0.7314   -6.0185    4.2509 H   0  0  0  0  0  0  0  0  0  0  0  0
   -1.3983   -5.7596    2.6527 H   0  0  0  0  0  0  0  0  0  0  0  0
    0.4252   -4.0886    1.8040 N   0  0  0  0  0  0  0  0  0  0  0  0
    1.2532   -2.9707    1.4349 C   0  0  2  0  0  0  0  0  0  0  0  0
    0.3395   -1.8293    1.0083 C   0  0  0  0  0  0  0  0  0  0  0  0
   -0.8136   -2.0027    0.6194 O   0  0  0  0  0  0  0  0  0  0  0  0
    2.2176   -3.3411    0.3189 C   0  0  0  0  0  0  0  0  0  0  0  0
   -0.2574   -4.4279    1.1287 H   0  0  0  0  0  0  0  0  0  0  0  0
    1.8087   -2.6785    2.3327 H   0  0  0  0  0  0  0  0  0  0  0  0
    1.6793   -3.6366   -0.5890 H   0  0  0  0  0  0  0  0  0  0  0  0
    2.8662   -2.4980    0.0589 H   0  0  0  0  0  0  0  0  0  0  0  0
    2.8538   -4.1816    0.6166 H   0  0  0  0  0  0  0  0  0  0  0  0
    0.9758   -0.5952    1.0708 N   0  0  0  0  0  0  0  0  0  0  0  0
    0.3258    0.6374    0.7059 C   0  0  2  0  0  0  0  0  0  0  0  0
   -1.0629    0.6276    1.3363 C   0  0  0  0  0  0  0  0  0  0  0  0
   -1.8504    1.5663    1.2363 O   0  0  0  0  0  0  0  0  0  0  0  0
    0.2204    0.8024   -0.8149 C   0  0  0  0  0  0  0  0  0  0  0  0
    1.5727    0.9850   -1.5029 C   0  0  0  0  0  0  0  0  0  0  0  0
    1.5414    1.1319   -3.0277 C   0  0  0  0  0  0  0  0  0  0  0  0
    0.4027    0.9442   -3.5451 O   0  5  0  0  0  0  0  0  0  0  0  0
    2.6333    1.4333   -3.5836 O   0  0  0  0  0  0  0  0  0  0  0  0
    1.9288   -0.5463    1.4242 H   0  0  0  0  0  0  0  0  0  0  0  0
    0.9111    1.4465    1.1560 H   0  0  0  0  0  0  0  0  0  0  0  0
   -0.4296    1.6527   -1.0561 H   0  0  0  0  0  0  0  0  0  0  0  0
   -0.2696   -0.0825   -1.2428 H   0  0  0  0  0  0  0  0  0  0  0  0
    2.0997    1.8438   -1.0704 H   0  0  0  0  0  0  0  0  0  0  0  0
    2.1899    0.1023   -1.2921 H   0  0  0  0  0  0  0  0  0  0  0  0
   -1.2986   -0.5323    2.0612 N   0  0  0  0  0  0  0  0  0  0  0  0
   -2.5351   -0.7775    2.7666 C   0  0  2  0  0  0  0  0  0  0  0  0
   -2.2839   -1.8805    3.7864 C   0  0  0  0  0  0  0  0  0  0  0  0
   -1.3648   -2.6905    3.6857 O   0  0  0  0  0  0  0  0  0  0  0  0
   -3.6507   -1.1664    1.8090 C   0  0  0  0  0  0  0  0  0  0  0  0
   -0.5934   -1.2632    2.0760 H   0  0  0  0  0  0  0  0  0  0  0  0
   -2.7914    0.1512    3.2879 H   0  0  0  0  0  0  0  0  0  0  0  0
   -3.4118   -2.0947    1.2774 H   0  0  0  0  0  0  0  0  0  0  0  0
   -4.5941   -1.3241    2.3420 H   0  0  0  0  0  0  0  0  0  0  0  0
   -3.8097   -0.3849    1.0581 H   0  0  0  0  0  0  0  0  0  0  0  0
   -3.2327   -1.8807    4.7993 N   0  0  0  0  0  0  0  0  0  0  0  0
   -3.2190   -2.8385    5.8802 C   0  0  0  0  0  0  0  0  0  0  0  0
   -3.9486   -1.1602    4.8135 H   0  0  0  0  0  0  0  0  0  0  0  0
   -3.8487   -3.7005    5.6150 H   0  0  0  0  0  0  0  0  0  0  0  0
   -2.1876   -3.1782    6.0559 H   0  0  0  0  0  0  0  0  0  0  0  0
   -3.6100   -2.3661    6.7935 H   0  0  0  0  0  0  0  0  0  0  0  0
  1  3  1  0  0  0  0
  1  7  1  0  0  0  0
  1  2  2  0  0  0  0
 33 34  1  0  0  0  0
 34 42  1  0  0  0  0
 34 35  2  0  0  0  0
  8  9  1  0  0  0  0
  9 17  1  0  0  0  0
  9 10  2  0  0  0  0
 18 19  1  0  0  0  0
 19 32  1  0  0  0  0
 19 20  2  0  0  0  0
 22 23  1  0  0  0  0
 23 24  1  0  0  0  0
 23 25  2  0  0  0  0
 33 36  1  0  0  0  0
  8 11  1  0  0  0  0
 42 43  1  0  0  0  0
 21 22  1  0  0  0  0
 18 21  1  0  0  0  0
 32 33  1  0  0  0  0
  7  8  1  0  0  0  0
 17 18  1  0  0  0  0
  3  4  1  0  0  0  0
  3  5  1  0  0  0  0
  3  6  1  0  0  0  0
 36 39  1  0  0  0  0
 36 40  1  0  0  0  0
 36 41  1  0  0  0  0
 11 14  1  0  0  0  0
 11 15  1  0  0  0  0
 11 16  1  0  0  0  0
 43 45  1  0  0  0  0
 43 46  1  0  0  0  0
 43 47  1  0  0  0  0
 22 30  1  0  0  0  0
 22 31  1  0  0  0  0
 21 28  1  0  0  0  0
 21 29  1  0  0  0  0
 33 38  1  0  0  0  0
  8 13  1  0  0  0  0
 18 27  1  0  0  0  0
 42 44  1  0  0  0  0
  7 12  1  0  0  0  0
 32 37  1  0  0  0  0
 17 26  1  0  0  0  0
M  CHG  1  24  -1
M  END
$$$$

  -OEChem-05262214473D

 47 46  0     1  0  0  0  0  0999 V2000
    0.5093   -4.7265    3.0306 C   0  0  0  0  0  0  0  0  0  0  0  0
    1.2735   -4.4402    3.9448 O   0  0  0  0  0  0  0  0  0  0  0  0
   -0.4465   -5.8608    3.1982 C   0  0  0  0  0  0  0  0  0  0  0  0
   -0.0219   -6.8213    2.8645 H   0  0  0  0  0  0  0  0  0  0  0  0
   -0.7314   -6.0185    4.2509 H   0  0  0  0  0  0  0  0  0  0  0  0
   -1.3983   -5.7596    2.6527 H   0  0  0  0  0  0  0  0  0  0  0  0
    0.4252   -4.0886    1.8040 N   0  0  0  0  0  0  0  0  0  0  0  0
    1.2532   -2.9707    1.4349 C   0  0  2  0  0  0  0  0  0  0  0  0
    0.3395   -1.8293    1.0083 C   0  0  0  0  0  0  0  0  0  0  0  0
   -0.8136   -2.0027    0.6194 O   0  0  0  0  0  0  0  0  0  0  0  0
    2.2176   -3.3411    0.3189 C   0  0  0  0  0  0  0  0  0  0  0  0
   -0.2574   -4.4279    1.1287 H   0  0  0  0  0  0  0  0  0  0  0  0
    1.8087   -2.6785    2.3327 H   0  0  0  0  0  0  0  0  0  0  0  0
    1.6793   -3.6366   -0.5890 H   0  0  0  0  0  0  0  0  0  0  0  0
    2.8662   -2.4980    0.0589 H   0  0  0  0  0  0  0  0  0  0  0  0
    2.8538   -4.1816    0.6166 H   0  0  0  0  0  0  0  0  0  0  0  0
    0.9758   -0.5952    1.0708 N   0  0  0  0  0  0  0  0  0  0  0  0
    0.3258    0.6374    0.7059 C   0  0  2  0  0  0  0  0  0  0  0  0
   -1.0629    0.6276    1.3363 C   0  0  0  0  0  0  0  0  0  0  0  0
   -1.9446    1.4263    1.0266 O   0  0  0  0  0  0  0  0  0  0  0  0
    0.2204    0.8024   -0.8149 C   0  0  0  0  0  0  0  0  0  0  0  0
    1.5727    0.9850   -1.5029 C   0  0  0  0  0  0  0  0  0  0  0  0
    1.5414    1.1319   -3.0277 C   0  0  0  0  0  0  0  0  0  0  0  0
    0.4027    0.9442   -3.5451 O   0  5  0  0  0  0  0  0  0  0  0  0
    2.6333    1.4333   -3.5836 O   0  0  0  0  0  0  0  0  0  0  0  0
    1.9288   -0.5463    1.4242 H   0  0  0  0  0  0  0  0  0  0  0  0
    0.9111    1.4465    1.1560 H   0  0  0  0  0  0  0  0  0  0  0  0
   -0.4296    1.6527   -1.0561 H   0  0  0  0  0  0  0  0  0  0  0  0
   -0.2696   -0.0825   -1.2428 H   0  0  0  0  0  0  0  0  0  0  0  0
    2.0997    1.8438   -1.0704 H   0  0  0  0  0  0  0  0  0  0  0  0
    2.1899    0.1023   -1.2921 H   0  0  0  0  0  0  0  0  0  0  0  0
   -1.1838   -0.3472    2.3168 N   0  0  0  0  0  0  0  0  0  0  0  0
   -2.3972   -0.5505    3.0739 C   0  0  2  0  0  0  0  0  0  0  0  0
   -2.0445   -1.3487    4.3221 C   0  0  0  0  0  0  0  0  0  0  0  0
   -1.0428   -2.0564    4.4050 O   0  0  0  0  0  0  0  0  0  0  0  0
   -3.4509   -1.2712    2.2475 C   0  0  0  0  0  0  0  0  0  0  0  0
   -0.4049   -0.9742    2.4956 H   0  0  0  0  0  0  0  0  0  0  0  0
   -2.7587    0.4419    3.3644 H   0  0  0  0  0  0  0  0  0  0  0  0
   -3.1066   -2.2676    1.9471 H   0  0  0  0  0  0  0  0  0  0  0  0
   -4.3797   -1.3991    2.8132 H   0  0  0  0  0  0  0  0  0  0  0  0
   -3.6816   -0.7103    1.3354 H   0  0  0  0  0  0  0  0  0  0  0  0
   -3.0024   -1.2119    5.3170 N   0  0  0  0  0  0  0  0  0  0  0  0
   -2.9021   -1.8810    6.5931 C   0  0  0  0  0  0  0  0  0  0  0  0
   -3.7912   -0.5894    5.1690 H   0  0  0  0  0  0  0  0  0  0  0  0
   -3.4322   -2.8436    6.5456 H   0  0  0  0  0  0  0  0  0  0  0  0
   -1.8430   -2.0572    6.8323 H   0  0  0  0  0  0  0  0  0  0  0  0
   -3.3545   -1.2515    7.3735 H   0  0  0  0  0  0  0  0  0  0  0  0
  1  3  1  0  0  0  0
  1  7  1  0  0  0  0
  1  2  2  0  0  0  0
 33 34  1  0  0  0  0
 34 42  1  0  0  0  0
 34 35  2  0  0  0  0
  8  9  1  0  0  0  0
  9 17  1  0  0  0  0
  9 10  2  0  0  0  0
 18 19  1  0  0  0  0
 19 32  1  0  0  0  0
 19 20  2  0  0  0  0
 22 23  1  0  0  0  0
 23 24  1  0  0  0  0
 23 25  2  0  0  0  0
 33 36  1  0  0  0  0
  8 11  1  0  0  0  0
 42 43  1  0  0  0  0
 21 22  1  0  0  0  0
 18 21  1  0  0  0  0
 32 33  1  0  0  0  0
  7  8  1  0  0  0  0
 17 18  1  0  0  0  0
  3  4  1  0  0  0  0
  3  5  1  0  0  0  0
  3  6  1  0  0  0  0
 36 39  1  0  0  0  0
 36 40  1  0  0  0  0
 36 41  1  0  0  0  0
 11 14  1  0  0  0  0
 11 15  1  0  0  0  0
 11 16  1  0  0  0  0
 43 45  1  0  0  0  0
 43 46  1  0  0  0  0
 43 47  1  0  0  0  0
 22 30  1  0  0  0  0
 22 31  1  0  0  0  0
 21 28  1  0  0  0  0
 21 29  1  0  0  0  0
 33 38  1  0  0  0  0
  8 13  1  0  0  0  0
 18 27  1  0  0  0  0
 42 44  1  0  0  0  0
  7 12  1  0  0  0  0
 32 37  1  0  0  0  0
 17 26  1  0  0  0  0
M  CHG  1  24  -1
M  END
$$$$

  -OEChem-05262214473D

 47 46  0     1  0  0  0  0  0999 V2000
    0.5093   -4.7265    3.0306 C   0  0  0  0  0  0  0  0  0  0  0  0
    1.2735   -4.4402    3.9448 O   0  0  0  0  0  0  0  0  0  0  0  0
   -0.4465   -5.8608    3.1982 C   0  0  0  0  0  0  0  0  0  0  0  0
   -0.0219   -6.8213    2.8645 H   0  0  0  0  0  0  0  0  0  0  0  0
   -0.7314   -6.0185    4.2509 H   0  0  0  0  0  0  0  0  0  0  0  0
   -1.3983   -5.7596    2.6527 H   0  0  0  0  0  0  0  0  0  0  0  0
    0.4252   -4.0886    1.8040 N   0  0  0  0  0  0  0  0  0  0  0  0
    1.2532   -2.9707    1.4349 C   0  0  2  0  0  0  0  0  0  0  0  0
    0.3395   -1.8293    1.0083 C   0  0  0  0  0  0  0  0  0  0  0  0
   -0.8136   -2.0027    0.6194 O   0  0  0  0  0  0  0  0  0  0  0  0
    2.2176   -3.3411    0.3189 C   0  0  0  0  0  0  0  0  0  0  0  0
   -0.2574   -4.4279    1.1287 H   0  0  0  0  0  0  0  0  0  0  0  0
    1.8087   -2.6785    2.3327 H   0  0  0  0  0  0  0  0  0  0  0  0
    1.6793   -3.6366   -0.5890 H   0  0  0  0  0  0  0  0  0  0  0  0
    2.8662   -2.4980    0.0589 H   0  0  0  0  0  0  0  0  0  0  0  0
    2.8538   -4.1816    0.6166 H   0  0  0  0  0  0  0  0  0  0  0  0
    0.9758   -0.5952    1.0708 N   0  0  0  0  0  0  0  0  0  0  0  0
    0.3258    0.6374    0.7059 C   0  0  2  0  0  0  0  0  0  0  0  0
   -1.0629    0.6276    1.3363 C   0  0  0  0  0  0  0  0  0  0  0  0
   -2.0203    1.2317    0.8569 O   0  0  0  0  0  0  0  0  0  0  0  0
    0.2204    0.8024   -0.8149 C   0  0  0  0  0  0  0  0  0  0  0  0
    1.5727    0.9850   -1.5029 C   0  0  0  0  0  0  0  0  0  0  0  0
    1.5414    1.1319   -3.0277 C   0  0  0  0  0  0  0  0  0  0  0  0
    0.4027    0.9442   -3.5451 O   0  5  0  0  0  0  0  0  0  0  0  0
    2.6333    1.4333   -3.5836 O   0  0  0  0  0  0  0  0  0  0  0  0
    1.9288   -0.5463    1.4242 H   0  0  0  0  0  0  0  0  0  0  0  0
    0.9111    1.4465    1.1560 H   0  0  0  0  0  0  0  0  0  0  0  0
   -0.4296    1.6527   -1.0561 H   0  0  0  0  0  0  0  0  0  0  0  0
   -0.2696   -0.0825   -1.2428 H   0  0  0  0  0  0  0  0  0  0  0  0
    2.0997    1.8438   -1.0704 H   0  0  0  0  0  0  0  0  0  0  0  0
    2.1899    0.1023   -1.2921 H   0  0  0  0  0  0  0  0  0  0  0  0
   -1.0932   -0.0960    2.5203 N   0  0  0  0  0  0  0  0  0  0  0  0
   -2.2888   -0.2440    3.3175 C   0  0  2  0  0  0  0  0  0  0  0  0
   -1.8710   -0.6832    4.7146 C   0  0  0  0  0  0  0  0  0  0  0  0
   -0.8007   -1.2398    4.9508 O   0  0  0  0  0  0  0  0  0  0  0  0
   -3.2474   -1.2478    2.6961 C   0  0  0  0  0  0  0  0  0  0  0  0
   -0.2545   -0.5759    2.8331 H   0  0  0  0  0  0  0  0  0  0  0  0
   -2.7583    0.7443    3.3699 H   0  0  0  0  0  0  0  0  0  0  0  0
   -2.7944   -2.2440    2.6353 H   0  0  0  0  0  0  0  0  0  0  0  0
   -4.1653   -1.3376    3.2863 H   0  0  0  0  0  0  0  0  0  0  0  0
   -3.5235   -0.9456    1.6801 H   0  0  0  0  0  0  0  0  0  0  0  0
   -2.8523   -0.4193    5.6599 N   0  0  0  0  0  0  0  0  0  0  0  0
   -2.6996   -0.7542    7.0565 C   0  0  0  0  0  0  0  0  0  0  0  0
   -3.7009    0.0625    5.3781 H   0  0  0  0  0  0  0  0  0  0  0  0
   -3.1232   -1.7521    7.2433 H   0  0  0  0  0  0  0  0  0  0  0  0
   -1.6313   -0.7546    7.3187 H   0  0  0  0  0  0  0  0  0  0  0  0
   -3.2279   -0.0108    7.6716 H   0  0  0  0  0  0  0  0  0  0  0  0
  1  3  1  0  0  0  0
  1  7  1  0  0  0  0
  1  2  2  0  0  0  0
 33 34  1  0  0  0  0
 34 42  1  0  0  0  0
 34 35  2  0  0  0  0
  8  9  1  0  0  0  0
  9 17  1  0  0  0  0
  9 10  2  0  0  0  0
 18 19  1  0  0  0  0
 19 32  1  0  0  0  0
 19 20  2  0  0  0  0
 22 23  1  0  0  0  0
 23 24  1  0  0  0  0
 23 25  2  0  0  0  0
 33 36  1  0  0  0  0
  8 11  1  0  0  0  0
 42 43  1  0  0  0  0
 21 22  1  0  0  0  0
 18 21  1  0  0  0  0
 32 33  1  0  0  0  0
  7  8  1  0  0  0  0
 17 18  1  0  0  0  0
  3  4  1  0  0  0  0
  3  5  1  0  0  0  0
  3  6  1  0  0  0  0
 36 39  1  0  0  0  0
 36 40  1  0  0  0  0
 36 41  1  0  0  0  0
 11 14  1  0  0  0  0
 11 15  1  0  0  0  0
 11 16  1  0  0  0  0
 43 45  1  0  0  0  0
 43 46  1  0  0  0  0
 43 47  1  0  0  0  0
 22 30  1  0  0  0  0
 22 31  1  0  0  0  0
 21 28  1  0  0  0  0
 21 29  1  0  0  0  0
 33 38  1  0  0  0  0
  8 13  1  0  0  0  0
 18 27  1  0  0  0  0
 42 44  1  0  0  0  0
  7 12  1  0  0  0  0
 32 37  1  0  0  0  0
 17 26  1  0  0  0  0
M  CHG  1  24  -1
M  END
$$$$

  -OEChem-05262214473D

 47 46  0     1  0  0  0  0  0999 V2000
    0.5093   -4.7265    3.0306 C   0  0  0  0  0  0  0  0  0  0  0  0
    1.2735   -4.4402    3.9448 O   0  0  0  0  0  0  0  0  0  0  0  0
   -0.4465   -5.8608    3.1982 C   0  0  0  0  0  0  0  0  0  0  0  0
   -0.0219   -6.8213    2.8645 H   0  0  0  0  0  0  0  0  0  0  0  0
   -0.7314   -6.0185    4.2509 H   0  0  0  0  0  0  0  0  0  0  0  0
   -1.3983   -5.7596    2.6527 H   0  0  0  0  0  0  0  0  0  0  0  0
    0.4252   -4.0886    1.8040 N   0  0  0  0  0  0  0  0  0  0  0  0
    1.2532   -2.9707    1.4349 C   0  0  2  0  0  0  0  0  0  0  0  0
    0.3395   -1.8293    1.0083 C   0  0  0  0  0  0  0  0  0  0  0  0
   -0.8136   -2.0027    0.6194 O   0  0  0  0  0  0  0  0  0  0  0  0
    2.2176   -3.3411    0.3189 C   0  0  0  0  0  0  0  0  0  0  0  0
   -0.2574   -4.4279    1.1287 H   0  0  0  0  0  0  0  0  0  0  0  0
    1.8087   -2.6785    2.3327 H   0  0  0  0  0  0  0  0  0  0  0  0
    1.6793   -3.6366   -0.5890 H   0  0  0  0  0  0  0  0  0  0  0  0
    2.8662   -2.4980    0.0589 H   0  0  0  0  0  0  0  0  0  0  0  0
    2.8538   -4.1816    0.6166 H   0  0  0  0  0  0  0  0  0  0  0  0
    0.9758   -0.5952    1.0708 N   0  0  0  0  0  0  0  0  0  0  0  0
    0.3258    0.6374    0.7059 C   0  0  2  0  0  0  0  0  0  0  0  0
   -1.0629    0.6276    1.3363 C   0  0  0  0  0  0  0  0  0  0  0  0
   -2.0723    0.9955    0.7387 O   0  0  0  0  0  0  0  0  0  0  0  0
    0.2204    0.8024   -0.8149 C   0  0  0  0  0  0  0  0  0  0  0  0
    1.5727    0.9850   -1.5029 C   0  0  0  0  0  0  0  0  0  0  0  0
    1.5414    1.1319   -3.0277 C   0  0  0  0  0  0  0  0  0  0  0  0
    0.4027    0.9442   -3.5451 O   0  5  0  0  0  0  0  0  0  0  0  0
    2.6333    1.4333   -3.5836 O   0  0  0  0  0  0  0  0  0  0  0  0
    1.9288   -0.5463    1.4242 H   0  0  0  0  0  0  0  0  0  0  0  0
    0.9111    1.4465    1.1560 H   0  0  0  0  0  0  0  0  0  0  0  0
   -0.4296    1.6527   -1.0561 H   0  0  0  0  0  0  0  0  0  0  0  0
   -0.2696   -0.0825   -1.2428 H   0  0  0  0  0  0  0  0  0  0  0  0
    2.0997    1.8438   -1.0704 H   0  0  0  0  0  0  0  0  0  0  0  0
    2.1899    0.1023   -1.2921 H   0  0  0  0  0  0  0  0  0  0  0  0
   -1.0329    0.2044    2.6578 N   0  0  0  0  0  0  0  0  0  0  0  0
   -2.2172    0.1210    3.4807 C   0  0  2  0  0  0  0  0  0  0  0  0
   -1.7752    0.0707    4.9373 C   0  0  0  0  0  0  0  0  0  0  0  0
   -0.6552   -0.2966    5.2860 O   0  0  0  0  0  0  0  0  0  0  0  0
   -3.0541   -1.0977    3.1242 C   0  0  0  0  0  0  0  0  0  0  0  0
   -0.1524   -0.0957    3.0656 H   0  0  0  0  0  0  0  0  0  0  0  0
   -2.7904    1.0377    3.3038 H   0  0  0  0  0  0  0  0  0  0  0  0
   -2.4965   -2.0258    3.2949 H   0  0  0  0  0  0  0  0  0  0  0  0
   -3.9656   -1.1438    3.7292 H   0  0  0  0  0  0  0  0  0  0  0  0
   -3.3461   -1.0747    2.0688 H   0  0  0  0  0  0  0  0  0  0  0  0
   -2.7927    0.4431    5.8046 N   0  0  0  0  0  0  0  0  0  0  0  0
   -2.6254    0.4650    7.2390 C   0  0  0  0  0  0  0  0  0  0  0  0
   -3.6837    0.7512    5.4266 H   0  0  0  0  0  0  0  0  0  0  0  0
   -2.9426   -0.5002    7.6605 H   0  0  0  0  0  0  0  0  0  0  0  0
   -1.5670    0.6409    7.4819 H   0  0  0  0  0  0  0  0  0  0  0  0
   -3.2388    1.2714    7.6673 H   0  0  0  0  0  0  0  0  0  0  0  0
  1  3  1  0  0  0  0
  1  7  1  0  0  0  0
  1  2  2  0  0  0  0
 33 34  1  0  0  0  0
 34 42  1  0  0  0  0
 34 35  2  0  0  0  0
  8  9  1  0  0  0  0
  9 17  1  0  0  0  0
  9 10  2  0  0  0  0
 18 19  1  0  0  0  0
 19 32  1  0  0  0  0
 19 20  2  0  0  0  0
 22 23  1  0  0  0  0
 23 24  1  0  0  0  0
 23 25  2  0  0  0  0
 33 36  1  0  0  0  0
  8 11  1  0  0  0  0
 42 43  1  0  0  0  0
 21 22  1  0  0  0  0
 18 21  1  0  0  0  0
 32 33  1  0  0  0  0
  7  8  1  0  0  0  0
 17 18  1  0  0  0  0
  3  4  1  0  0  0  0
  3  5  1  0  0  0  0
  3  6  1  0  0  0  0
 36 39  1  0  0  0  0
 36 40  1  0  0  0  0
 36 41  1  0  0  0  0
 11 14  1  0  0  0  0
 11 15  1  0  0  0  0
 11 16  1  0  0  0  0
 43 45  1  0  0  0  0
 43 46  1  0  0  0  0
 43 47  1  0  0  0  0
 22 30  1  0  0  0  0
 22 31  1  0  0  0  0
 21 28  1  0  0  0  0
 21 29  1  0  0  0  0
 33 38  1  0  0  0  0
  8 13  1  0  0  0  0
 18 27  1  0  0  0  0
 42 44  1  0  0  0  0
  7 12  1  0  0  0  0
 32 37  1  0  0  0  0
 17 26  1  0  0  0  0
M  CHG  1  24  -1
M  END
$$$$

  -OEChem-05262214473D

 47 46  0     1  0  0  0  0  0999 V2000
    0.5093   -4.7265    3.0306 C   0  0  0  0  0  0  0  0  0  0  0  0
    1.2735   -4.4402    3.9448 O   0  0  0  0  0  0  0  0  0  0  0  0
   -0.4465   -5.8608    3.1982 C   0  0  0  0  0  0  0  0  0  0  0  0
   -0.0219   -6.8213    2.8645 H   0  0  0  0  0  0  0  0  0  0  0  0
   -0.7314   -6.0185    4.2509 H   0  0  0  0  0  0  0  0  0  0  0  0
   -1.3983   -5.7596    2.6527 H   0  0  0  0  0  0  0  0  0  0  0  0
    0.4252   -4.0886    1.8040 N   0  0  0  0  0  0  0  0  0  0  0  0
    1.2532   -2.9707    1.4349 C   0  0  2  0  0  0  0  0  0  0  0  0
    0.3395   -1.8293    1.0083 C   0  0  0  0  0  0  0  0  0  0  0  0
   -0.8136   -2.0027    0.6194 O   0  0  0  0  0  0  0  0  0  0  0  0
    2.2176   -3.3411    0.3189 C   0  0  0  0  0  0  0  0  0  0  0  0
   -0.2574   -4.4279    1.1287 H   0  0  0  0  0  0  0  0  0  0  0  0
    1.8087   -2.6785    2.3327 H   0  0  0  0  0  0  0  0  0  0  0  0
    1.6793   -3.6366   -0.5890 H   0  0  0  0  0  0  0  0  0  0  0  0
    2.8662   -2.4980    0.0589 H   0  0  0  0  0  0  0  0  0  0  0  0
    2.8538   -4.1816    0.6166 H   0  0  0  0  0  0  0  0  0  0  0  0
    0.9758   -0.5952    1.0708 N   0  0  0  0  0  0  0  0  0  0  0  0
    0.3258    0.6374    0.7059 C   0  0  2  0  0  0  0  0  0  0  0  0
   -1.0629    0.6276    1.3363 C   0  0  0  0  0  0  0  0  0  0  0  0
   -2.0970    0.7341    0.6802 O   0  0  0  0  0  0  0  0  0  0  0  0
    0.2204    0.8024   -0.8149 C   0  0  0  0  0  0  0  0  0  0  0  0
    1.5727    0.9850   -1.5029 C   0  0  0  0  0  0  0  0  0  0  0  0
    1.5414    1.1319   -3.0277 C   0  0  0  0  0  0  0  0  0  0  0  0
    0.4027    0.9442   -3.5451 O   0  5  0  0  0  0  0  0  0  0  0  0
    2.6333    1.4333   -3.5836 O   0  0  0  0  0  0  0  0  0  0  0  0
    1.9288   -0.5463    1.4242 H   0  0  0  0  0  0  0  0  0  0  0  0
    0.9111    1.4465    1.1560 H   0  0  0  0  0  0  0  0  0  0  0  0
   -0.4296    1.6527   -1.0561 H   0  0  0  0  0  0  0  0  0  0  0  0
   -0.2696   -0.0825   -1.2428 H   0  0  0  0  0  0  0  0  0  0  0  0
    2.0997    1.8438   -1.0704 H   0  0  0  0  0  0  0  0  0  0  0  0
    2.1899    0.1023   -1.2921 H   0  0  0  0  0  0  0  0  0  0  0  0
   -1.0070    0.5333    2.7199 N   0  0  0  0  0  0  0  0  0  0  0  0
   -2.1875    0.5198    3.5524 C   0  0  2  0  0  0  0  0  0  0  0  0
   -1.7637    0.8617    4.9748 C   0  0  0  0  0  0  0  0  0  0  0  0
   -0.6160    0.7091    5.3878 O   0  0  0  0  0  0  0  0  0  0  0  0
   -2.8842   -0.8311    3.5027 C   0  0  0  0  0  0  0  0  0  0  0  0
   -0.1055    0.4339    3.1771 H   0  0  0  0  0  0  0  0  0  0  0  0
   -2.8526    1.3021    3.1709 H   0  0  0  0  0  0  0  0  0  0  0  0
   -2.2331   -1.6276    3.8812 H   0  0  0  0  0  0  0  0  0  0  0  0
   -3.7942   -0.8308    4.1117 H   0  0  0  0  0  0  0  0  0  0  0  0
   -3.1617   -1.0889    2.4749 H   0  0  0  0  0  0  0  0  0  0  0  0
   -2.8276    1.3166    5.7412 N   0  0  0  0  0  0  0  0  0  0  0  0
   -2.6844    1.6937    7.1280 C   0  0  0  0  0  0  0  0  0  0  0  0
   -3.7409    1.4297    5.3112 H   0  0  0  0  0  0  0  0  0  0  0  0
   -2.9028    0.8266    7.7687 H   0  0  0  0  0  0  0  0  0  0  0  0
   -1.6545    2.0342    7.3108 H   0  0  0  0  0  0  0  0  0  0  0  0
   -3.3866    2.5077    7.3610 H   0  0  0  0  0  0  0  0  0  0  0  0
  1  3  1  0  0  0  0
  1  7  1  0  0  0  0
  1  2  2  0  0  0  0
 33 34  1  0  0  0  0
 34 42  1  0  0  0  0
 34 35  2  0  0  0  0
  8  9  1  0  0  0  0
  9 17  1  0  0  0  0
  9 10  2  0  0  0  0
 18 19  1  0  0  0  0
 19 32  1  0  0  0  0
 19 20  2  0  0  0  0
 22 23  1  0  0  0  0
 23 24  1  0  0  0  0
 23 25  2  0  0  0  0
 33 36  1  0  0  0  0
  8 11  1  0  0  0  0
 42 43  1  0  0  0  0
 21 22  1  0  0  0  0
 18 21  1  0  0  0  0
 32 33  1  0  0  0  0
  7  8  1  0  0  0  0
 17 18  1  0  0  0  0
  3  4  1  0  0  0  0
  3  5  1  0  0  0  0
  3  6  1  0  0  0  0
 36 39  1  0  0  0  0
 36 40  1  0  0  0  0
 36 41  1  0  0  0  0
 11 14  1  0  0  0  0
 11 15  1  0  0  0  0
 11 16  1  0  0  0  0
 43 45  1  0  0  0  0
 43 46  1  0  0  0  0
 43 47  1  0  0  0  0
 22 30  1  0  0  0  0
 22 31  1  0  0  0  0
 21 28  1  0  0  0  0
 21 29  1  0  0  0  0
 33 38  1  0  0  0  0
  8 13  1  0  0  0  0
 18 27  1  0  0  0  0
 42 44  1  0  0  0  0
  7 12  1  0  0  0  0
 32 37  1  0  0  0  0
 17 26  1  0  0  0  0
M  CHG  1  24  -1
M  END
$$$$

  -OEChem-05262214473D

 47 46  0     1  0  0  0  0  0999 V2000
    0.5093   -4.7265    3.0306 C   0  0  0  0  0  0  0  0  0  0  0  0
    1.2735   -4.4402    3.9448 O   0  0  0  0  0  0  0  0  0  0  0  0
   -0.4465   -5.8608    3.1982 C   0  0  0  0  0  0  0  0  0  0  0  0
   -0.0219   -6.8213    2.8645 H   0  0  0  0  0  0  0  0  0  0  0  0
   -0.7314   -6.0185    4.2509 H   0  0  0  0  0  0  0  0  0  0  0  0
   -1.3983   -5.7596    2.6527 H   0  0  0  0  0  0  0  0  0  0  0  0
    0.4252   -4.0886    1.8040 N   0  0  0  0  0  0  0  0  0  0  0  0
    1.2532   -2.9707    1.4349 C   0  0  2  0  0  0  0  0  0  0  0  0
    0.3395   -1.8293    1.0083 C   0  0  0  0  0  0  0  0  0  0  0  0
   -0.8136   -2.0027    0.6194 O   0  0  0  0  0  0  0  0  0  0  0  0
    2.2176   -3.3411    0.3189 C   0  0  0  0  0  0  0  0  0  0  0  0
   -0.2574   -4.4279    1.1287 H   0  0  0  0  0  0  0  0  0  0  0  0
    1.8087   -2.6785    2.3327 H   0  0  0  0  0  0  0  0  0  0  0  0
    1.6793   -3.6366   -0.5890 H   0  0  0  0  0  0  0  0  0  0  0  0
    2.8662   -2.4980    0.0589 H   0  0  0  0  0  0  0  0  0  0  0  0
    2.8538   -4.1816    0.6166 H   0  0  0  0  0  0  0  0  0  0  0  0
    0.9758   -0.5952    1.0708 N   0  0  0  0  0  0  0  0  0  0  0  0
    0.3258    0.6374    0.7059 C   0  0  2  0  0  0  0  0  0  0  0  0
   -1.0629    0.6276    1.3363 C   0  0  0  0  0  0  0  0  0  0  0  0
   -2.0929    0.4650    0.6851 O   0  0  0  0  0  0  0  0  0  0  0  0
    0.2204    0.8024   -0.8149 C   0  0  0  0  0  0  0  0  0  0  0  0
    1.5727    0.9850   -1.5029 C   0  0  0  0  0  0  0  0  0  0  0  0
    1.5414    1.1319   -3.0277 C   0  0  0  0  0  0  0  0  0  0  0  0
    0.4027    0.9442   -3.5451 O   0  5  0  0  0  0  0  0  0  0  0  0
    2.6333    1.4333   -3.5836 O   0  0  0  0  0  0  0  0  0  0  0  0
    1.9288   -0.5463    1.4242 H   0  0  0  0  0  0  0  0  0  0  0  0
    0.9111    1.4465    1.1560 H   0  0  0  0  0  0  0  0  0  0  0  0
   -0.4296    1.6527   -1.0561 H   0  0  0  0  0  0  0  0  0  0  0  0
   -0.2696   -0.0825   -1.2428 H   0  0  0  0  0  0  0  0  0  0  0  0
    2.0997    1.8438   -1.0704 H   0  0  0  0  0  0  0  0  0  0  0  0
    2.1899    0.1023   -1.2921 H   0  0  0  0  0  0  0  0  0  0  0  0
   -1.0173    0.8684    2.7024 N   0  0  0  0  0  0  0  0  0  0  0  0
   -2.2015    0.9250    3.5278 C   0  0  2  0  0  0  0  0  0  0  0  0
   -1.8373    1.6357    4.8246 C   0  0  0  0  0  0  0  0  0  0  0  0
   -0.6860    1.7086    5.2491 O   0  0  0  0  0  0  0  0  0  0  0  0
   -2.7492   -0.4662    3.8058 C   0  0  0  0  0  0  0  0  0  0  0  0
   -0.1170    0.9768    3.1600 H   0  0  0  0  0  0  0  0  0  0  0  0
   -2.9407    1.5195    2.9800 H   0  0  0  0  0  0  0  0  0  0  0  0
   -2.0224   -1.0766    4.3540 H   0  0  0  0  0  0  0  0  0  0  0  0
   -3.6628   -0.4200    4.4076 H   0  0  0  0  0  0  0  0  0  0  0  0
   -2.9826   -0.9871    2.8709 H   0  0  0  0  0  0  0  0  0  0  0  0
   -2.9547    2.1417    5.4740 N   0  0  0  0  0  0  0  0  0  0  0  0
   -2.8726    2.8480    6.7312 C   0  0  0  0  0  0  0  0  0  0  0  0
   -3.8685    2.0518    5.0397 H   0  0  0  0  0  0  0  0  0  0  0  0
   -3.0065    2.1379    7.5606 H   0  0  0  0  0  0  0  0  0  0  0  0
   -1.8878    3.3304    6.8170 H   0  0  0  0  0  0  0  0  0  0  0  0
   -3.6610    3.6139    6.7735 H   0  0  0  0  0  0  0  0  0  0  0  0
  1  3  1  0  0  0  0
  1  7  1  0  0  0  0
  1  2  2  0  0  0  0
 33 34  1  0  0  0  0
 34 42  1  0  0  0  0
 34 35  2  0  0  0  0
  8  9  1  0  0  0  0
  9 17  1  0  0  0  0
  9 10  2  0  0  0  0
 18 19  1  0  0  0  0
 19 32  1  0  0  0  0
 19 20  2  0  0  0  0
 22 23  1  0  0  0  0
 23 24  1  0  0  0  0
 23 25  2  0  0  0  0
 33 36  1  0  0  0  0
  8 11  1  0  0  0  0
 42 43  1  0  0  0  0
 21 22  1  0  0  0  0
 18 21  1  0  0  0  0
 32 33  1  0  0  0  0
  7  8  1  0  0  0  0
 17 18  1  0  0  0  0
  3  4  1  0  0  0  0
  3  5  1  0  0  0  0
  3  6  1  0  0  0  0
 36 39  1  0  0  0  0
 36 40  1  0  0  0  0
 36 41  1  0  0  0  0
 11 14  1  0  0  0  0
 11 15  1  0  0  0  0
 11 16  1  0  0  0  0
 43 45  1  0  0  0  0
 43 46  1  0  0  0  0
 43 47  1  0  0  0  0
 22 30  1  0  0  0  0
 22 31  1  0  0  0  0
 21 28  1  0  0  0  0
 21 29  1  0  0  0  0
 33 38  1  0  0  0  0
  8 13  1  0  0  0  0
 18 27  1  0  0  0  0
 42 44  1  0  0  0  0
  7 12  1  0  0  0  0
 32 37  1  0  0  0  0
 17 26  1  0  0  0  0
M  CHG  1  24  -1
M  END
$$$$

  -OEChem-05262214473D

 47 46  0     1  0  0  0  0  0999 V2000
    0.5093   -4.7265    3.0306 C   0  0  0  0  0  0  0  0  0  0  0  0
    1.2735   -4.4402    3.9448 O   0  0  0  0  0  0  0  0  0  0  0  0
   -0.4465   -5.8608    3.1982 C   0  0  0  0  0  0  0  0  0  0  0  0
   -0.0219   -6.8213    2.8645 H   0  0  0  0  0  0  0  0  0  0  0  0
   -0.7314   -6.0185    4.2509 H   0  0  0  0  0  0  0  0  0  0  0  0
   -1.3983   -5.7596    2.6527 H   0  0  0  0  0  0  0  0  0  0  0  0
    0.4252   -4.0886    1.8040 N   0  0  0  0  0  0  0  0  0  0  0  0
    1.2532   -2.9707    1.4349 C   0  0  2  0  0  0  0  0  0  0  0  0
    0.3395   -1.8293    1.0083 C   0  0  0  0  0  0  0  0  0  0  0  0
   -0.8136   -2.0027    0.6194 O   0  0  0  0  0  0  0  0  0  0  0  0
    2.2176   -3.3411    0.3189 C   0  0  0  0  0  0  0  0  0  0  0  0
   -0.2574   -4.4279    1.1287 H   0  0  0  0  0  0  0  0  0  0  0  0
    1.8087   -2.6785    2.3327 H   0  0  0  0  0  0  0  0  0  0  0  0
    1.6793   -3.6366   -0.5890 H   0  0  0  0  0  0  0  0  0  0  0  0
    2.8662   -2.4980    0.0589 H   0  0  0  0  0  0  0  0  0  0  0  0
    2.8538   -4.1816    0.6166 H   0  0  0  0  0  0  0  0  0  0  0  0
    0.9758   -0.5952    1.0708 N   0  0  0  0  0  0  0  0  0  0  0  0
    0.3258    0.6374    0.7059 C   0  0  2  0  0  0  0  0  0  0  0  0
   -1.0629    0.6276    1.3363 C   0  0  0  0  0  0  0  0  0  0  0  0
   -2.0601    0.2068    0.7534 O   0  0  0  0  0  0  0  0  0  0  0  0
    0.2204    0.8024   -0.8149 C   0  0  0  0  0  0  0  0  0  0  0  0
    1.5727    0.9850   -1.5029 C   0  0  0  0  0  0  0  0  0  0  0  0
    1.5414    1.1319   -3.0277 C   0  0  0  0  0  0  0  0  0  0  0  0
    0.4027    0.9442   -3.5451 O   0  5  0  0  0  0  0  0  0  0  0  0
    2.6333    1.4333   -3.5836 O   0  0  0  0  0  0  0  0  0  0  0  0
    1.9288   -0.5463    1.4242 H   0  0  0  0  0  0  0  0  0  0  0  0
    0.9111    1.4465    1.1560 H   0  0  0  0  0  0  0  0  0  0  0  0
   -0.4296    1.6527   -1.0561 H   0  0  0  0  0  0  0  0  0  0  0  0
   -0.2696   -0.0825   -1.2428 H   0  0  0  0  0  0  0  0  0  0  0  0
    2.0997    1.8438   -1.0704 H   0  0  0  0  0  0  0  0  0  0  0  0
    2.1899    0.1023   -1.2921 H   0  0  0  0  0  0  0  0  0  0  0  0
   -1.0631    1.1870    2.6065 N   0  0  0  0  0  0  0  0  0  0  0  0
   -2.2583    1.3091    3.4085 C   0  0  2  0  0  0  0  0  0  0  0  0
   -1.9910    2.3402    4.4970 C   0  0  0  0  0  0  0  0  0  0  0  0
   -0.8603    2.6340    4.8795 O   0  0  0  0  0  0  0  0  0  0  0  0
   -2.6583   -0.0279    4.0127 C   0  0  0  0  0  0  0  0  0  0  0  0
   -0.1862    1.4959    3.0156 H   0  0  0  0  0  0  0  0  0  0  0  0
   -3.0488    1.6751    2.7443 H   0  0  0  0  0  0  0  0  0  0  0  0
   -1.8785   -0.4105    4.6813 H   0  0  0  0  0  0  0  0  0  0  0  0
   -3.5802    0.0606    4.5969 H   0  0  0  0  0  0  0  0  0  0  0  0
   -2.8213   -0.7763    3.2297 H   0  0  0  0  0  0  0  0  0  0  0  0
   -3.1652    2.8621    5.0212 N   0  0  0  0  0  0  0  0  0  0  0  0
   -3.1773    3.8493    6.0755 C   0  0  0  0  0  0  0  0  0  0  0  0
   -4.0578    2.5750    4.6306 H   0  0  0  0  0  0  0  0  0  0  0  0
   -3.2466    3.3445    7.0504 H   0  0  0  0  0  0  0  0  0  0  0  0
   -2.2509    4.4410    6.0341 H   0  0  0  0  0  0  0  0  0  0  0  0
   -4.0435    4.5145    5.9448 H   0  0  0  0  0  0  0  0  0  0  0  0
  1  3  1  0  0  0  0
  1  7  1  0  0  0  0
  1  2  2  0  0  0  0
 33 34  1  0  0  0  0
 34 42  1  0  0  0  0
 34 35  2  0  0  0  0
  8  9  1  0  0  0  0
  9 17  1  0  0  0  0
  9 10  2  0  0  0  0
 18 19  1  0  0  0  0
 19 32  1  0  0  0  0
 19 20  2  0  0  0  0
 22 23  1  0  0  0  0
 23 24  1  0  0  0  0
 23 25  2  0  0  0  0
 33 36  1  0  0  0  0
  8 11  1  0  0  0  0
 42 43  1  0  0  0  0
 21 22  1  0  0  0  0
 18 21  1  0  0  0  0
 32 33  1  0  0  0  0
  7  8  1  0  0  0  0
 17 18  1  0  0  0  0
  3  4  1  0  0  0  0
  3  5  1  0  0  0  0
  3  6  1  0  0  0  0
 36 39  1  0  0  0  0
 36 40  1  0  0  0  0
 36 41  1  0  0  0  0
 11 14  1  0  0  0  0
 11 15  1  0  0  0  0
 11 16  1  0  0  0  0
 43 45  1  0  0  0  0
 43 46  1  0  0  0  0
 43 47  1  0  0  0  0
 22 30  1  0  0  0  0
 22 31  1  0  0  0  0
 21 28  1  0  0  0  0
 21 29  1  0  0  0  0
 33 38  1  0  0  0  0
  8 13  1  0  0  0  0
 18 27  1  0  0  0  0
 42 44  1  0  0  0  0
  7 12  1  0  0  0  0
 32 37  1  0  0  0  0
 17 26  1  0  0  0  0
M  CHG  1  24  -1
M  END
$$$$

  -OEChem-05262214473D

 47 46  0     1  0  0  0  0  0999 V2000
    0.5093   -4.7265    3.0306 C   0  0  0  0  0  0  0  0  0  0  0  0
    1.2735   -4.4402    3.9448 O   0  0  0  0  0  0  0  0  0  0  0  0
   -0.4465   -5.8608    3.1982 C   0  0  0  0  0  0  0  0  0  0  0  0
   -0.0219   -6.8213    2.8645 H   0  0  0  0  0  0  0  0  0  0  0  0
   -0.7314   -6.0185    4.2509 H   0  0  0  0  0  0  0  0  0  0  0  0
   -1.3983   -5.7596    2.6527 H   0  0  0  0  0  0  0  0  0  0  0  0
    0.4252   -4.0886    1.8040 N   0  0  0  0  0  0  0  0  0  0  0  0
    1.2532   -2.9707    1.4349 C   0  0  2  0  0  0  0  0  0  0  0  0
    0.3395   -1.8293    1.0083 C   0  0  0  0  0  0  0  0  0  0  0  0
   -0.8136   -2.0027    0.6194 O   0  0  0  0  0  0  0  0  0  0  0  0
    2.2176   -3.3411    0.3189 C   0  0  0  0  0  0  0  0  0  0  0  0
   -0.2574   -4.4279    1.1287 H   0  0  0  0  0  0  0  0  0  0  0  0
    1.8087   -2.6785    2.3327 H   0  0  0  0  0  0  0  0  0  0  0  0
    1.6793   -3.6366   -0.5890 H   0  0  0  0  0  0  0  0  0  0  0  0
    2.8662   -2.4980    0.0589 H   0  0  0  0  0  0  0  0  0  0  0  0
    2.8538   -4.1816    0.6166 H   0  0  0  0  0  0  0  0  0  0  0  0
    0.9758   -0.5952    1.0708 N   0  0  0  0  0  0  0  0  0  0  0  0
    0.3258    0.6374    0.7059 C   0  0  2  0  0  0  0  0  0  0  0  0
   -1.0629    0.6276    1.3363 C   0  0  0  0  0  0  0  0  0  0  0  0
   -2.0009   -0.0231    0.8802 O   0  0  0  0  0  0  0  0  0  0  0  0
    0.2204    0.8024   -0.8149 C   0  0  0  0  0  0  0  0  0  0  0  0
    1.5727    0.9850   -1.5029 C   0  0  0  0  0  0  0  0  0  0  0  0
    1.5414    1.1319   -3.0277 C   0  0  0  0  0  0  0  0  0  0  0  0
    0.4027    0.9442   -3.5451 O   0  5  0  0  0  0  0  0  0  0  0  0
    2.6333    1.4333   -3.5836 O   0  0  0  0  0  0  0  0  0  0  0  0
    1.9288   -0.5463    1.4242 H   0  0  0  0  0  0  0  0  0  0  0  0
    0.9111    1.4465    1.1560 H   0  0  0  0  0  0  0  0  0  0  0  0
   -0.4296    1.6527   -1.0561 H   0  0  0  0  0  0  0  0  0  0  0  0
   -0.2696   -0.0825   -1.2428 H   0  0  0  0  0  0  0  0  0  0  0  0
    2.0997    1.8438   -1.0704 H   0  0  0  0  0  0  0  0  0  0  0  0
    2.1899    0.1023   -1.2921 H   0  0  0  0  0  0  0  0  0  0  0  0
   -1.1412    1.4671    2.4388 N   0  0  0  0  0  0  0  0  0  0  0  0
   -2.3541    1.6459    3.2026 C   0  0  2  0  0  0  0  0  0  0  0  0
   -2.2142    2.9270    4.0144 C   0  0  0  0  0  0  0  0  0  0  0  0
   -1.1270    3.4221    4.3041 O   0  0  0  0  0  0  0  0  0  0  0  0
   -2.6178    0.4539    4.1095 C   0  0  0  0  0  0  0  0  0  0  0  0
   -0.3084    1.9559    2.7536 H   0  0  0  0  0  0  0  0  0  0  0  0
   -3.1695    1.7582    2.4797 H   0  0  0  0  0  0  0  0  0  0  0  0
   -1.8113    0.3255    4.8406 H   0  0  0  0  0  0  0  0  0  0  0  0
   -3.5522    0.5782    4.6665 H   0  0  0  0  0  0  0  0  0  0  0  0
   -2.6885   -0.4709    3.5268 H   0  0  0  0  0  0  0  0  0  0  0  0
   -3.4449    3.4288    4.4138 N   0  0  0  0  0  0  0  0  0  0  0  0
   -3.5776    4.6293    5.2057 C   0  0  0  0  0  0  0  0  0  0  0  0
   -4.2960    2.9637    4.1119 H   0  0  0  0  0  0  0  0  0  0  0  0
   -3.6067    4.3640    6.2728 H   0  0  0  0  0  0  0  0  0  0  0  0
   -2.7192    5.2905    5.0156 H   0  0  0  0  0  0  0  0  0  0  0  0
   -4.5079    5.1483    4.9315 H   0  0  0  0  0  0  0  0  0  0  0  0
  1  3  1  0  0  0  0
  1  7  1  0  0  0  0
  1  2  2  0  0  0  0
 33 34  1  0  0  0  0
 34 42  1  0  0  0  0
 34 35  2  0  0  0  0
  8  9  1  0  0  0  0
  9 17  1  0  0  0  0
  9 10  2  0  0  0  0
 18 19  1  0  0  0  0
 19 32  1  0  0  0  0
 19 20  2  0  0  0  0
 22 23  1  0  0  0  0
 23 24  1  0  0  0  0
 23 25  2  0  0  0  0
 33 36  1  0  0  0  0
  8 11  1  0  0  0  0
 42 43  1  0  0  0  0
 21 22  1  0  0  0  0
 18 21  1  0  0  0  0
 32 33  1  0  0  0  0
  7  8  1  0  0  0  0
 17 18  1  0  0  0  0
  3  4  1  0  0  0  0
  3  5  1  0  0  0  0
  3  6  1  0  0  0  0
 36 39  1  0  0  0  0
 36 40  1  0  0  0  0
 36 41  1  0  0  0  0
 11 14  1  0  0  0  0
 11 15  1  0  0  0  0
 11 16  1  0  0  0  0
 43 45  1  0  0  0  0
 43 46  1  0  0  0  0
 43 47  1  0  0  0  0
 22 30  1  0  0  0  0
 22 31  1  0  0  0  0
 21 28  1  0  0  0  0
 21 29  1  0  0  0  0
 33 38  1  0  0  0  0
  8 13  1  0  0  0  0
 18 27  1  0  0  0  0
 42 44  1  0  0  0  0
  7 12  1  0  0  0  0
 32 37  1  0  0  0  0
 17 26  1  0  0  0  0
M  CHG  1  24  -1
M  END
$$$$

  -OEChem-05262214473D

 47 46  0     1  0  0  0  0  0999 V2000
    0.5093   -4.7265    3.0306 C   0  0  0  0  0  0  0  0  0  0  0  0
    1.2735   -4.4402    3.9448 O   0  0  0  0  0  0  0  0  0  0  0  0
   -0.4465   -5.8608    3.1982 C   0  0  0  0  0  0  0  0  0  0  0  0
   -0.0219   -6.8213    2.8645 H   0  0  0  0  0  0  0  0  0  0  0  0
   -0.7314   -6.0185    4.2509 H   0  0  0  0  0  0  0  0  0  0  0  0
   -1.3983   -5.7596    2.6527 H   0  0  0  0  0  0  0  0  0  0  0  0
    0.4252   -4.0886    1.8040 N   0  0  0  0  0  0  0  0  0  0  0  0
    1.2532   -2.9707    1.4349 C   0  0  2  0  0  0  0  0  0  0  0  0
    0.3395   -1.8293    1.0083 C   0  0  0  0  0  0  0  0  0  0  0  0
   -0.8136   -2.0027    0.6194 O   0  0  0  0  0  0  0  0  0  0  0  0
    2.2176   -3.3411    0.3189 C   0  0  0  0  0  0  0  0  0  0  0  0
   -0.2574   -4.4279    1.1287 H   0  0  0  0  0  0  0  0  0  0  0  0
    1.8087   -2.6785    2.3327 H   0  0  0  0  0  0  0  0  0  0  0  0
    1.6793   -3.6366   -0.5890 H   0  0  0  0  0  0  0  0  0  0  0  0
    2.8662   -2.4980    0.0589 H   0  0  0  0  0  0  0  0  0  0  0  0
    2.8538   -4.1816    0.6166 H   0  0  0  0  0  0  0  0  0  0  0  0
    0.9758   -0.5952    1.0708 N   0  0  0  0  0  0  0  0  0  0  0  0
    0.3258    0.6374    0.7059 C   0  0  2  0  0  0  0  0  0  0  0  0
   -1.0629    0.6276    1.3363 C   0  0  0  0  0  0  0  0  0  0  0  0
   -1.9193   -0.2089    1.0570 O   0  0  0  0  0  0  0  0  0  0  0  0
    0.2204    0.8024   -0.8149 C   0  0  0  0  0  0  0  0  0  0  0  0
    1.5727    0.9850   -1.5029 C   0  0  0  0  0  0  0  0  0  0  0  0
    1.5414    1.1319   -3.0277 C   0  0  0  0  0  0  0  0  0  0  0  0
    0.4027    0.9442   -3.5451 O   0  5  0  0  0  0  0  0  0  0  0  0
    2.6333    1.4333   -3.5836 O   0  0  0  0  0  0  0  0  0  0  0  0
    1.9288   -0.5463    1.4242 H   0  0  0  0  0  0  0  0  0  0  0  0
    0.9111    1.4465    1.1560 H   0  0  0  0  0  0  0  0  0  0  0  0
   -0.4296    1.6527   -1.0561 H   0  0  0  0  0  0  0  0  0  0  0  0
   -0.2696   -0.0825   -1.2428 H   0  0  0  0  0  0  0  0  0  0  0  0
    2.0997    1.8438   -1.0704 H   0  0  0  0  0  0  0  0  0  0  0  0
    2.1899    0.1023   -1.2921 H   0  0  0  0  0  0  0  0  0  0  0  0
   -1.2464    1.6898    2.2106 N   0  0  0  0  0  0  0  0  0  0  0  0
   -2.4824    1.9125    2.9243 C   0  0  2  0  0  0  0  0  0  0  0  0
   -2.4918    3.3561    3.4095 C   0  0  0  0  0  0  0  0  0  0  0  0
   -1.4680    4.0191    3.5622 O   0  0  0  0  0  0  0  0  0  0  0  0
   -2.6303    0.9465    4.0894 C   0  0  0  0  0  0  0  0  0  0  0  0
   -0.4751    2.3254    2.3920 H   0  0  0  0  0  0  0  0  0  0  0  0
   -3.2945    1.7633    2.2044 H   0  0  0  0  0  0  0  0  0  0  0  0
   -1.8254    1.0811    4.8212 H   0  0  0  0  0  0  0  0  0  0  0  0
   -3.5807    1.0976    4.6119 H   0  0  0  0  0  0  0  0  0  0  0  0
   -2.5935   -0.0917    3.7421 H   0  0  0  0  0  0  0  0  0  0  0  0
   -3.7747    3.8030    3.6931 N   0  0  0  0  0  0  0  0  0  0  0  0
   -4.0463    5.1350    4.1810 C   0  0  0  0  0  0  0  0  0  0  0  0
   -4.5668    3.1915    3.5188 H   0  0  0  0  0  0  0  0  0  0  0  0
   -4.0623    5.1270    5.2809 H   0  0  0  0  0  0  0  0  0  0  0  0
   -3.2607    5.8209    3.8309 H   0  0  0  0  0  0  0  0  0  0  0  0
   -5.0226    5.4720    3.8026 H   0  0  0  0  0  0  0  0  0  0  0  0
  1  3  1  0  0  0  0
  1  7  1  0  0  0  0
  1  2  2  0  0  0  0
 33 34  1  0  0  0  0
 34 42  1  0  0  0  0
 34 35  2  0  0  0  0
  8  9  1  0  0  0  0
  9 17  1  0  0  0  0
  9 10  2  0  0  0  0
 18 19  1  0  0  0  0
 19 32  1  0  0  0  0
 19 20  2  0  0  0  0
 22 23  1  0  0  0  0
 23 24  1  0  0  0  0
 23 25  2  0  0  0  0
 33 36  1  0  0  0  0
  8 11  1  0  0  0  0
 42 43  1  0  0  0  0
 21 22  1  0  0  0  0
 18 21  1  0  0  0  0
 32 33  1  0  0  0  0
  7  8  1  0  0  0  0
 17 18  1  0  0  0  0
  3  4  1  0  0  0  0
  3  5  1  0  0  0  0
  3  6  1  0  0  0  0
 36 39  1  0  0  0  0
 36 40  1  0  0  0  0
 36 41  1  0  0  0  0
 11 14  1  0  0  0  0
 11 15  1  0  0  0  0
 11 16  1  0  0  0  0
 43 45  1  0  0  0  0
 43 46  1  0  0  0  0
 43 47  1  0  0  0  0
 22 30  1  0  0  0  0
 22 31  1  0  0  0  0
 21 28  1  0  0  0  0
 21 29  1  0  0  0  0
 33 38  1  0  0  0  0
  8 13  1  0  0  0  0
 18 27  1  0  0  0  0
 42 44  1  0  0  0  0
  7 12  1  0  0  0  0
 32 37  1  0  0  0  0
 17 26  1  0  0  0  0
M  CHG  1  24  -1
M  END
$$$$

  -OEChem-05262214473D

 47 46  0     1  0  0  0  0  0999 V2000
    0.5093   -4.7265    3.0306 C   0  0  0  0  0  0  0  0  0  0  0  0
    1.2735   -4.4402    3.9448 O   0  0  0  0  0  0  0  0  0  0  0  0
   -0.4465   -5.8608    3.1982 C   0  0  0  0  0  0  0  0  0  0  0  0
   -0.0219   -6.8213    2.8645 H   0  0  0  0  0  0  0  0  0  0  0  0
   -0.7314   -6.0185    4.2509 H   0  0  0  0  0  0  0  0  0  0  0  0
   -1.3983   -5.7596    2.6527 H   0  0  0  0  0  0  0  0  0  0  0  0
    0.4252   -4.0886    1.8040 N   0  0  0  0  0  0  0  0  0  0  0  0
    1.2532   -2.9707    1.4349 C   0  0  2  0  0  0  0  0  0  0  0  0
    0.3395   -1.8293    1.0083 C   0  0  0  0  0  0  0  0  0  0  0  0
   -0.8136   -2.0027    0.6194 O   0  0  0  0  0  0  0  0  0  0  0  0
    2.2176   -3.3411    0.3189 C   0  0  0  0  0  0  0  0  0  0  0  0
   -0.2574   -4.4279    1.1287 H   0  0  0  0  0  0  0  0  0  0  0  0
    1.8087   -2.6785    2.3327 H   0  0  0  0  0  0  0  0  0  0  0  0
    1.6793   -3.6366   -0.5890 H   0  0  0  0  0  0  0  0  0  0  0  0
    2.8662   -2.4980    0.0589 H   0  0  0  0  0  0  0  0  0  0  0  0
    2.8538   -4.1816    0.6166 H   0  0  0  0  0  0  0  0  0  0  0  0
    0.9758   -0.5952    1.0708 N   0  0  0  0  0  0  0  0  0  0  0  0
    0.3258    0.6374    0.7059 C   0  0  2  0  0  0  0  0  0  0  0  0
   -1.0629    0.6276    1.3363 C   0  0  0  0  0  0  0  0  0  0  0  0
   -1.8210   -0.3380    1.2716 O   0  0  0  0  0  0  0  0  0  0  0  0
    0.2204    0.8024   -0.8149 C   0  0  0  0  0  0  0  0  0  0  0  0
    1.5727    0.9850   -1.5029 C   0  0  0  0  0  0  0  0  0  0  0  0
    1.5414    1.1319   -3.0277 C   0  0  0  0  0  0  0  0  0  0  0  0
    0.4027    0.9442   -3.5451 O   0  5  0  0  0  0  0  0  0  0  0  0
    2.6333    1.4333   -3.5836 O   0  0  0  0  0  0  0  0  0  0  0  0
    1.9288   -0.5463    1.4242 H   0  0  0  0  0  0  0  0  0  0  0  0
    0.9111    1.4465    1.1560 H   0  0  0  0  0  0  0  0  0  0  0  0
   -0.4296    1.6527   -1.0561 H   0  0  0  0  0  0  0  0  0  0  0  0
   -0.2696   -0.0825   -1.2428 H   0  0  0  0  0  0  0  0  0  0  0  0
    2.0997    1.8438   -1.0704 H   0  0  0  0  0  0  0  0  0  0  0  0
    2.1899    0.1023   -1.2921 H   0  0  0  0  0  0  0  0  0  0  0  0
   -1.3714    1.8400    1.9375 N   0  0  0  0  0  0  0  0  0  0  0  0
   -2.6343    2.0907    2.5923 C   0  0  2  0  0  0  0  0  0  0  0  0
   -2.8048    3.5984    2.7236 C   0  0  0  0  0  0  0  0  0  0  0  0
   -1.8600    4.3845    2.7042 O   0  0  0  0  0  0  0  0  0  0  0  0
   -2.6951    1.4162    3.9540 C   0  0  0  0  0  0  0  0  0  0  0  0
   -0.6751    2.5793    1.9554 H   0  0  0  0  0  0  0  0  0  0  0  0
   -3.4154    1.6899    1.9371 H   0  0  0  0  0  0  0  0  0  0  0  0
   -1.9199    1.8049    4.6243 H   0  0  0  0  0  0  0  0  0  0  0  0
   -3.6636    1.5834    4.4367 H   0  0  0  0  0  0  0  0  0  0  0  0
   -2.5426    0.3356    3.8608 H   0  0  0  0  0  0  0  0  0  0  0  0
   -4.1322    3.9594    2.9081 N   0  0  0  0  0  0  0  0  0  0  0  0
   -4.5514    5.3319    3.0713 C   0  0  0  0  0  0  0  0  0  0  0  0
   -4.8518    3.2428    2.8918 H   0  0  0  0  0  0  0  0  0  0  0  0
   -4.5824    5.5815    4.1422 H   0  0  0  0  0  0  0  0  0  0  0  0
   -3.8386    5.9960    2.5606 H   0  0  0  0  0  0  0  0  0  0  0  0
   -5.5526    5.4636    2.6351 H   0  0  0  0  0  0  0  0  0  0  0  0
  1  3  1  0  0  0  0
  1  7  1  0  0  0  0
  1  2  2  0  0  0  0
 33 34  1  0  0  0  0
 34 42  1  0  0  0  0
 34 35  2  0  0  0  0
  8  9  1  0  0  0  0
  9 17  1  0  0  0  0
  9 10  2  0  0  0  0
 18 19  1  0  0  0  0
 19 32  1  0  0  0  0
 19 20  2  0  0  0  0
 22 23  1  0  0  0  0
 23 24  1  0  0  0  0
 23 25  2  0  0  0  0
 33 36  1  0  0  0  0
  8 11  1  0  0  0  0
 42 43  1  0  0  0  0
 21 22  1  0  0  0  0
 18 21  1  0  0  0  0
 32 33  1  0  0  0  0
  7  8  1  0  0  0  0
 17 18  1  0  0  0  0
  3  4  1  0  0  0  0
  3  5  1  0  0  0  0
  3  6  1  0  0  0  0
 36 39  1  0  0  0  0
 36 40  1  0  0  0  0
 36 41  1  0  0  0  0
 11 14  1  0  0  0  0
 11 15  1  0  0  0  0
 11 16  1  0  0  0  0
 43 45  1  0  0  0  0
 43 46  1  0  0  0  0
 43 47  1  0  0  0  0
 22 30  1  0  0  0  0
 22 31  1  0  0  0  0
 21 28  1  0  0  0  0
 21 29  1  0  0  0  0
 33 38  1  0  0  0  0
  8 13  1  0  0  0  0
 18 27  1  0  0  0  0
 42 44  1  0  0  0  0
  7 12  1  0  0  0  0
 32 37  1  0  0  0  0
 17 26  1  0  0  0  0
M  CHG  1  24  -1
M  END
$$$$

  -OEChem-05262214473D

 47 46  0     1  0  0  0  0  0999 V2000
    0.5093   -4.7265    3.0306 C   0  0  0  0  0  0  0  0  0  0  0  0
    1.2735   -4.4402    3.9448 O   0  0  0  0  0  0  0  0  0  0  0  0
   -0.4465   -5.8608    3.1982 C   0  0  0  0  0  0  0  0  0  0  0  0
   -0.0219   -6.8213    2.8645 H   0  0  0  0  0  0  0  0  0  0  0  0
   -0.7314   -6.0185    4.2509 H   0  0  0  0  0  0  0  0  0  0  0  0
   -1.3983   -5.7596    2.6527 H   0  0  0  0  0  0  0  0  0  0  0  0
    0.4252   -4.0886    1.8040 N   0  0  0  0  0  0  0  0  0  0  0  0
    1.2532   -2.9707    1.4349 C   0  0  2  0  0  0  0  0  0  0  0  0
    0.3395   -1.8293    1.0083 C   0  0  0  0  0  0  0  0  0  0  0  0
   -0.8136   -2.0027    0.6194 O   0  0  0  0  0  0  0  0  0  0  0  0
    2.2176   -3.3411    0.3189 C   0  0  0  0  0  0  0  0  0  0  0  0
   -0.2574   -4.4279    1.1287 H   0  0  0  0  0  0  0  0  0  0  0  0
    1.8087   -2.6785    2.3327 H   0  0  0  0  0  0  0  0  0  0  0  0
    1.6793   -3.6366   -0.5890 H   0  0  0  0  0  0  0  0  0  0  0  0
    2.8662   -2.4980    0.0589 H   0  0  0  0  0  0  0  0  0  0  0  0
    2.8538   -4.1816    0.6166 H   0  0  0  0  0  0  0  0  0  0  0  0
    0.9758   -0.5952    1.0708 N   0  0  0  0  0  0  0  0  0  0  0  0
    0.3258    0.6374    0.7059 C   0  0  2  0  0  0  0  0  0  0  0  0
   -1.0629    0.6276    1.3363 C   0  0  0  0  0  0  0  0  0  0  0  0
   -1.7125   -0.4015    1.5096 O   0  0  0  0  0  0  0  0  0  0  0  0
    0.2204    0.8024   -0.8149 C   0  0  0  0  0  0  0  0  0  0  0  0
    1.5727    0.9850   -1.5029 C   0  0  0  0  0  0  0  0  0  0  0  0
    1.5414    1.1319   -3.0277 C   0  0  0  0  0  0  0  0  0  0  0  0
    0.4027    0.9442   -3.5451 O   0  5  0  0  0  0  0  0  0  0  0  0
    2.6333    1.4333   -3.5836 O   0  0  0  0  0  0  0  0  0  0  0  0
    1.9288   -0.5463    1.4242 H   0  0  0  0  0  0  0  0  0  0  0  0
    0.9111    1.4465    1.1560 H   0  0  0  0  0  0  0  0  0  0  0  0
   -0.4296    1.6527   -1.0561 H   0  0  0  0  0  0  0  0  0  0  0  0
   -0.2696   -0.0825   -1.2428 H   0  0  0  0  0  0  0  0  0  0  0  0
    2.0997    1.8438   -1.0704 H   0  0  0  0  0  0  0  0  0  0  0  0
    2.1899    0.1023   -1.2921 H   0  0  0  0  0  0  0  0  0  0  0  0
   -1.5077    1.9072    1.6381 N   0  0  0  0  0  0  0  0  0  0  0  0
   -2.7996    2.1683    2.2294 C   0  0  2  0  0  0  0  0  0  0  0  0
   -3.1320    3.6373    2.0034 C   0  0  0  0  0  0  0  0  0  0  0  0
   -2.2763    4.4934    1.7887 O   0  0  0  0  0  0  0  0  0  0  0  0
   -2.8077    1.8311    3.7123 C   0  0  0  0  0  0  0  0  0  0  0  0
   -0.8947    2.7002    1.4734 H   0  0  0  0  0  0  0  0  0  0  0  0
   -3.5238    1.5431    1.6959 H   0  0  0  0  0  0  0  0  0  0  0  0
   -2.0882    2.4476    4.2635 H   0  0  0  0  0  0  0  0  0  0  0  0
   -3.7955    2.0025    4.1528 H   0  0  0  0  0  0  0  0  0  0  0  0
   -2.5393    0.7816    3.8748 H   0  0  0  0  0  0  0  0  0  0  0  0
   -4.4928    3.8872    2.1125 N   0  0  0  0  0  0  0  0  0  0  0  0
   -5.0585    5.2064    1.9522 C   0  0  0  0  0  0  0  0  0  0  0  0
   -5.1315    3.1140    2.2737 H   0  0  0  0  0  0  0  0  0  0  0  0
   -5.1315    5.6965    2.9343 H   0  0  0  0  0  0  0  0  0  0  0  0
   -4.4134    5.8040    1.2914 H   0  0  0  0  0  0  0  0  0  0  0  0
   -6.0616    5.1236    1.5084 H   0  0  0  0  0  0  0  0  0  0  0  0
  1  3  1  0  0  0  0
  1  7  1  0  0  0  0
  1  2  2  0  0  0  0
 33 34  1  0  0  0  0
 34 42  1  0  0  0  0
 34 35  2  0  0  0  0
  8  9  1  0  0  0  0
  9 17  1  0  0  0  0
  9 10  2  0  0  0  0
 18 19  1  0  0  0  0
 19 32  1  0  0  0  0
 19 20  2  0  0  0  0
 22 23  1  0  0  0  0
 23 24  1  0  0  0  0
 23 25  2  0  0  0  0
 33 36  1  0  0  0  0
  8 11  1  0  0  0  0
 42 43  1  0  0  0  0
 21 22  1  0  0  0  0
 18 21  1  0  0  0  0
 32 33  1  0  0  0  0
  7  8  1  0  0  0  0
 17 18  1  0  0  0  0
  3  4  1  0  0  0  0
  3  5  1  0  0  0  0
  3  6  1  0  0  0  0
 36 39  1  0  0  0  0
 36 40  1  0  0  0  0
 36 41  1  0  0  0  0
 11 14  1  0  0  0  0
 11 15  1  0  0  0  0
 11 16  1  0  0  0  0
 43 45  1  0  0  0  0
 43 46  1  0  0  0  0
 43 47  1  0  0  0  0
 22 30  1  0  0  0  0
 22 31  1  0  0  0  0
 21 28  1  0  0  0  0
 21 29  1  0  0  0  0
 33 38  1  0  0  0  0
  8 13  1  0  0  0  0
 18 27  1  0  0  0  0
 42 44  1  0  0  0  0
  7 12  1  0  0  0  0
 32 37  1  0  0  0  0
 17 26  1  0  0  0  0
M  CHG  1  24  -1
M  END
$$$$

  -OEChem-05262214473D

 47 46  0     1  0  0  0  0  0999 V2000
    0.5093   -4.7265    3.0306 C   0  0  0  0  0  0  0  0  0  0  0  0
    1.2735   -4.4402    3.9448 O   0  0  0  0  0  0  0  0  0  0  0  0
   -0.4465   -5.8608    3.1982 C   0  0  0  0  0  0  0  0  0  0  0  0
   -0.0219   -6.8213    2.8645 H   0  0  0  0  0  0  0  0  0  0  0  0
   -0.7314   -6.0185    4.2509 H   0  0  0  0  0  0  0  0  0  0  0  0
   -1.3983   -5.7596    2.6527 H   0  0  0  0  0  0  0  0  0  0  0  0
    0.4252   -4.0886    1.8040 N   0  0  0  0  0  0  0  0  0  0  0  0
    1.2532   -2.9707    1.4349 C   0  0  2  0  0  0  0  0  0  0  0  0
    0.3395   -1.8293    1.0083 C   0  0  0  0  0  0  0  0  0  0  0  0
   -0.8136   -2.0027    0.6194 O   0  0  0  0  0  0  0  0  0  0  0  0
    2.2176   -3.3411    0.3189 C   0  0  0  0  0  0  0  0  0  0  0  0
   -0.2574   -4.4279    1.1287 H   0  0  0  0  0  0  0  0  0  0  0  0
    1.8087   -2.6785    2.3327 H   0  0  0  0  0  0  0  0  0  0  0  0
    1.6793   -3.6366   -0.5890 H   0  0  0  0  0  0  0  0  0  0  0  0
    2.8662   -2.4980    0.0589 H   0  0  0  0  0  0  0  0  0  0  0  0
    2.8538   -4.1816    0.6166 H   0  0  0  0  0  0  0  0  0  0  0  0
    0.9758   -0.5952    1.0708 N   0  0  0  0  0  0  0  0  0  0  0  0
    0.3258    0.6374    0.7059 C   0  0  2  0  0  0  0  0  0  0  0  0
   -1.0629    0.6276    1.3363 C   0  0  0  0  0  0  0  0  0  0  0  0
   -1.6014   -0.3953    1.7546 O   0  0  0  0  0  0  0  0  0  0  0  0
    0.2204    0.8024   -0.8149 C   0  0  0  0  0  0  0  0  0  0  0  0
    1.5727    0.9850   -1.5029 C   0  0  0  0  0  0  0  0  0  0  0  0
    1.5414    1.1319   -3.0277 C   0  0  0  0  0  0  0  0  0  0  0  0
    0.4027    0.9442   -3.5451 O   0  5  0  0  0  0  0  0  0  0  0  0
    2.6333    1.4333   -3.5836 O   0  0  0  0  0  0  0  0  0  0  0  0
    1.9288   -0.5463    1.4242 H   0  0  0  0  0  0  0  0  0  0  0  0
    0.9111    1.4465    1.1560 H   0  0  0  0  0  0  0  0  0  0  0  0
   -0.4296    1.6527   -1.0561 H   0  0  0  0  0  0  0  0  0  0  0  0
   -0.2696   -0.0825   -1.2428 H   0  0  0  0  0  0  0  0  0  0  0  0
    2.0997    1.8438   -1.0704 H   0  0  0  0  0  0  0  0  0  0  0  0
    2.1899    0.1023   -1.2921 H   0  0  0  0  0  0  0  0  0  0  0  0
   -1.6461    1.8871    1.3329 N   0  0  0  0  0  0  0  0  0  0  0  0
   -2.9669    2.1401    1.8604 C   0  0  2  0  0  0  0  0  0  0  0  0
   -3.4510    3.4702    1.2981 C   0  0  0  0  0  0  0  0  0  0  0  0
   -2.6886    4.3382    0.8781 O   0  0  0  0  0  0  0  0  0  0  0  0
   -2.9605    2.1628    3.3809 C   0  0  0  0  0  0  0  0  0  0  0  0
   -1.1190    2.6799    0.9790 H   0  0  0  0  0  0  0  0  0  0  0  0
   -3.6124    1.3329    1.4974 H   0  0  0  0  0  0  0  0  0  0  0  0
   -2.3190    2.9652    3.7631 H   0  0  0  0  0  0  0  0  0  0  0  0
   -3.9671    2.3263    3.7796 H   0  0  0  0  0  0  0  0  0  0  0  0
   -2.5839    1.2162    3.7833 H   0  0  0  0  0  0  0  0  0  0  0  0
   -4.8321    3.5914    1.3604 N   0  0  0  0  0  0  0  0  0  0  0  0
   -5.5331    4.7673    0.8999 C   0  0  0  0  0  0  0  0  0  0  0  0
   -5.3869    2.8141    1.7064 H   0  0  0  0  0  0  0  0  0  0  0  0
   -5.6722    5.4642    1.7395 H   0  0  0  0  0  0  0  0  0  0  0  0
   -4.9460    5.2580    0.1097 H   0  0  0  0  0  0  0  0  0  0  0  0
   -6.5151    4.4752    0.4994 H   0  0  0  0  0  0  0  0  0  0  0  0
  1  3  1  0  0  0  0
  1  7  1  0  0  0  0
  1  2  2  0  0  0  0
 33 34  1  0  0  0  0
 34 42  1  0  0  0  0
 34 35  2  0  0  0  0
  8  9  1  0  0  0  0
  9 17  1  0  0  0  0
  9 10  2  0  0  0  0
 18 19  1  0  0  0  0
 19 32  1  0  0  0  0
 19 20  2  0  0  0  0
 22 23  1  0  0  0  0
 23 24  1  0  0  0  0
 23 25  2  0  0  0  0
 33 36  1  0  0  0  0
  8 11  1  0  0  0  0
 42 43  1  0  0  0  0
 21 22  1  0  0  0  0
 18 21  1  0  0  0  0
 32 33  1  0  0  0  0
  7  8  1  0  0  0  0
 17 18  1  0  0  0  0
  3  4  1  0  0  0  0
  3  5  1  0  0  0  0
  3  6  1  0  0  0  0
 36 39  1  0  0  0  0
 36 40  1  0  0  0  0
 36 41  1  0  0  0  0
 11 14  1  0  0  0  0
 11 15  1  0  0  0  0
 11 16  1  0  0  0  0
 43 45  1  0  0  0  0
 43 46  1  0  0  0  0
 43 47  1  0  0  0  0
 22 30  1  0  0  0  0
 22 31  1  0  0  0  0
 21 28  1  0  0  0  0
 21 29  1  0  0  0  0
 33 38  1  0  0  0  0
  8 13  1  0  0  0  0
 18 27  1  0  0  0  0
 42 44  1  0  0  0  0
  7 12  1  0  0  0  0
 32 37  1  0  0  0  0
 17 26  1  0  0  0  0
M  CHG  1  24  -1
M  END
$$$$

  -OEChem-05262214473D

 47 46  0     1  0  0  0  0  0999 V2000
    0.5093   -4.7265    3.0306 C   0  0  0  0  0  0  0  0  0  0  0  0
    1.2735   -4.4402    3.9448 O   0  0  0  0  0  0  0  0  0  0  0  0
   -0.4465   -5.8608    3.1982 C   0  0  0  0  0  0  0  0  0  0  0  0
   -0.0219   -6.8213    2.8645 H   0  0  0  0  0  0  0  0  0  0  0  0
   -0.7314   -6.0185    4.2509 H   0  0  0  0  0  0  0  0  0  0  0  0
   -1.3983   -5.7596    2.6527 H   0  0  0  0  0  0  0  0  0  0  0  0
    0.4252   -4.0886    1.8040 N   0  0  0  0  0  0  0  0  0  0  0  0
    1.2532   -2.9707    1.4349 C   0  0  2  0  0  0  0  0  0  0  0  0
    0.3395   -1.8293    1.0083 C   0  0  0  0  0  0  0  0  0  0  0  0
   -0.8136   -2.0027    0.6194 O   0  0  0  0  0  0  0  0  0  0  0  0
    2.2176   -3.3411    0.3189 C   0  0  0  0  0  0  0  0  0  0  0  0
   -0.2574   -4.4279    1.1287 H   0  0  0  0  0  0  0  0  0  0  0  0
    1.8087   -2.6785    2.3327 H   0  0  0  0  0  0  0  0  0  0  0  0
    1.6793   -3.6366   -0.5890 H   0  0  0  0  0  0  0  0  0  0  0  0
    2.8662   -2.4980    0.0589 H   0  0  0  0  0  0  0  0  0  0  0  0
    2.8538   -4.1816    0.6166 H   0  0  0  0  0  0  0  0  0  0  0  0
    0.9758   -0.5952    1.0708 N   0  0  0  0  0  0  0  0  0  0  0  0
    0.3258    0.6374    0.7059 C   0  0  2  0  0  0  0  0  0  0  0  0
   -0.8836    0.8060    1.6195 C   0  0  0  0  0  0  0  0  0  0  0  0
   -1.2065   -0.0270    2.4640 O   0  0  0  0  0  0  0  0  0  0  0  0
   -0.1108    0.6428   -0.7640 C   0  0  0  0  0  0  0  0  0  0  0  0
    1.0593    0.6419   -1.7469 C   0  0  0  0  0  0  0  0  0  0  0  0
    0.6929    0.6232   -3.2346 C   0  0  0  0  0  0  0  0  0  0  0  0
   -0.5413    0.4702   -3.4644 O   0  5  0  0  0  0  0  0  0  0  0  0
    1.6458    0.7750   -4.0478 O   0  0  0  0  0  0  0  0  0  0  0  0
    1.9288   -0.5463    1.4242 H   0  0  0  0  0  0  0  0  0  0  0  0
    1.0391    1.4422    0.9138 H   0  0  0  0  0  0  0  0  0  0  0  0
   -0.7529    1.5101   -0.9617 H   0  0  0  0  0  0  0  0  0  0  0  0
   -0.7303   -0.2423   -0.9618 H   0  0  0  0  0  0  0  0  0  0  0  0
    1.7145    1.4988   -1.5495 H   0  0  0  0  0  0  0  0  0  0  0  0
    1.6610   -0.2582   -1.5675 H   0  0  0  0  0  0  0  0  0  0  0  0
   -1.5843    1.9728    1.3474 N   0  0  0  0  0  0  0  0  0  0  0  0
   -2.7782    2.3551    2.0651 C   0  0  2  0  0  0  0  0  0  0  0  0
   -3.5115    3.4004    1.2350 C   0  0  0  0  0  0  0  0  0  0  0  0
   -2.9554    4.0933    0.3855 O   0  0  0  0  0  0  0  0  0  0  0  0
   -2.4440    2.8950    3.4470 C   0  0  0  0  0  0  0  0  0  0  0  0
   -1.2341    2.6113    0.6393 H   0  0  0  0  0  0  0  0  0  0  0  0
   -3.3975    1.4556    2.1507 H   0  0  0  0  0  0  0  0  0  0  0  0
   -1.8239    3.7965    3.3816 H   0  0  0  0  0  0  0  0  0  0  0  0
   -3.3516    3.1577    4.0005 H   0  0  0  0  0  0  0  0  0  0  0  0
   -1.8905    2.1526    4.0321 H   0  0  0  0  0  0  0  0  0  0  0  0
   -4.8510    3.4987    1.5847 N   0  0  0  0  0  0  0  0  0  0  0  0
   -5.7563    4.4280    0.9499 C   0  0  0  0  0  0  0  0  0  0  0  0
   -5.2314    2.8714    2.2871 H   0  0  0  0  0  0  0  0  0  0  0  0
   -5.7830    5.3654    1.5248 H   0  0  0  0  0  0  0  0  0  0  0  0
   -5.4105    4.6354   -0.0735 H   0  0  0  0  0  0  0  0  0  0  0  0
   -6.7651    3.9908    0.9145 H   0  0  0  0  0  0  0  0  0  0  0  0
  1  3  1  0  0  0  0
  1  7  1  0  0  0  0
  1  2  2  0  0  0  0
 33 34  1  0  0  0  0
 34 42  1  0  0  0  0
 34 35  2  0  0  0  0
  8  9  1  0  0  0  0
  9 17  1  0  0  0  0
  9 10  2  0  0  0  0
 18 19  1  0  0  0  0
 19 32  1  0  0  0  0
 19 20  2  0  0  0  0
 22 23  1  0  0  0  0
 23 24  1  0  0  0  0
 23 25  2  0  0  0  0
 33 36  1  0  0  0  0
  8 11  1  0  0  0  0
 42 43  1  0  0  0  0
 21 22  1  0  0  0  0
 18 21  1  0  0  0  0
 32 33  1  0  0  0  0
  7  8  1  0  0  0  0
 17 18  1  0  0  0  0
  3  4  1  0  0  0  0
  3  5  1  0  0  0  0
  3  6  1  0  0  0  0
 36 39  1  0  0  0  0
 36 40  1  0  0  0  0
 36 41  1  0  0  0  0
 11 14  1  0  0  0  0
 11 15  1  0  0  0  0
 11 16  1  0  0  0  0
 43 45  1  0  0  0  0
 43 46  1  0  0  0  0
 43 47  1  0  0  0  0
 22 30  1  0  0  0  0
 22 31  1  0  0  0  0
 21 28  1  0  0  0  0
 21 29  1  0  0  0  0
 33 38  1  0  0  0  0
  8 13  1  0  0  0  0
 18 27  1  0  0  0  0
 42 44  1  0  0  0  0
  7 12  1  0  0  0  0
 32 37  1  0  0  0  0
 17 26  1  0  0  0  0
M  CHG  1  24  -1
M  END
$$$$

  -OEChem-05262214473D

 47 46  0     1  0  0  0  0  0999 V2000
    0.5093   -4.7265    3.0306 C   0  0  0  0  0  0  0  0  0  0  0  0
    1.2735   -4.4402    3.9448 O   0  0  0  0  0  0  0  0  0  0  0  0
   -0.4465   -5.8608    3.1982 C   0  0  0  0  0  0  0  0  0  0  0  0
   -0.0219   -6.8213    2.8645 H   0  0  0  0  0  0  0  0  0  0  0  0
   -0.7314   -6.0185    4.2509 H   0  0  0  0  0  0  0  0  0  0  0  0
   -1.3983   -5.7596    2.6527 H   0  0  0  0  0  0  0  0  0  0  0  0
    0.4252   -4.0886    1.8040 N   0  0  0  0  0  0  0  0  0  0  0  0
    1.2532   -2.9707    1.4349 C   0  0  2  0  0  0  0  0  0  0  0  0
    0.3395   -1.8293    1.0083 C   0  0  0  0  0  0  0  0  0  0  0  0
   -0.8136   -2.0027    0.6194 O   0  0  0  0  0  0  0  0  0  0  0  0
    2.2176   -3.3411    0.3189 C   0  0  0  0  0  0  0  0  0  0  0  0
   -0.2574   -4.4279    1.1287 H   0  0  0  0  0  0  0  0  0  0  0  0
    1.8087   -2.6785    2.3327 H   0  0  0  0  0  0  0  0  0  0  0  0
    1.6793   -3.6366   -0.5890 H   0  0  0  0  0  0  0  0  0  0  0  0
    2.8662   -2.4980    0.0589 H   0  0  0  0  0  0  0  0  0  0  0  0
    2.8538   -4.1816    0.6166 H   0  0  0  0  0  0  0  0  0  0  0  0
    0.9758   -0.5952    1.0708 N   0  0  0  0  0  0  0  0  0  0  0  0
    0.3258    0.6374    0.7059 C   0  0  2  0  0  0  0  0  0  0  0  0
   -0.8836    0.8060    1.6195 C   0  0  0  0  0  0  0  0  0  0  0  0
   -1.0602    0.1272    2.6291 O   0  0  0  0  0  0  0  0  0  0  0  0
   -0.1108    0.6428   -0.7640 C   0  0  0  0  0  0  0  0  0  0  0  0
    1.0593    0.6419   -1.7469 C   0  0  0  0  0  0  0  0  0  0  0  0
    0.6929    0.6232   -3.2346 C   0  0  0  0  0  0  0  0  0  0  0  0
   -0.5413    0.4702   -3.4644 O   0  5  0  0  0  0  0  0  0  0  0  0
    1.6458    0.7750   -4.0478 O   0  0  0  0  0  0  0  0  0  0  0  0
    1.9288   -0.5463    1.4242 H   0  0  0  0  0  0  0  0  0  0  0  0
    1.0391    1.4422    0.9138 H   0  0  0  0  0  0  0  0  0  0  0  0
   -0.7529    1.5101   -0.9617 H   0  0  0  0  0  0  0  0  0  0  0  0
   -0.7303   -0.2423   -0.9618 H   0  0  0  0  0  0  0  0  0  0  0  0
    1.7145    1.4988   -1.5495 H   0  0  0  0  0  0  0  0  0  0  0  0
    1.6610   -0.2582   -1.5675 H   0  0  0  0  0  0  0  0  0  0  0  0
   -1.7632    1.7705    1.1478 N   0  0  0  0  0  0  0  0  0  0  0  0
   -2.9935    2.1074    1.8258 C   0  0  2  0  0  0  0  0  0  0  0  0
   -3.8931    2.8338    0.8345 C   0  0  0  0  0  0  0  0  0  0  0  0
   -3.4640    3.4116   -0.1620 O   0  0  0  0  0  0  0  0  0  0  0  0
   -2.7317    2.9667    3.0529 C   0  0  0  0  0  0  0  0  0  0  0  0
   -1.5271    2.2939    0.3100 H   0  0  0  0  0  0  0  0  0  0  0  0
   -3.4618    1.1617    2.1198 H   0  0  0  0  0  0  0  0  0  0  0  0
   -2.2627    3.9185    2.7782 H   0  0  0  0  0  0  0  0  0  0  0  0
   -3.6624    3.1973    3.5817 H   0  0  0  0  0  0  0  0  0  0  0  0
   -2.0606    2.4548    3.7511 H   0  0  0  0  0  0  0  0  0  0  0  0
   -5.2269    2.7976    1.2166 N   0  0  0  0  0  0  0  0  0  0  0  0
   -6.2754    3.4262    0.4476 C   0  0  0  0  0  0  0  0  0  0  0  0
   -5.4946    2.2793    2.0481 H   0  0  0  0  0  0  0  0  0  0  0  0
   -6.4428    4.4473    0.8209 H   0  0  0  0  0  0  0  0  0  0  0  0
   -5.9795    3.4669   -0.6111 H   0  0  0  0  0  0  0  0  0  0  0  0
   -7.2028    2.8430    0.5470 H   0  0  0  0  0  0  0  0  0  0  0  0
  1  3  1  0  0  0  0
  1  7  1  0  0  0  0
  1  2  2  0  0  0  0
 33 34  1  0  0  0  0
 34 42  1  0  0  0  0
 34 35  2  0  0  0  0
  8  9  1  0  0  0  0
  9 17  1  0  0  0  0
  9 10  2  0  0  0  0
 18 19  1  0  0  0  0
 19 32  1  0  0  0  0
 19 20  2  0  0  0  0
 22 23  1  0  0  0  0
 23 24  1  0  0  0  0
 23 25  2  0  0  0  0
 33 36  1  0  0  0  0
  8 11  1  0  0  0  0
 42 43  1  0  0  0  0
 21 22  1  0  0  0  0
 18 21  1  0  0  0  0
 32 33  1  0  0  0  0
  7  8  1  0  0  0  0
 17 18  1  0  0  0  0
  3  4  1  0  0  0  0
  3  5  1  0  0  0  0
  3  6  1  0  0  0  0
 36 39  1  0  0  0  0
 36 40  1  0  0  0  0
 36 41  1  0  0  0  0
 11 14  1  0  0  0  0
 11 15  1  0  0  0  0
 11 16  1  0  0  0  0
 43 45  1  0  0  0  0
 43 46  1  0  0  0  0
 43 47  1  0  0  0  0
 22 30  1  0  0  0  0
 22 31  1  0  0  0  0
 21 28  1  0  0  0  0
 21 29  1  0  0  0  0
 33 38  1  0  0  0  0
  8 13  1  0  0  0  0
 18 27  1  0  0  0  0
 42 44  1  0  0  0  0
  7 12  1  0  0  0  0
 32 37  1  0  0  0  0
 17 26  1  0  0  0  0
M  CHG  1  24  -1
M  END
$$$$

  -OEChem-05262214473D

 47 46  0     1  0  0  0  0  0999 V2000
    0.5093   -4.7265    3.0306 C   0  0  0  0  0  0  0  0  0  0  0  0
    1.2735   -4.4402    3.9448 O   0  0  0  0  0  0  0  0  0  0  0  0
   -0.4465   -5.8608    3.1982 C   0  0  0  0  0  0  0  0  0  0  0  0
   -0.0219   -6.8213    2.8645 H   0  0  0  0  0  0  0  0  0  0  0  0
   -0.7314   -6.0185    4.2509 H   0  0  0  0  0  0  0  0  0  0  0  0
   -1.3983   -5.7596    2.6527 H   0  0  0  0  0  0  0  0  0  0  0  0
    0.4252   -4.0886    1.8040 N   0  0  0  0  0  0  0  0  0  0  0  0
    1.2532   -2.9707    1.4349 C   0  0  2  0  0  0  0  0  0  0  0  0
    0.3395   -1.8293    1.0083 C   0  0  0  0  0  0  0  0  0  0  0  0
   -0.8136   -2.0027    0.6194 O   0  0  0  0  0  0  0  0  0  0  0  0
    2.2176   -3.3411    0.3189 C   0  0  0  0  0  0  0  0  0  0  0  0
   -0.2574   -4.4279    1.1287 H   0  0  0  0  0  0  0  0  0  0  0  0
    1.8087   -2.6785    2.3327 H   0  0  0  0  0  0  0  0  0  0  0  0
    1.6793   -3.6366   -0.5890 H   0  0  0  0  0  0  0  0  0  0  0  0
    2.8662   -2.4980    0.0589 H   0  0  0  0  0  0  0  0  0  0  0  0
    2.8538   -4.1816    0.6166 H   0  0  0  0  0  0  0  0  0  0  0  0
    0.9758   -0.5952    1.0708 N   0  0  0  0  0  0  0  0  0  0  0  0
    0.3258    0.6374    0.7059 C   0  0  2  0  0  0  0  0  0  0  0  0
   -0.8836    0.8060    1.6195 C   0  0  0  0  0  0  0  0  0  0  0  0
   -0.9382    0.3327    2.7527 O   0  0  0  0  0  0  0  0  0  0  0  0
   -0.1108    0.6428   -0.7640 C   0  0  0  0  0  0  0  0  0  0  0  0
    1.0593    0.6419   -1.7469 C   0  0  0  0  0  0  0  0  0  0  0  0
    0.6929    0.6232   -3.2346 C   0  0  0  0  0  0  0  0  0  0  0  0
   -0.5413    0.4702   -3.4644 O   0  5  0  0  0  0  0  0  0  0  0  0
    1.6458    0.7750   -4.0478 O   0  0  0  0  0  0  0  0  0  0  0  0
    1.9288   -0.5463    1.4242 H   0  0  0  0  0  0  0  0  0  0  0  0
    1.0391    1.4422    0.9138 H   0  0  0  0  0  0  0  0  0  0  0  0
   -0.7529    1.5101   -0.9617 H   0  0  0  0  0  0  0  0  0  0  0  0
   -0.7303   -0.2423   -0.9618 H   0  0  0  0  0  0  0  0  0  0  0  0
    1.7145    1.4988   -1.5495 H   0  0  0  0  0  0  0  0  0  0  0  0
    1.6610   -0.2582   -1.5675 H   0  0  0  0  0  0  0  0  0  0  0  0
   -1.9104    1.5064    1.0018 N   0  0  0  0  0  0  0  0  0  0  0  0
   -3.1699    1.7856    1.6517 C   0  0  2  0  0  0  0  0  0  0  0  0
   -4.1853    2.1450    0.5749 C   0  0  0  0  0  0  0  0  0  0  0  0
   -3.8653    2.5618   -0.5364 O   0  0  0  0  0  0  0  0  0  0  0  0
   -3.0320    2.9104    2.6658 C   0  0  0  0  0  0  0  0  0  0  0  0
   -1.7704    1.8742    0.0654 H   0  0  0  0  0  0  0  0  0  0  0  0
   -3.4792    0.8615    2.1522 H   0  0  0  0  0  0  0  0  0  0  0  0
   -2.7227    3.8445    2.1828 H   0  0  0  0  0  0  0  0  0  0  0  0
   -3.9808    3.1015    3.1779 H   0  0  0  0  0  0  0  0  0  0  0  0
   -2.2798    2.6627    3.4226 H   0  0  0  0  0  0  0  0  0  0  0  0
   -5.4917    1.9865    1.0157 N   0  0  0  0  0  0  0  0  0  0  0  0
   -6.6359    2.2750    0.1829 C   0  0  0  0  0  0  0  0  0  0  0  0
   -5.6638    1.6175    1.9463 H   0  0  0  0  0  0  0  0  0  0  0  0
   -6.9579    3.3137    0.3483 H   0  0  0  0  0  0  0  0  0  0  0  0
   -6.3633    2.1396   -0.8742 H   0  0  0  0  0  0  0  0  0  0  0  0
   -7.4581    1.5910    0.4401 H   0  0  0  0  0  0  0  0  0  0  0  0
  1  3  1  0  0  0  0
  1  7  1  0  0  0  0
  1  2  2  0  0  0  0
 33 34  1  0  0  0  0
 34 42  1  0  0  0  0
 34 35  2  0  0  0  0
  8  9  1  0  0  0  0
  9 17  1  0  0  0  0
  9 10  2  0  0  0  0
 18 19  1  0  0  0  0
 19 32  1  0  0  0  0
 19 20  2  0  0  0  0
 22 23  1  0  0  0  0
 23 24  1  0  0  0  0
 23 25  2  0  0  0  0
 33 36  1  0  0  0  0
  8 11  1  0  0  0  0
 42 43  1  0  0  0  0
 21 22  1  0  0  0  0
 18 21  1  0  0  0  0
 32 33  1  0  0  0  0
  7  8  1  0  0  0  0
 17 18  1  0  0  0  0
  3  4  1  0  0  0  0
  3  5  1  0  0  0  0
  3  6  1  0  0  0  0
 36 39  1  0  0  0  0
 36 40  1  0  0  0  0
 36 41  1  0  0  0  0
 11 14  1  0  0  0  0
 11 15  1  0  0  0  0
 11 16  1  0  0  0  0
 43 45  1  0  0  0  0
 43 46  1  0  0  0  0
 43 47  1  0  0  0  0
 22 30  1  0  0  0  0
 22 31  1  0  0  0  0
 21 28  1  0  0  0  0
 21 29  1  0  0  0  0
 33 38  1  0  0  0  0
  8 13  1  0  0  0  0
 18 27  1  0  0  0  0
 42 44  1  0  0  0  0
  7 12  1  0  0  0  0
 32 37  1  0  0  0  0
 17 26  1  0  0  0  0
M  CHG  1  24  -1
M  END
$$$$

  -OEChem-05262214473D

 47 46  0     1  0  0  0  0  0999 V2000
    0.5093   -4.7265    3.0306 C   0  0  0  0  0  0  0  0  0  0  0  0
    1.2735   -4.4402    3.9448 O   0  0  0  0  0  0  0  0  0  0  0  0
   -0.4465   -5.8608    3.1982 C   0  0  0  0  0  0  0  0  0  0  0  0
   -0.0219   -6.8213    2.8645 H   0  0  0  0  0  0  0  0  0  0  0  0
   -0.7314   -6.0185    4.2509 H   0  0  0  0  0  0  0  0  0  0  0  0
   -1.3983   -5.7596    2.6527 H   0  0  0  0  0  0  0  0  0  0  0  0
    0.4252   -4.0886    1.8040 N   0  0  0  0  0  0  0  0  0  0  0  0
    1.2532   -2.9707    1.4349 C   0  0  2  0  0  0  0  0  0  0  0  0
    0.3395   -1.8293    1.0083 C   0  0  0  0  0  0  0  0  0  0  0  0
   -0.8136   -2.0027    0.6194 O   0  0  0  0  0  0  0  0  0  0  0  0
    2.2176   -3.3411    0.3189 C   0  0  0  0  0  0  0  0  0  0  0  0
   -0.2574   -4.4279    1.1287 H   0  0  0  0  0  0  0  0  0  0  0  0
    1.8087   -2.6785    2.3327 H   0  0  0  0  0  0  0  0  0  0  0  0
    1.6793   -3.6366   -0.5890 H   0  0  0  0  0  0  0  0  0  0  0  0
    2.8662   -2.4980    0.0589 H   0  0  0  0  0  0  0  0  0  0  0  0
    2.8538   -4.1816    0.6166 H   0  0  0  0  0  0  0  0  0  0  0  0
    0.9758   -0.5952    1.0708 N   0  0  0  0  0  0  0  0  0  0  0  0
    0.3258    0.6374    0.7059 C   0  0  2  0  0  0  0  0  0  0  0  0
   -0.8836    0.8060    1.6195 C   0  0  0  0  0  0  0  0  0  0  0  0
   -0.8486    0.5755    2.8265 O   0  0  0  0  0  0  0  0  0  0  0  0
   -0.1108    0.6428   -0.7640 C   0  0  0  0  0  0  0  0  0  0  0  0
    1.0593    0.6419   -1.7469 C   0  0  0  0  0  0  0  0  0  0  0  0
    0.6929    0.6232   -3.2346 C   0  0  0  0  0  0  0  0  0  0  0  0
   -0.5413    0.4702   -3.4644 O   0  5  0  0  0  0  0  0  0  0  0  0
    1.6458    0.7750   -4.0478 O   0  0  0  0  0  0  0  0  0  0  0  0
    1.9288   -0.5463    1.4242 H   0  0  0  0  0  0  0  0  0  0  0  0
    1.0391    1.4422    0.9138 H   0  0  0  0  0  0  0  0  0  0  0  0
   -0.7529    1.5101   -0.9617 H   0  0  0  0  0  0  0  0  0  0  0  0
   -0.7303   -0.2423   -0.9618 H   0  0  0  0  0  0  0  0  0  0  0  0
    1.7145    1.4988   -1.5495 H   0  0  0  0  0  0  0  0  0  0  0  0
    1.6610   -0.2582   -1.5675 H   0  0  0  0  0  0  0  0  0  0  0  0
   -2.0158    1.1985    0.9191 N   0  0  0  0  0  0  0  0  0  0  0  0
   -3.2954    1.4116    1.5546 C   0  0  2  0  0  0  0  0  0  0  0  0
   -4.3681    1.3811    0.4739 C   0  0  0  0  0  0  0  0  0  0  0  0
   -4.1319    1.6020   -0.7121 O   0  0  0  0  0  0  0  0  0  0  0  0
   -3.3244    2.7300    2.3120 C   0  0  0  0  0  0  0  0  0  0  0  0
   -1.9473    1.3809   -0.0778 H   0  0  0  0  0  0  0  0  0  0  0  0
   -3.4485    0.5755    2.2456 H   0  0  0  0  0  0  0  0  0  0  0  0
   -3.1726    3.5795    1.6361 H   0  0  0  0  0  0  0  0  0  0  0  0
   -4.2850    2.8767    2.8167 H   0  0  0  0  0  0  0  0  0  0  0  0
   -2.5332    2.7621    3.0689 H   0  0  0  0  0  0  0  0  0  0  0  0
   -5.6275    1.1208    0.9957 N   0  0  0  0  0  0  0  0  0  0  0  0
   -6.8132    1.0527    0.1738 C   0  0  0  0  0  0  0  0  0  0  0  0
   -5.7275    0.9312    1.9886 H   0  0  0  0  0  0  0  0  0  0  0  0
   -7.2932    2.0419    0.1392 H   0  0  0  0  0  0  0  0  0  0  0  0
   -6.5358    0.7440   -0.8448 H   0  0  0  0  0  0  0  0  0  0  0  0
   -7.5137    0.3201    0.6011 H   0  0  0  0  0  0  0  0  0  0  0  0
  1  3  1  0  0  0  0
  1  7  1  0  0  0  0
  1  2  2  0  0  0  0
 33 34  1  0  0  0  0
 34 42  1  0  0  0  0
 34 35  2  0  0  0  0
  8  9  1  0  0  0  0
  9 17  1  0  0  0  0
  9 10  2  0  0  0  0
 18 19  1  0  0  0  0
 19 32  1  0  0  0  0
 19 20  2  0  0  0  0
 22 23  1  0  0  0  0
 23 24  1  0  0  0  0
 23 25  2  0  0  0  0
 33 36  1  0  0  0  0
  8 11  1  0  0  0  0
 42 43  1  0  0  0  0
 21 22  1  0  0  0  0
 18 21  1  0  0  0  0
 32 33  1  0  0  0  0
  7  8  1  0  0  0  0
 17 18  1  0  0  0  0
  3  4  1  0  0  0  0
  3  5  1  0  0  0  0
  3  6  1  0  0  0  0
 36 39  1  0  0  0  0
 36 40  1  0  0  0  0
 36 41  1  0  0  0  0
 11 14  1  0  0  0  0
 11 15  1  0  0  0  0
 11 16  1  0  0  0  0
 43 45  1  0  0  0  0
 43 46  1  0  0  0  0
 43 47  1  0  0  0  0
 22 30  1  0  0  0  0
 22 31  1  0  0  0  0
 21 28  1  0  0  0  0
 21 29  1  0  0  0  0
 33 38  1  0  0  0  0
  8 13  1  0  0  0  0
 18 27  1  0  0  0  0
 42 44  1  0  0  0  0
  7 12  1  0  0  0  0
 32 37  1  0  0  0  0
 17 26  1  0  0  0  0
M  CHG  1  24  -1
M  END
$$$$

  -OEChem-05262214473D

 47 46  0     1  0  0  0  0  0999 V2000
    0.5093   -4.7265    3.0306 C   0  0  0  0  0  0  0  0  0  0  0  0
    1.2735   -4.4402    3.9448 O   0  0  0  0  0  0  0  0  0  0  0  0
   -0.4465   -5.8608    3.1982 C   0  0  0  0  0  0  0  0  0  0  0  0
   -0.0219   -6.8213    2.8645 H   0  0  0  0  0  0  0  0  0  0  0  0
   -0.7314   -6.0185    4.2509 H   0  0  0  0  0  0  0  0  0  0  0  0
   -1.3983   -5.7596    2.6527 H   0  0  0  0  0  0  0  0  0  0  0  0
    0.4252   -4.0886    1.8040 N   0  0  0  0  0  0  0  0  0  0  0  0
    1.2532   -2.9707    1.4349 C   0  0  2  0  0  0  0  0  0  0  0  0
    0.3395   -1.8293    1.0083 C   0  0  0  0  0  0  0  0  0  0  0  0
   -0.8136   -2.0027    0.6194 O   0  0  0  0  0  0  0  0  0  0  0  0
    2.2176   -3.3411    0.3189 C   0  0  0  0  0  0  0  0  0  0  0  0
   -0.2574   -4.4279    1.1287 H   0  0  0  0  0  0  0  0  0  0  0  0
    1.8087   -2.6785    2.3327 H   0  0  0  0  0  0  0  0  0  0  0  0
    1.6793   -3.6366   -0.5890 H   0  0  0  0  0  0  0  0  0  0  0  0
    2.8662   -2.4980    0.0589 H   0  0  0  0  0  0  0  0  0  0  0  0
    2.8538   -4.1816    0.6166 H   0  0  0  0  0  0  0  0  0  0  0  0
    0.9758   -0.5952    1.0708 N   0  0  0  0  0  0  0  0  0  0  0  0
    0.3258    0.6374    0.7059 C   0  0  2  0  0  0  0  0  0  0  0  0
   -0.8836    0.8060    1.6195 C   0  0  0  0  0  0  0  0  0  0  0  0
   -0.7976    0.8390    2.8454 O   0  0  0  0  0  0  0  0  0  0  0  0
   -0.1108    0.6428   -0.7640 C   0  0  0  0  0  0  0  0  0  0  0  0
    1.0593    0.6419   -1.7469 C   0  0  0  0  0  0  0  0  0  0  0  0
    0.6929    0.6232   -3.2346 C   0  0  0  0  0  0  0  0  0  0  0  0
   -0.5413    0.4702   -3.4644 O   0  5  0  0  0  0  0  0  0  0  0  0
    1.6458    0.7750   -4.0478 O   0  0  0  0  0  0  0  0  0  0  0  0
    1.9288   -0.5463    1.4242 H   0  0  0  0  0  0  0  0  0  0  0  0
    1.0391    1.4422    0.9138 H   0  0  0  0  0  0  0  0  0  0  0  0
   -0.7529    1.5101   -0.9617 H   0  0  0  0  0  0  0  0  0  0  0  0
   -0.7303   -0.2423   -0.9618 H   0  0  0  0  0  0  0  0  0  0  0  0
    1.7145    1.4988   -1.5495 H   0  0  0  0  0  0  0  0  0  0  0  0
    1.6610   -0.2582   -1.5675 H   0  0  0  0  0  0  0  0  0  0  0  0
   -2.0722    0.8678    0.9054 N   0  0  0  0  0  0  0  0  0  0  0  0
   -3.3615    1.0111    1.5411 C   0  0  2  0  0  0  0  0  0  0  0  0
   -4.4292    0.5942    0.5383 C   0  0  0  0  0  0  0  0  0  0  0  0
   -4.2456    0.5974   -0.6772 O   0  0  0  0  0  0  0  0  0  0  0  0
   -3.5889    2.4378    2.0157 C   0  0  0  0  0  0  0  0  0  0  0  0
   -2.0458    0.8476   -0.1097 H   0  0  0  0  0  0  0  0  0  0  0  0
   -3.3719    0.3232    2.3936 H   0  0  0  0  0  0  0  0  0  0  0  0
   -3.5818    3.1415    1.1753 H   0  0  0  0  0  0  0  0  0  0  0  0
   -4.5544    2.5382    2.5226 H   0  0  0  0  0  0  0  0  0  0  0  0
   -2.8034    2.7462    2.7140 H   0  0  0  0  0  0  0  0  0  0  0  0
   -5.6250    0.2594    1.1580 N   0  0  0  0  0  0  0  0  0  0  0  0
   -6.7952   -0.1572    0.4210 C   0  0  0  0  0  0  0  0  0  0  0  0
   -5.6814    0.2670    2.1722 H   0  0  0  0  0  0  0  0  0  0  0  0
   -7.4259    0.7185    0.2078 H   0  0  0  0  0  0  0  0  0  0  0  0
   -6.4852   -0.6248   -0.5252 H   0  0  0  0  0  0  0  0  0  0  0  0
   -7.3658   -0.8830    1.0190 H   0  0  0  0  0  0  0  0  0  0  0  0
  1  3  1  0  0  0  0
  1  7  1  0  0  0  0
  1  2  2  0  0  0  0
 33 34  1  0  0  0  0
 34 42  1  0  0  0  0
 34 35  2  0  0  0  0
  8  9  1  0  0  0  0
  9 17  1  0  0  0  0
  9 10  2  0  0  0  0
 18 19  1  0  0  0  0
 19 32  1  0  0  0  0
 19 20  2  0  0  0  0
 22 23  1  0  0  0  0
 23 24  1  0  0  0  0
 23 25  2  0  0  0  0
 33 36  1  0  0  0  0
  8 11  1  0  0  0  0
 42 43  1  0  0  0  0
 21 22  1  0  0  0  0
 18 21  1  0  0  0  0
 32 33  1  0  0  0  0
  7  8  1  0  0  0  0
 17 18  1  0  0  0  0
  3  4  1  0  0  0  0
  3  5  1  0  0  0  0
  3  6  1  0  0  0  0
 36 39  1  0  0  0  0
 36 40  1  0  0  0  0
 36 41  1  0  0  0  0
 11 14  1  0  0  0  0
 11 15  1  0  0  0  0
 11 16  1  0  0  0  0
 43 45  1  0  0  0  0
 43 46  1  0  0  0  0
 43 47  1  0  0  0  0
 22 30  1  0  0  0  0
 22 31  1  0  0  0  0
 21 28  1  0  0  0  0
 21 29  1  0  0  0  0
 33 38  1  0  0  0  0
  8 13  1  0  0  0  0
 18 27  1  0  0  0  0
 42 44  1  0  0  0  0
  7 12  1  0  0  0  0
 32 37  1  0  0  0  0
 17 26  1  0  0  0  0
M  CHG  1  24  -1
M  END
$$$$

  -OEChem-05262214473D

 47 46  0     1  0  0  0  0  0999 V2000
    0.5093   -4.7265    3.0306 C   0  0  0  0  0  0  0  0  0  0  0  0
    1.2735   -4.4402    3.9448 O   0  0  0  0  0  0  0  0  0  0  0  0
   -0.4465   -5.8608    3.1982 C   0  0  0  0  0  0  0  0  0  0  0  0
   -0.0219   -6.8213    2.8645 H   0  0  0  0  0  0  0  0  0  0  0  0
   -0.7314   -6.0185    4.2509 H   0  0  0  0  0  0  0  0  0  0  0  0
   -1.3983   -5.7596    2.6527 H   0  0  0  0  0  0  0  0  0  0  0  0
    0.4252   -4.0886    1.8040 N   0  0  0  0  0  0  0  0  0  0  0  0
    1.2532   -2.9707    1.4349 C   0  0  2  0  0  0  0  0  0  0  0  0
    0.3395   -1.8293    1.0083 C   0  0  0  0  0  0  0  0  0  0  0  0
   -0.8136   -2.0027    0.6194 O   0  0  0  0  0  0  0  0  0  0  0  0
    2.2176   -3.3411    0.3189 C   0  0  0  0  0  0  0  0  0  0  0  0
   -0.2574   -4.4279    1.1287 H   0  0  0  0  0  0  0  0  0  0  0  0
    1.8087   -2.6785    2.3327 H   0  0  0  0  0  0  0  0  0  0  0  0
    1.6793   -3.6366   -0.5890 H   0  0  0  0  0  0  0  0  0  0  0  0
    2.8662   -2.4980    0.0589 H   0  0  0  0  0  0  0  0  0  0  0  0
    2.8538   -4.1816    0.6166 H   0  0  0  0  0  0  0  0  0  0  0  0
    0.9758   -0.5952    1.0708 N   0  0  0  0  0  0  0  0  0  0  0  0
    0.3258    0.6374    0.7059 C   0  0  2  0  0  0  0  0  0  0  0  0
   -0.8836    0.8060    1.6195 C   0  0  0  0  0  0  0  0  0  0  0  0
   -0.7887    1.1054    2.8080 O   0  0  0  0  0  0  0  0  0  0  0  0
   -0.1108    0.6428   -0.7640 C   0  0  0  0  0  0  0  0  0  0  0  0
    1.0593    0.6419   -1.7469 C   0  0  0  0  0  0  0  0  0  0  0  0
    0.6929    0.6232   -3.2346 C   0  0  0  0  0  0  0  0  0  0  0  0
   -0.5413    0.4702   -3.4644 O   0  5  0  0  0  0  0  0  0  0  0  0
    1.6458    0.7750   -4.0478 O   0  0  0  0  0  0  0  0  0  0  0  0
    1.9288   -0.5463    1.4242 H   0  0  0  0  0  0  0  0  0  0  0  0
    1.0391    1.4422    0.9138 H   0  0  0  0  0  0  0  0  0  0  0  0
   -0.7529    1.5101   -0.9617 H   0  0  0  0  0  0  0  0  0  0  0  0
   -0.7303   -0.2423   -0.9618 H   0  0  0  0  0  0  0  0  0  0  0  0
    1.7145    1.4988   -1.5495 H   0  0  0  0  0  0  0  0  0  0  0  0
    1.6610   -0.2582   -1.5675 H   0  0  0  0  0  0  0  0  0  0  0  0
   -2.0758    0.5369    0.9617 N   0  0  0  0  0  0  0  0  0  0  0  0
   -3.3635    0.6111    1.6122 C   0  0  2  0  0  0  0  0  0  0  0  0
   -4.3643   -0.1622    0.7637 C   0  0  0  0  0  0  0  0  0  0  0  0
   -4.1987   -0.3834   -0.4341 O   0  0  0  0  0  0  0  0  0  0  0  0
   -3.8077    2.0538    1.7970 C   0  0  0  0  0  0  0  0  0  0  0  0
   -2.0592    0.3107   -0.0283 H   0  0  0  0  0  0  0  0  0  0  0  0
   -3.2545    0.1217    2.5862 H   0  0  0  0  0  0  0  0  0  0  0  0
   -3.9223    2.5605    0.8318 H   0  0  0  0  0  0  0  0  0  0  0  0
   -4.7705    2.1091    2.3157 H   0  0  0  0  0  0  0  0  0  0  0  0
   -3.0722    2.6161    2.3823 H   0  0  0  0  0  0  0  0  0  0  0  0
   -5.4844   -0.5389    1.4915 N   0  0  0  0  0  0  0  0  0  0  0  0
   -6.5831   -1.2724    0.9076 C   0  0  0  0  0  0  0  0  0  0  0  0
   -5.5287   -0.3297    2.4845 H   0  0  0  0  0  0  0  0  0  0  0  0
   -7.3469   -0.5663    0.5496 H   0  0  0  0  0  0  0  0  0  0  0  0
   -6.2149   -1.8734    0.0631 H   0  0  0  0  0  0  0  0  0  0  0  0
   -7.0243   -1.9364    1.6655 H   0  0  0  0  0  0  0  0  0  0  0  0
  1  3  1  0  0  0  0
  1  7  1  0  0  0  0
  1  2  2  0  0  0  0
 33 34  1  0  0  0  0
 34 42  1  0  0  0  0
 34 35  2  0  0  0  0
  8  9  1  0  0  0  0
  9 17  1  0  0  0  0
  9 10  2  0  0  0  0
 18 19  1  0  0  0  0
 19 32  1  0  0  0  0
 19 20  2  0  0  0  0
 22 23  1  0  0  0  0
 23 24  1  0  0  0  0
 23 25  2  0  0  0  0
 33 36  1  0  0  0  0
  8 11  1  0  0  0  0
 42 43  1  0  0  0  0
 21 22  1  0  0  0  0
 18 21  1  0  0  0  0
 32 33  1  0  0  0  0
  7  8  1  0  0  0  0
 17 18  1  0  0  0  0
  3  4  1  0  0  0  0
  3  5  1  0  0  0  0
  3  6  1  0  0  0  0
 36 39  1  0  0  0  0
 36 40  1  0  0  0  0
 36 41  1  0  0  0  0
 11 14  1  0  0  0  0
 11 15  1  0  0  0  0
 11 16  1  0  0  0  0
 43 45  1  0  0  0  0
 43 46  1  0  0  0  0
 43 47  1  0  0  0  0
 22 30  1  0  0  0  0
 22 31  1  0  0  0  0
 21 28  1  0  0  0  0
 21 29  1  0  0  0  0
 33 38  1  0  0  0  0
  8 13  1  0  0  0  0
 18 27  1  0  0  0  0
 42 44  1  0  0  0  0
  7 12  1  0  0  0  0
 32 37  1  0  0  0  0
 17 26  1  0  0  0  0
M  CHG  1  24  -1
M  END
$$$$

  -OEChem-05262214473D

 47 46  0     1  0  0  0  0  0999 V2000
    0.5093   -4.7265    3.0306 C   0  0  0  0  0  0  0  0  0  0  0  0
    1.2735   -4.4402    3.9448 O   0  0  0  0  0  0  0  0  0  0  0  0
   -0.4465   -5.8608    3.1982 C   0  0  0  0  0  0  0  0  0  0  0  0
   -0.0219   -6.8213    2.8645 H   0  0  0  0  0  0  0  0  0  0  0  0
   -0.7314   -6.0185    4.2509 H   0  0  0  0  0  0  0  0  0  0  0  0
   -1.3983   -5.7596    2.6527 H   0  0  0  0  0  0  0  0  0  0  0  0
    0.4252   -4.0886    1.8040 N   0  0  0  0  0  0  0  0  0  0  0  0
    1.2532   -2.9707    1.4349 C   0  0  2  0  0  0  0  0  0  0  0  0
    0.3395   -1.8293    1.0083 C   0  0  0  0  0  0  0  0  0  0  0  0
   -0.8136   -2.0027    0.6194 O   0  0  0  0  0  0  0  0  0  0  0  0
    2.2176   -3.3411    0.3189 C   0  0  0  0  0  0  0  0  0  0  0  0
   -0.2574   -4.4279    1.1287 H   0  0  0  0  0  0  0  0  0  0  0  0
    1.8087   -2.6785    2.3327 H   0  0  0  0  0  0  0  0  0  0  0  0
    1.6793   -3.6366   -0.5890 H   0  0  0  0  0  0  0  0  0  0  0  0
    2.8662   -2.4980    0.0589 H   0  0  0  0  0  0  0  0  0  0  0  0
    2.8538   -4.1816    0.6166 H   0  0  0  0  0  0  0  0  0  0  0  0
    0.9758   -0.5952    1.0708 N   0  0  0  0  0  0  0  0  0  0  0  0
    0.3258    0.6374    0.7059 C   0  0  2  0  0  0  0  0  0  0  0  0
   -0.8836    0.8060    1.6195 C   0  0  0  0  0  0  0  0  0  0  0  0
   -0.8224    1.3564    2.7170 O   0  0  0  0  0  0  0  0  0  0  0  0
   -0.1108    0.6428   -0.7640 C   0  0  0  0  0  0  0  0  0  0  0  0
    1.0593    0.6419   -1.7469 C   0  0  0  0  0  0  0  0  0  0  0  0
    0.6929    0.6232   -3.2346 C   0  0  0  0  0  0  0  0  0  0  0  0
   -0.5413    0.4702   -3.4644 O   0  5  0  0  0  0  0  0  0  0  0  0
    1.6458    0.7750   -4.0478 O   0  0  0  0  0  0  0  0  0  0  0  0
    1.9288   -0.5463    1.4242 H   0  0  0  0  0  0  0  0  0  0  0  0
    1.0391    1.4422    0.9138 H   0  0  0  0  0  0  0  0  0  0  0  0
   -0.7529    1.5101   -0.9617 H   0  0  0  0  0  0  0  0  0  0  0  0
   -0.7303   -0.2423   -0.9618 H   0  0  0  0  0  0  0  0  0  0  0  0
    1.7145    1.4988   -1.5495 H   0  0  0  0  0  0  0  0  0  0  0  0
    1.6610   -0.2582   -1.5675 H   0  0  0  0  0  0  0  0  0  0  0  0
   -2.0264    0.2281    1.0842 N   0  0  0  0  0  0  0  0  0  0  0  0
   -3.3014    0.2391    1.7631 C   0  0  2  0  0  0  0  0  0  0  0  0
   -4.1779   -0.8364    1.1349 C   0  0  0  0  0  0  0  0  0  0  0  0
   -3.9943   -1.2735    0.0008 O   0  0  0  0  0  0  0  0  0  0  0  0
   -3.9657    1.6040    1.6709 C   0  0  0  0  0  0  0  0  0  0  0  0
   -1.9866   -0.1934    0.1609 H   0  0  0  0  0  0  0  0  0  0  0  0
   -3.1044   -0.0151    2.8102 H   0  0  0  0  0  0  0  0  0  0  0  0
   -4.1709    1.8759    0.6290 H   0  0  0  0  0  0  0  0  0  0  0  0
   -4.9186    1.6187    2.2101 H   0  0  0  0  0  0  0  0  0  0  0  0
   -3.3211    2.3807    2.0963 H   0  0  0  0  0  0  0  0  0  0  0  0
   -5.2153   -1.2198    1.9735 N   0  0  0  0  0  0  0  0  0  0  0  0
   -6.1914   -2.2168    1.6005 C   0  0  0  0  0  0  0  0  0  0  0  0
   -5.2797   -0.8183    2.9043 H   0  0  0  0  0  0  0  0  0  0  0  0
   -7.0615   -1.7249    1.1411 H   0  0  0  0  0  0  0  0  0  0  0  0
   -5.7434   -2.9168    0.8799 H   0  0  0  0  0  0  0  0  0  0  0  0
   -6.5127   -2.7683    2.4963 H   0  0  0  0  0  0  0  0  0  0  0  0
  1  3  1  0  0  0  0
  1  7  1  0  0  0  0
  1  2  2  0  0  0  0
 33 34  1  0  0  0  0
 34 42  1  0  0  0  0
 34 35  2  0  0  0  0
  8  9  1  0  0  0  0
  9 17  1  0  0  0  0
  9 10  2  0  0  0  0
 18 19  1  0  0  0  0
 19 32  1  0  0  0  0
 19 20  2  0  0  0  0
 22 23  1  0  0  0  0
 23 24  1  0  0  0  0
 23 25  2  0  0  0  0
 33 36  1  0  0  0  0
  8 11  1  0  0  0  0
 42 43  1  0  0  0  0
 21 22  1  0  0  0  0
 18 21  1  0  0  0  0
 32 33  1  0  0  0  0
  7  8  1  0  0  0  0
 17 18  1  0  0  0  0
  3  4  1  0  0  0  0
  3  5  1  0  0  0  0
  3  6  1  0  0  0  0
 36 39  1  0  0  0  0
 36 40  1  0  0  0  0
 36 41  1  0  0  0  0
 11 14  1  0  0  0  0
 11 15  1  0  0  0  0
 11 16  1  0  0  0  0
 43 45  1  0  0  0  0
 43 46  1  0  0  0  0
 43 47  1  0  0  0  0
 22 30  1  0  0  0  0
 22 31  1  0  0  0  0
 21 28  1  0  0  0  0
 21 29  1  0  0  0  0
 33 38  1  0  0  0  0
  8 13  1  0  0  0  0
 18 27  1  0  0  0  0
 42 44  1  0  0  0  0
  7 12  1  0  0  0  0
 32 37  1  0  0  0  0
 17 26  1  0  0  0  0
M  CHG  1  24  -1
M  END
$$$$

  -OEChem-05262214473D

 47 46  0     1  0  0  0  0  0999 V2000
    0.5093   -4.7265    3.0306 C   0  0  0  0  0  0  0  0  0  0  0  0
    1.2735   -4.4402    3.9448 O   0  0  0  0  0  0  0  0  0  0  0  0
   -0.4465   -5.8608    3.1982 C   0  0  0  0  0  0  0  0  0  0  0  0
   -0.0219   -6.8213    2.8645 H   0  0  0  0  0  0  0  0  0  0  0  0
   -0.7314   -6.0185    4.2509 H   0  0  0  0  0  0  0  0  0  0  0  0
   -1.3983   -5.7596    2.6527 H   0  0  0  0  0  0  0  0  0  0  0  0
    0.4252   -4.0886    1.8040 N   0  0  0  0  0  0  0  0  0  0  0  0
    1.2532   -2.9707    1.4349 C   0  0  2  0  0  0  0  0  0  0  0  0
    0.3395   -1.8293    1.0083 C   0  0  0  0  0  0  0  0  0  0  0  0
   -0.8136   -2.0027    0.6194 O   0  0  0  0  0  0  0  0  0  0  0  0
    2.2176   -3.3411    0.3189 C   0  0  0  0  0  0  0  0  0  0  0  0
   -0.2574   -4.4279    1.1287 H   0  0  0  0  0  0  0  0  0  0  0  0
    1.8087   -2.6785    2.3327 H   0  0  0  0  0  0  0  0  0  0  0  0
    1.6793   -3.6366   -0.5890 H   0  0  0  0  0  0  0  0  0  0  0  0
    2.8662   -2.4980    0.0589 H   0  0  0  0  0  0  0  0  0  0  0  0
    2.8538   -4.1816    0.6166 H   0  0  0  0  0  0  0  0  0  0  0  0
    0.9758   -0.5952    1.0708 N   0  0  0  0  0  0  0  0  0  0  0  0
    0.3258    0.6374    0.7059 C   0  0  2  0  0  0  0  0  0  0  0  0
   -0.8836    0.8060    1.6195 C   0  0  0  0  0  0  0  0  0  0  0  0
   -0.8965    1.5749    2.5786 O   0  0  0  0  0  0  0  0  0  0  0  0
   -0.1108    0.6428   -0.7640 C   0  0  0  0  0  0  0  0  0  0  0  0
    1.0593    0.6419   -1.7469 C   0  0  0  0  0  0  0  0  0  0  0  0
    0.6929    0.6232   -3.2346 C   0  0  0  0  0  0  0  0  0  0  0  0
   -0.5413    0.4702   -3.4644 O   0  5  0  0  0  0  0  0  0  0  0  0
    1.6458    0.7750   -4.0478 O   0  0  0  0  0  0  0  0  0  0  0  0
    1.9288   -0.5463    1.4242 H   0  0  0  0  0  0  0  0  0  0  0  0
    1.0391    1.4422    0.9138 H   0  0  0  0  0  0  0  0  0  0  0  0
   -0.7529    1.5101   -0.9617 H   0  0  0  0  0  0  0  0  0  0  0  0
   -0.7303   -0.2423   -0.9618 H   0  0  0  0  0  0  0  0  0  0  0  0
    1.7145    1.4988   -1.5495 H   0  0  0  0  0  0  0  0  0  0  0  0
    1.6610   -0.2582   -1.5675 H   0  0  0  0  0  0  0  0  0  0  0  0
   -1.9273   -0.0373    1.2644 N   0  0  0  0  0  0  0  0  0  0  0  0
   -3.1795   -0.0797    1.9833 C   0  0  2  0  0  0  0  0  0  0  0  0
   -3.8827   -1.3826    1.6265 C   0  0  0  0  0  0  0  0  0  0  0  0
   -3.6465   -2.0124    0.5977 O   0  0  0  0  0  0  0  0  0  0  0  0
   -4.0522    1.1191    1.6459 C   0  0  0  0  0  0  0  0  0  0  0  0
   -1.8328   -0.6301    0.4450 H   0  0  0  0  0  0  0  0  0  0  0  0
   -2.9317   -0.0781    3.0504 H   0  0  0  0  0  0  0  0  0  0  0  0
   -4.3108    1.1345    0.5808 H   0  0  0  0  0  0  0  0  0  0  0  0
   -4.9887    1.1004    2.2130 H   0  0  0  0  0  0  0  0  0  0  0  0
   -3.5332    2.0560    1.8754 H   0  0  0  0  0  0  0  0  0  0  0  0
   -4.8360   -1.7368    2.5710 N   0  0  0  0  0  0  0  0  0  0  0  0
   -5.6468   -2.9261    2.4523 C   0  0  0  0  0  0  0  0  0  0  0  0
   -4.9515   -1.1655    3.4029 H   0  0  0  0  0  0  0  0  0  0  0  0
   -6.5894   -2.6784    1.9422 H   0  0  0  0  0  0  0  0  0  0  0  0
   -5.1028   -3.6840    1.8695 H   0  0  0  0  0  0  0  0  0  0  0  0
   -5.8658   -3.3220    3.4550 H   0  0  0  0  0  0  0  0  0  0  0  0
  1  3  1  0  0  0  0
  1  7  1  0  0  0  0
  1  2  2  0  0  0  0
 33 34  1  0  0  0  0
 34 42  1  0  0  0  0
 34 35  2  0  0  0  0
  8  9  1  0  0  0  0
  9 17  1  0  0  0  0
  9 10  2  0  0  0  0
 18 19  1  0  0  0  0
 19 32  1  0  0  0  0
 19 20  2  0  0  0  0
 22 23  1  0  0  0  0
 23 24  1  0  0  0  0
 23 25  2  0  0  0  0
 33 36  1  0  0  0  0
  8 11  1  0  0  0  0
 42 43  1  0  0  0  0
 21 22  1  0  0  0  0
 18 21  1  0  0  0  0
 32 33  1  0  0  0  0
  7  8  1  0  0  0  0
 17 18  1  0  0  0  0
  3  4  1  0  0  0  0
  3  5  1  0  0  0  0
  3  6  1  0  0  0  0
 36 39  1  0  0  0  0
 36 40  1  0  0  0  0
 36 41  1  0  0  0  0
 11 14  1  0  0  0  0
 11 15  1  0  0  0  0
 11 16  1  0  0  0  0
 43 45  1  0  0  0  0
 43 46  1  0  0  0  0
 43 47  1  0  0  0  0
 22 30  1  0  0  0  0
 22 31  1  0  0  0  0
 21 28  1  0  0  0  0
 21 29  1  0  0  0  0
 33 38  1  0  0  0  0
  8 13  1  0  0  0  0
 18 27  1  0  0  0  0
 42 44  1  0  0  0  0
  7 12  1  0  0  0  0
 32 37  1  0  0  0  0
 17 26  1  0  0  0  0
M  CHG  1  24  -1
M  END
$$$$

  -OEChem-05262214473D

 47 46  0     1  0  0  0  0  0999 V2000
    0.5093   -4.7265    3.0306 C   0  0  0  0  0  0  0  0  0  0  0  0
    1.2735   -4.4402    3.9448 O   0  0  0  0  0  0  0  0  0  0  0  0
   -0.4465   -5.8608    3.1982 C   0  0  0  0  0  0  0  0  0  0  0  0
   -0.0219   -6.8213    2.8645 H   0  0  0  0  0  0  0  0  0  0  0  0
   -0.7314   -6.0185    4.2509 H   0  0  0  0  0  0  0  0  0  0  0  0
   -1.3983   -5.7596    2.6527 H   0  0  0  0  0  0  0  0  0  0  0  0
    0.4252   -4.0886    1.8040 N   0  0  0  0  0  0  0  0  0  0  0  0
    1.2532   -2.9707    1.4349 C   0  0  2  0  0  0  0  0  0  0  0  0
    0.3395   -1.8293    1.0083 C   0  0  0  0  0  0  0  0  0  0  0  0
   -0.8136   -2.0027    0.6194 O   0  0  0  0  0  0  0  0  0  0  0  0
    2.2176   -3.3411    0.3189 C   0  0  0  0  0  0  0  0  0  0  0  0
   -0.2574   -4.4279    1.1287 H   0  0  0  0  0  0  0  0  0  0  0  0
    1.8087   -2.6785    2.3327 H   0  0  0  0  0  0  0  0  0  0  0  0
    1.6793   -3.6366   -0.5890 H   0  0  0  0  0  0  0  0  0  0  0  0
    2.8662   -2.4980    0.0589 H   0  0  0  0  0  0  0  0  0  0  0  0
    2.8538   -4.1816    0.6166 H   0  0  0  0  0  0  0  0  0  0  0  0
    0.9758   -0.5952    1.0708 N   0  0  0  0  0  0  0  0  0  0  0  0
    0.3258    0.6374    0.7059 C   0  0  2  0  0  0  0  0  0  0  0  0
   -0.8836    0.8060    1.6195 C   0  0  0  0  0  0  0  0  0  0  0  0
   -1.0059    1.7461    2.4021 O   0  0  0  0  0  0  0  0  0  0  0  0
   -0.1108    0.6428   -0.7640 C   0  0  0  0  0  0  0  0  0  0  0  0
    1.0593    0.6419   -1.7469 C   0  0  0  0  0  0  0  0  0  0  0  0
    0.6929    0.6232   -3.2346 C   0  0  0  0  0  0  0  0  0  0  0  0
   -0.5413    0.4702   -3.4644 O   0  5  0  0  0  0  0  0  0  0  0  0
    1.6458    0.7750   -4.0478 O   0  0  0  0  0  0  0  0  0  0  0  0
    1.9288   -0.5463    1.4242 H   0  0  0  0  0  0  0  0  0  0  0  0
    1.0391    1.4422    0.9138 H   0  0  0  0  0  0  0  0  0  0  0  0
   -0.7529    1.5101   -0.9617 H   0  0  0  0  0  0  0  0  0  0  0  0
   -0.7303   -0.2423   -0.9618 H   0  0  0  0  0  0  0  0  0  0  0  0
    1.7145    1.4988   -1.5495 H   0  0  0  0  0  0  0  0  0  0  0  0
    1.6610   -0.2582   -1.5675 H   0  0  0  0  0  0  0  0  0  0  0  0
   -1.7852   -0.2413    1.4901 N   0  0  0  0  0  0  0  0  0  0  0  0
   -3.0060   -0.3235    2.2581 C   0  0  2  0  0  0  0  0  0  0  0  0
   -3.4989   -1.7635    2.2050 C   0  0  0  0  0  0  0  0  0  0  0  0
   -3.1789   -2.5497    1.3159 O   0  0  0  0  0  0  0  0  0  0  0  0
   -4.0613    0.6323    1.7237 C   0  0  0  0  0  0  0  0  0  0  0  0
   -1.6085   -0.9698    0.8048 H   0  0  0  0  0  0  0  0  0  0  0  0
   -2.7483   -0.0628    3.2904 H   0  0  0  0  0  0  0  0  0  0  0  0
   -4.3323    0.3868    0.6904 H   0  0  0  0  0  0  0  0  0  0  0  0
   -4.9759    0.5895    2.3243 H   0  0  0  0  0  0  0  0  0  0  0  0
   -3.6940    1.6641    1.7348 H   0  0  0  0  0  0  0  0  0  0  0  0
   -4.3723   -2.0547    3.2435 N   0  0  0  0  0  0  0  0  0  0  0  0
   -4.9864   -3.3519    3.4051 C   0  0  0  0  0  0  0  0  0  0  0  0
   -4.5663   -1.3476    3.9464 H   0  0  0  0  0  0  0  0  0  0  0  0
   -5.9626   -3.3618    2.8981 H   0  0  0  0  0  0  0  0  0  0  0  0
   -4.3368   -4.1225    2.9646 H   0  0  0  0  0  0  0  0  0  0  0  0
   -5.1276   -3.5598    4.4761 H   0  0  0  0  0  0  0  0  0  0  0  0
  1  3  1  0  0  0  0
  1  7  1  0  0  0  0
  1  2  2  0  0  0  0
 33 34  1  0  0  0  0
 34 42  1  0  0  0  0
 34 35  2  0  0  0  0
  8  9  1  0  0  0  0
  9 17  1  0  0  0  0
  9 10  2  0  0  0  0
 18 19  1  0  0  0  0
 19 32  1  0  0  0  0
 19 20  2  0  0  0  0
 22 23  1  0  0  0  0
 23 24  1  0  0  0  0
 23 25  2  0  0  0  0
 33 36  1  0  0  0  0
  8 11  1  0  0  0  0
 42 43  1  0  0  0  0
 21 22  1  0  0  0  0
 18 21  1  0  0  0  0
 32 33  1  0  0  0  0
  7  8  1  0  0  0  0
 17 18  1  0  0  0  0
  3  4  1  0  0  0  0
  3  5  1  0  0  0  0
  3  6  1  0  0  0  0
 36 39  1  0  0  0  0
 36 40  1  0  0  0  0
 36 41  1  0  0  0  0
 11 14  1  0  0  0  0
 11 15  1  0  0  0  0
 11 16  1  0  0  0  0
 43 45  1  0  0  0  0
 43 46  1  0  0  0  0
 43 47  1  0  0  0  0
 22 30  1  0  0  0  0
 22 31  1  0  0  0  0
 21 28  1  0  0  0  0
 21 29  1  0  0  0  0
 33 38  1  0  0  0  0
  8 13  1  0  0  0  0
 18 27  1  0  0  0  0
 42 44  1  0  0  0  0
  7 12  1  0  0  0  0
 32 37  1  0  0  0  0
 17 26  1  0  0  0  0
M  CHG  1  24  -1
M  END
$$$$

  -OEChem-05262214473D

 47 46  0     1  0  0  0  0  0999 V2000
    0.5093   -4.7265    3.0306 C   0  0  0  0  0  0  0  0  0  0  0  0
    1.2735   -4.4402    3.9448 O   0  0  0  0  0  0  0  0  0  0  0  0
   -0.4465   -5.8608    3.1982 C   0  0  0  0  0  0  0  0  0  0  0  0
   -0.0219   -6.8213    2.8645 H   0  0  0  0  0  0  0  0  0  0  0  0
   -0.7314   -6.0185    4.2509 H   0  0  0  0  0  0  0  0  0  0  0  0
   -1.3983   -5.7596    2.6527 H   0  0  0  0  0  0  0  0  0  0  0  0
    0.4252   -4.0886    1.8040 N   0  0  0  0  0  0  0  0  0  0  0  0
    1.2532   -2.9707    1.4349 C   0  0  2  0  0  0  0  0  0  0  0  0
    0.3395   -1.8293    1.0083 C   0  0  0  0  0  0  0  0  0  0  0  0
   -0.8136   -2.0027    0.6194 O   0  0  0  0  0  0  0  0  0  0  0  0
    2.2176   -3.3411    0.3189 C   0  0  0  0  0  0  0  0  0  0  0  0
   -0.2574   -4.4279    1.1287 H   0  0  0  0  0  0  0  0  0  0  0  0
    1.8087   -2.6785    2.3327 H   0  0  0  0  0  0  0  0  0  0  0  0
    1.6793   -3.6366   -0.5890 H   0  0  0  0  0  0  0  0  0  0  0  0
    2.8662   -2.4980    0.0589 H   0  0  0  0  0  0  0  0  0  0  0  0
    2.8538   -4.1816    0.6166 H   0  0  0  0  0  0  0  0  0  0  0  0
    0.9758   -0.5952    1.0708 N   0  0  0  0  0  0  0  0  0  0  0  0
    0.3258    0.6374    0.7059 C   0  0  2  0  0  0  0  0  0  0  0  0
   -0.8836    0.8060    1.6195 C   0  0  0  0  0  0  0  0  0  0  0  0
   -1.1432    1.8583    2.1997 O   0  0  0  0  0  0  0  0  0  0  0  0
   -0.1108    0.6428   -0.7640 C   0  0  0  0  0  0  0  0  0  0  0  0
    1.0593    0.6419   -1.7469 C   0  0  0  0  0  0  0  0  0  0  0  0
    0.6929    0.6232   -3.2346 C   0  0  0  0  0  0  0  0  0  0  0  0
   -0.5413    0.4702   -3.4644 O   0  5  0  0  0  0  0  0  0  0  0  0
    1.6458    0.7750   -4.0478 O   0  0  0  0  0  0  0  0  0  0  0  0
    1.9288   -0.5463    1.4242 H   0  0  0  0  0  0  0  0  0  0  0  0
    1.0391    1.4422    0.9138 H   0  0  0  0  0  0  0  0  0  0  0  0
   -0.7529    1.5101   -0.9617 H   0  0  0  0  0  0  0  0  0  0  0  0
   -0.7303   -0.2423   -0.9618 H   0  0  0  0  0  0  0  0  0  0  0  0
    1.7145    1.4988   -1.5495 H   0  0  0  0  0  0  0  0  0  0  0  0
    1.6610   -0.2582   -1.5675 H   0  0  0  0  0  0  0  0  0  0  0  0
   -1.6099   -0.3700    1.7459 N   0  0  0  0  0  0  0  0  0  0  0  0
   -2.7927   -0.4757    2.5685 C   0  0  2  0  0  0  0  0  0  0  0  0
   -3.0524   -1.9532    2.8310 C   0  0  0  0  0  0  0  0  0  0  0  0
   -2.6233   -2.8488    2.1066 O   0  0  0  0  0  0  0  0  0  0  0  0
   -3.9924    0.1765    1.8991 C   0  0  0  0  0  0  0  0  0  0  0  0
   -1.3288   -1.1893    1.2155 H   0  0  0  0  0  0  0  0  0  0  0  0
   -2.5667    0.0296    3.5138 H   0  0  0  0  0  0  0  0  0  0  0  0
   -4.2340   -0.3163    0.9503 H   0  0  0  0  0  0  0  0  0  0  0  0
   -4.8812    0.1207    2.5362 H   0  0  0  0  0  0  0  0  0  0  0  0
   -3.7927    1.2318    1.6840 H   0  0  0  0  0  0  0  0  0  0  0  0
   -3.8559   -2.1519    3.9451 N   0  0  0  0  0  0  0  0  0  0  0  0
   -4.2553   -3.4653    4.3940 C   0  0  0  0  0  0  0  0  0  0  0  0
   -4.1504   -1.3523    4.4978 H   0  0  0  0  0  0  0  0  0  0  0  0
   -5.2238   -3.7285    3.9438 H   0  0  0  0  0  0  0  0  0  0  0  0
   -3.4975   -4.2026    4.0904 H   0  0  0  0  0  0  0  0  0  0  0  0
   -4.3484   -3.4654    5.4901 H   0  0  0  0  0  0  0  0  0  0  0  0
  1  3  1  0  0  0  0
  1  7  1  0  0  0  0
  1  2  2  0  0  0  0
 33 34  1  0  0  0  0
 34 42  1  0  0  0  0
 34 35  2  0  0  0  0
  8  9  1  0  0  0  0
  9 17  1  0  0  0  0
  9 10  2  0  0  0  0
 18 19  1  0  0  0  0
 19 32  1  0  0  0  0
 19 20  2  0  0  0  0
 22 23  1  0  0  0  0
 23 24  1  0  0  0  0
 23 25  2  0  0  0  0
 33 36  1  0  0  0  0
  8 11  1  0  0  0  0
 42 43  1  0  0  0  0
 21 22  1  0  0  0  0
 18 21  1  0  0  0  0
 32 33  1  0  0  0  0
  7  8  1  0  0  0  0
 17 18  1  0  0  0  0
  3  4  1  0  0  0  0
  3  5  1  0  0  0  0
  3  6  1  0  0  0  0
 36 39  1  0  0  0  0
 36 40  1  0  0  0  0
 36 41  1  0  0  0  0
 11 14  1  0  0  0  0
 11 15  1  0  0  0  0
 11 16  1  0  0  0  0
 43 45  1  0  0  0  0
 43 46  1  0  0  0  0
 43 47  1  0  0  0  0
 22 30  1  0  0  0  0
 22 31  1  0  0  0  0
 21 28  1  0  0  0  0
 21 29  1  0  0  0  0
 33 38  1  0  0  0  0
  8 13  1  0  0  0  0
 18 27  1  0  0  0  0
 42 44  1  0  0  0  0
  7 12  1  0  0  0  0
 32 37  1  0  0  0  0
 17 26  1  0  0  0  0
M  CHG  1  24  -1
M  END
$$$$

  -OEChem-05262214473D

 47 46  0     1  0  0  0  0  0999 V2000
    0.5093   -4.7265    3.0306 C   0  0  0  0  0  0  0  0  0  0  0  0
    1.2735   -4.4402    3.9448 O   0  0  0  0  0  0  0  0  0  0  0  0
   -0.4465   -5.8608    3.1982 C   0  0  0  0  0  0  0  0  0  0  0  0
   -0.0219   -6.8213    2.8645 H   0  0  0  0  0  0  0  0  0  0  0  0
   -0.7314   -6.0185    4.2509 H   0  0  0  0  0  0  0  0  0  0  0  0
   -1.3983   -5.7596    2.6527 H   0  0  0  0  0  0  0  0  0  0  0  0
    0.4252   -4.0886    1.8040 N   0  0  0  0  0  0  0  0  0  0  0  0
    1.2532   -2.9707    1.4349 C   0  0  2  0  0  0  0  0  0  0  0  0
    0.3395   -1.8293    1.0083 C   0  0  0  0  0  0  0  0  0  0  0  0
   -0.8136   -2.0027    0.6194 O   0  0  0  0  0  0  0  0  0  0  0  0
    2.2176   -3.3411    0.3189 C   0  0  0  0  0  0  0  0  0  0  0  0
   -0.2574   -4.4279    1.1287 H   0  0  0  0  0  0  0  0  0  0  0  0
    1.8087   -2.6785    2.3327 H   0  0  0  0  0  0  0  0  0  0  0  0
    1.6793   -3.6366   -0.5890 H   0  0  0  0  0  0  0  0  0  0  0  0
    2.8662   -2.4980    0.0589 H   0  0  0  0  0  0  0  0  0  0  0  0
    2.8538   -4.1816    0.6166 H   0  0  0  0  0  0  0  0  0  0  0  0
    0.9758   -0.5952    1.0708 N   0  0  0  0  0  0  0  0  0  0  0  0
    0.3258    0.6374    0.7059 C   0  0  2  0  0  0  0  0  0  0  0  0
   -0.8836    0.8060    1.6195 C   0  0  0  0  0  0  0  0  0  0  0  0
   -1.2990    1.9038    1.9850 O   0  0  0  0  0  0  0  0  0  0  0  0
   -0.1108    0.6428   -0.7640 C   0  0  0  0  0  0  0  0  0  0  0  0
    1.0593    0.6419   -1.7469 C   0  0  0  0  0  0  0  0  0  0  0  0
    0.6929    0.6232   -3.2346 C   0  0  0  0  0  0  0  0  0  0  0  0
   -0.5413    0.4702   -3.4644 O   0  5  0  0  0  0  0  0  0  0  0  0
    1.6458    0.7750   -4.0478 O   0  0  0  0  0  0  0  0  0  0  0  0
    1.9288   -0.5463    1.4242 H   0  0  0  0  0  0  0  0  0  0  0  0
    1.0391    1.4422    0.9138 H   0  0  0  0  0  0  0  0  0  0  0  0
   -0.7529    1.5101   -0.9617 H   0  0  0  0  0  0  0  0  0  0  0  0
   -0.7303   -0.2423   -0.9618 H   0  0  0  0  0  0  0  0  0  0  0  0
    1.7145    1.4988   -1.5495 H   0  0  0  0  0  0  0  0  0  0  0  0
    1.6610   -0.2582   -1.5675 H   0  0  0  0  0  0  0  0  0  0  0  0
   -1.4133   -0.4146    2.0144 N   0  0  0  0  0  0  0  0  0  0  0  0
   -2.5542   -0.5259    2.8935 C   0  0  2  0  0  0  0  0  0  0  0  0
   -2.5739   -1.9387    3.4619 C   0  0  0  0  0  0  0  0  0  0  0  0
   -2.0176   -2.8892    2.9158 O   0  0  0  0  0  0  0  0  0  0  0  0
   -3.8501   -0.2170    2.1600 C   0  0  0  0  0  0  0  0  0  0  0  0
   -1.0128   -1.2737    1.6493 H   0  0  0  0  0  0  0  0  0  0  0  0
   -2.3991    0.1929    3.7054 H   0  0  0  0  0  0  0  0  0  0  0  0
   -4.0225   -0.9268    1.3428 H   0  0  0  0  0  0  0  0  0  0  0  0
   -4.7109   -0.2738    2.8344 H   0  0  0  0  0  0  0  0  0  0  0  0
   -3.8224    0.7886    1.7265 H   0  0  0  0  0  0  0  0  0  0  0  0
   -3.3219   -2.0218    4.6279 N   0  0  0  0  0  0  0  0  0  0  0  0
   -3.5031   -3.2585    5.3515 C   0  0  0  0  0  0  0  0  0  0  0  0
   -3.7323   -1.1791    5.0194 H   0  0  0  0  0  0  0  0  0  0  0  0
   -4.4234   -3.7535    5.0080 H   0  0  0  0  0  0  0  0  0  0  0  0
   -2.6422   -3.9187    5.1703 H   0  0  0  0  0  0  0  0  0  0  0  0
   -3.5815   -3.0453    6.4278 H   0  0  0  0  0  0  0  0  0  0  0  0
  1  3  1  0  0  0  0
  1  7  1  0  0  0  0
  1  2  2  0  0  0  0
 33 34  1  0  0  0  0
 34 42  1  0  0  0  0
 34 35  2  0  0  0  0
  8  9  1  0  0  0  0
  9 17  1  0  0  0  0
  9 10  2  0  0  0  0
 18 19  1  0  0  0  0
 19 32  1  0  0  0  0
 19 20  2  0  0  0  0
 22 23  1  0  0  0  0
 23 24  1  0  0  0  0
 23 25  2  0  0  0  0
 33 36  1  0  0  0  0
  8 11  1  0  0  0  0
 42 43  1  0  0  0  0
 21 22  1  0  0  0  0
 18 21  1  0  0  0  0
 32 33  1  0  0  0  0
  7  8  1  0  0  0  0
 17 18  1  0  0  0  0
  3  4  1  0  0  0  0
  3  5  1  0  0  0  0
  3  6  1  0  0  0  0
 36 39  1  0  0  0  0
 36 40  1  0  0  0  0
 36 41  1  0  0  0  0
 11 14  1  0  0  0  0
 11 15  1  0  0  0  0
 11 16  1  0  0  0  0
 43 45  1  0  0  0  0
 43 46  1  0  0  0  0
 43 47  1  0  0  0  0
 22 30  1  0  0  0  0
 22 31  1  0  0  0  0
 21 28  1  0  0  0  0
 21 29  1  0  0  0  0
 33 38  1  0  0  0  0
  8 13  1  0  0  0  0
 18 27  1  0  0  0  0
 42 44  1  0  0  0  0
  7 12  1  0  0  0  0
 32 37  1  0  0  0  0
 17 26  1  0  0  0  0
M  CHG  1  24  -1
M  END
$$$$

  -OEChem-05262214473D

 47 46  0     1  0  0  0  0  0999 V2000
    0.5093   -4.7265    3.0306 C   0  0  0  0  0  0  0  0  0  0  0  0
    1.2735   -4.4402    3.9448 O   0  0  0  0  0  0  0  0  0  0  0  0
   -0.4465   -5.8608    3.1982 C   0  0  0  0  0  0  0  0  0  0  0  0
   -0.0219   -6.8213    2.8645 H   0  0  0  0  0  0  0  0  0  0  0  0
   -0.7314   -6.0185    4.2509 H   0  0  0  0  0  0  0  0  0  0  0  0
   -1.3983   -5.7596    2.6527 H   0  0  0  0  0  0  0  0  0  0  0  0
    0.4252   -4.0886    1.8040 N   0  0  0  0  0  0  0  0  0  0  0  0
    1.2532   -2.9707    1.4349 C   0  0  2  0  0  0  0  0  0  0  0  0
    0.3395   -1.8293    1.0083 C   0  0  0  0  0  0  0  0  0  0  0  0
   -0.8136   -2.0027    0.6194 O   0  0  0  0  0  0  0  0  0  0  0  0
    2.2176   -3.3411    0.3189 C   0  0  0  0  0  0  0  0  0  0  0  0
   -0.2574   -4.4279    1.1287 H   0  0  0  0  0  0  0  0  0  0  0  0
    1.8087   -2.6785    2.3327 H   0  0  0  0  0  0  0  0  0  0  0  0
    1.6793   -3.6366   -0.5890 H   0  0  0  0  0  0  0  0  0  0  0  0
    2.8662   -2.4980    0.0589 H   0  0  0  0  0  0  0  0  0  0  0  0
    2.8538   -4.1816    0.6166 H   0  0  0  0  0  0  0  0  0  0  0  0
    0.9758   -0.5952    1.0708 N   0  0  0  0  0  0  0  0  0  0  0  0
    0.3258    0.6374    0.7059 C   0  0  2  0  0  0  0  0  0  0  0  0
   -0.8836    0.8060    1.6195 C   0  0  0  0  0  0  0  0  0  0  0  0
   -1.4627    1.8795    1.7728 O   0  0  0  0  0  0  0  0  0  0  0  0
   -0.1108    0.6428   -0.7640 C   0  0  0  0  0  0  0  0  0  0  0  0
    1.0593    0.6419   -1.7469 C   0  0  0  0  0  0  0  0  0  0  0  0
    0.6929    0.6232   -3.2346 C   0  0  0  0  0  0  0  0  0  0  0  0
   -0.5413    0.4702   -3.4644 O   0  5  0  0  0  0  0  0  0  0  0  0
    1.6458    0.7750   -4.0478 O   0  0  0  0  0  0  0  0  0  0  0  0
    1.9288   -0.5463    1.4242 H   0  0  0  0  0  0  0  0  0  0  0  0
    1.0391    1.4422    0.9138 H   0  0  0  0  0  0  0  0  0  0  0  0
   -0.7529    1.5101   -0.9617 H   0  0  0  0  0  0  0  0  0  0  0  0
   -0.7303   -0.2423   -0.9618 H   0  0  0  0  0  0  0  0  0  0  0  0
    1.7145    1.4988   -1.5495 H   0  0  0  0  0  0  0  0  0  0  0  0
    1.6610   -0.2582   -1.5675 H   0  0  0  0  0  0  0  0  0  0  0  0
   -1.2088   -0.3721    2.2773 N   0  0  0  0  0  0  0  0  0  0  0  0
   -2.3068   -0.4707    3.2109 C   0  0  2  0  0  0  0  0  0  0  0  0
   -2.0959   -1.7210    4.0545 C   0  0  0  0  0  0  0  0  0  0  0  0
   -1.4032   -2.6683    3.6884 O   0  0  0  0  0  0  0  0  0  0  0  0
   -3.6442   -0.5214    2.4888 C   0  0  0  0  0  0  0  0  0  0  0  0
   -0.6822   -1.2171    2.0766 H   0  0  0  0  0  0  0  0  0  0  0  0
   -2.2571    0.4160    3.8522 H   0  0  0  0  0  0  0  0  0  0  0  0
   -3.7124   -1.4032    1.8413 H   0  0  0  0  0  0  0  0  0  0  0  0
   -4.4768   -0.5674    3.1986 H   0  0  0  0  0  0  0  0  0  0  0  0
   -3.7811    0.3645    1.8594 H   0  0  0  0  0  0  0  0  0  0  0  0
   -2.8068   -1.6731    5.2455 N   0  0  0  0  0  0  0  0  0  0  0  0
   -2.7813   -2.7456    6.2125 C   0  0  0  0  0  0  0  0  0  0  0  0
   -3.3403   -0.8399    5.4757 H   0  0  0  0  0  0  0  0  0  0  0  0
   -3.6160   -3.4352    6.0181 H   0  0  0  0  0  0  0  0  0  0  0  0
   -1.8291   -3.2903    6.1306 H   0  0  0  0  0  0  0  0  0  0  0  0
   -2.8789   -2.3281    7.2255 H   0  0  0  0  0  0  0  0  0  0  0  0
  1  3  1  0  0  0  0
  1  7  1  0  0  0  0
  1  2  2  0  0  0  0
 33 34  1  0  0  0  0
 34 42  1  0  0  0  0
 34 35  2  0  0  0  0
  8  9  1  0  0  0  0
  9 17  1  0  0  0  0
  9 10  2  0  0  0  0
 18 19  1  0  0  0  0
 19 32  1  0  0  0  0
 19 20  2  0  0  0  0
 22 23  1  0  0  0  0
 23 24  1  0  0  0  0
 23 25  2  0  0  0  0
 33 36  1  0  0  0  0
  8 11  1  0  0  0  0
 42 43  1  0  0  0  0
 21 22  1  0  0  0  0
 18 21  1  0  0  0  0
 32 33  1  0  0  0  0
  7  8  1  0  0  0  0
 17 18  1  0  0  0  0
  3  4  1  0  0  0  0
  3  5  1  0  0  0  0
  3  6  1  0  0  0  0
 36 39  1  0  0  0  0
 36 40  1  0  0  0  0
 36 41  1  0  0  0  0
 11 14  1  0  0  0  0
 11 15  1  0  0  0  0
 11 16  1  0  0  0  0
 43 45  1  0  0  0  0
 43 46  1  0  0  0  0
 43 47  1  0  0  0  0
 22 30  1  0  0  0  0
 22 31  1  0  0  0  0
 21 28  1  0  0  0  0
 21 29  1  0  0  0  0
 33 38  1  0  0  0  0
  8 13  1  0  0  0  0
 18 27  1  0  0  0  0
 42 44  1  0  0  0  0
  7 12  1  0  0  0  0
 32 37  1  0  0  0  0
 17 26  1  0  0  0  0
M  CHG  1  24  -1
M  END
$$$$

  -OEChem-05262214473D

 47 46  0     1  0  0  0  0  0999 V2000
    0.5093   -4.7265    3.0306 C   0  0  0  0  0  0  0  0  0  0  0  0
    1.2735   -4.4402    3.9448 O   0  0  0  0  0  0  0  0  0  0  0  0
   -0.4465   -5.8608    3.1982 C   0  0  0  0  0  0  0  0  0  0  0  0
   -0.0219   -6.8213    2.8645 H   0  0  0  0  0  0  0  0  0  0  0  0
   -0.7314   -6.0185    4.2509 H   0  0  0  0  0  0  0  0  0  0  0  0
   -1.3983   -5.7596    2.6527 H   0  0  0  0  0  0  0  0  0  0  0  0
    0.4252   -4.0886    1.8040 N   0  0  0  0  0  0  0  0  0  0  0  0
    1.2532   -2.9707    1.4349 C   0  0  2  0  0  0  0  0  0  0  0  0
    0.3395   -1.8293    1.0083 C   0  0  0  0  0  0  0  0  0  0  0  0
   -0.8136   -2.0027    0.6194 O   0  0  0  0  0  0  0  0  0  0  0  0
    2.2176   -3.3411    0.3189 C   0  0  0  0  0  0  0  0  0  0  0  0
   -0.2574   -4.4279    1.1287 H   0  0  0  0  0  0  0  0  0  0  0  0
    1.8087   -2.6785    2.3327 H   0  0  0  0  0  0  0  0  0  0  0  0
    1.6793   -3.6366   -0.5890 H   0  0  0  0  0  0  0  0  0  0  0  0
    2.8662   -2.4980    0.0589 H   0  0  0  0  0  0  0  0  0  0  0  0
    2.8538   -4.1816    0.6166 H   0  0  0  0  0  0  0  0  0  0  0  0
    0.9758   -0.5952    1.0708 N   0  0  0  0  0  0  0  0  0  0  0  0
    0.3258    0.6374    0.7059 C   0  0  2  0  0  0  0  0  0  0  0  0
   -0.8836    0.8060    1.6195 C   0  0  0  0  0  0  0  0  0  0  0  0
   -1.6231    1.7871    1.5775 O   0  0  0  0  0  0  0  0  0  0  0  0
   -0.1108    0.6428   -0.7640 C   0  0  0  0  0  0  0  0  0  0  0  0
    1.0593    0.6419   -1.7469 C   0  0  0  0  0  0  0  0  0  0  0  0
    0.6929    0.6232   -3.2346 C   0  0  0  0  0  0  0  0  0  0  0  0
   -0.5413    0.4702   -3.4644 O   0  5  0  0  0  0  0  0  0  0  0  0
    1.6458    0.7750   -4.0478 O   0  0  0  0  0  0  0  0  0  0  0  0
    1.9288   -0.5463    1.4242 H   0  0  0  0  0  0  0  0  0  0  0  0
    1.0391    1.4422    0.9138 H   0  0  0  0  0  0  0  0  0  0  0  0
   -0.7529    1.5101   -0.9617 H   0  0  0  0  0  0  0  0  0  0  0  0
   -0.7303   -0.2423   -0.9618 H   0  0  0  0  0  0  0  0  0  0  0  0
    1.7145    1.4988   -1.5495 H   0  0  0  0  0  0  0  0  0  0  0  0
    1.6610   -0.2582   -1.5675 H   0  0  0  0  0  0  0  0  0  0  0  0
   -1.0104   -0.2454    2.5166 N   0  0  0  0  0  0  0  0  0  0  0  0
   -2.0672   -0.3139    3.4990 C   0  0  2  0  0  0  0  0  0  0  0  0
   -1.6509   -1.3150    4.5686 C   0  0  0  0  0  0  0  0  0  0  0  0
   -0.8219   -2.2010    4.3718 O   0  0  0  0  0  0  0  0  0  0  0  0
   -3.3887   -0.7161    2.8630 C   0  0  0  0  0  0  0  0  0  0  0  0
   -0.3593   -1.0235    2.4683 H   0  0  0  0  0  0  0  0  0  0  0  0
   -2.1504    0.6836    3.9442 H   0  0  0  0  0  0  0  0  0  0  0  0
   -3.3248   -1.7130    2.4117 H   0  0  0  0  0  0  0  0  0  0  0  0
   -4.1947   -0.7398    3.6038 H   0  0  0  0  0  0  0  0  0  0  0  0
   -3.6717   -0.0115    2.0736 H   0  0  0  0  0  0  0  0  0  0  0  0
   -2.3456   -1.1296    5.7557 N   0  0  0  0  0  0  0  0  0  0  0  0
   -2.1389   -1.9615    6.9181 C   0  0  0  0  0  0  0  0  0  0  0  0
   -3.0012   -0.3579    5.8357 H   0  0  0  0  0  0  0  0  0  0  0  0
   -2.8565   -2.7951    6.9054 H   0  0  0  0  0  0  0  0  0  0  0  0
   -1.1137   -2.3601    6.9059 H   0  0  0  0  0  0  0  0  0  0  0  0
   -2.2887   -1.3628    7.8286 H   0  0  0  0  0  0  0  0  0  0  0  0
  1  3  1  0  0  0  0
  1  7  1  0  0  0  0
  1  2  2  0  0  0  0
 33 34  1  0  0  0  0
 34 42  1  0  0  0  0
 34 35  2  0  0  0  0
  8  9  1  0  0  0  0
  9 17  1  0  0  0  0
  9 10  2  0  0  0  0
 18 19  1  0  0  0  0
 19 32  1  0  0  0  0
 19 20  2  0  0  0  0
 22 23  1  0  0  0  0
 23 24  1  0  0  0  0
 23 25  2  0  0  0  0
 33 36  1  0  0  0  0
  8 11  1  0  0  0  0
 42 43  1  0  0  0  0
 21 22  1  0  0  0  0
 18 21  1  0  0  0  0
 32 33  1  0  0  0  0
  7  8  1  0  0  0  0
 17 18  1  0  0  0  0
  3  4  1  0  0  0  0
  3  5  1  0  0  0  0
  3  6  1  0  0  0  0
 36 39  1  0  0  0  0
 36 40  1  0  0  0  0
 36 41  1  0  0  0  0
 11 14  1  0  0  0  0
 11 15  1  0  0  0  0
 11 16  1  0  0  0  0
 43 45  1  0  0  0  0
 43 46  1  0  0  0  0
 43 47  1  0  0  0  0
 22 30  1  0  0  0  0
 22 31  1  0  0  0  0
 21 28  1  0  0  0  0
 21 29  1  0  0  0  0
 33 38  1  0  0  0  0
  8 13  1  0  0  0  0
 18 27  1  0  0  0  0
 42 44  1  0  0  0  0
  7 12  1  0  0  0  0
 32 37  1  0  0  0  0
 17 26  1  0  0  0  0
M  CHG  1  24  -1
M  END
$$$$

  -OEChem-05262214473D

 47 46  0     1  0  0  0  0  0999 V2000
    0.5093   -4.7265    3.0306 C   0  0  0  0  0  0  0  0  0  0  0  0
    1.2735   -4.4402    3.9448 O   0  0  0  0  0  0  0  0  0  0  0  0
   -0.4465   -5.8608    3.1982 C   0  0  0  0  0  0  0  0  0  0  0  0
   -0.0219   -6.8213    2.8645 H   0  0  0  0  0  0  0  0  0  0  0  0
   -0.7314   -6.0185    4.2509 H   0  0  0  0  0  0  0  0  0  0  0  0
   -1.3983   -5.7596    2.6527 H   0  0  0  0  0  0  0  0  0  0  0  0
    0.4252   -4.0886    1.8040 N   0  0  0  0  0  0  0  0  0  0  0  0
    1.2532   -2.9707    1.4349 C   0  0  2  0  0  0  0  0  0  0  0  0
    0.3395   -1.8293    1.0083 C   0  0  0  0  0  0  0  0  0  0  0  0
   -0.8136   -2.0027    0.6194 O   0  0  0  0  0  0  0  0  0  0  0  0
    2.2176   -3.3411    0.3189 C   0  0  0  0  0  0  0  0  0  0  0  0
   -0.2574   -4.4279    1.1287 H   0  0  0  0  0  0  0  0  0  0  0  0
    1.8087   -2.6785    2.3327 H   0  0  0  0  0  0  0  0  0  0  0  0
    1.6793   -3.6366   -0.5890 H   0  0  0  0  0  0  0  0  0  0  0  0
    2.8662   -2.4980    0.0589 H   0  0  0  0  0  0  0  0  0  0  0  0
    2.8538   -4.1816    0.6166 H   0  0  0  0  0  0  0  0  0  0  0  0
    0.9758   -0.5952    1.0708 N   0  0  0  0  0  0  0  0  0  0  0  0
    0.3258    0.6374    0.7059 C   0  0  2  0  0  0  0  0  0  0  0  0
   -0.8836    0.8060    1.6195 C   0  0  0  0  0  0  0  0  0  0  0  0
   -1.7694    1.6330    1.4124 O   0  0  0  0  0  0  0  0  0  0  0  0
   -0.1108    0.6428   -0.7640 C   0  0  0  0  0  0  0  0  0  0  0  0
    1.0593    0.6419   -1.7469 C   0  0  0  0  0  0  0  0  0  0  0  0
    0.6929    0.6232   -3.2346 C   0  0  0  0  0  0  0  0  0  0  0  0
   -0.5413    0.4702   -3.4644 O   0  5  0  0  0  0  0  0  0  0  0  0
    1.6458    0.7750   -4.0478 O   0  0  0  0  0  0  0  0  0  0  0  0
    1.9288   -0.5463    1.4242 H   0  0  0  0  0  0  0  0  0  0  0  0
    1.0391    1.4422    0.9138 H   0  0  0  0  0  0  0  0  0  0  0  0
   -0.7529    1.5101   -0.9617 H   0  0  0  0  0  0  0  0  0  0  0  0
   -0.7303   -0.2423   -0.9618 H   0  0  0  0  0  0  0  0  0  0  0  0
    1.7145    1.4988   -1.5495 H   0  0  0  0  0  0  0  0  0  0  0  0
    1.6610   -0.2582   -1.5675 H   0  0  0  0  0  0  0  0  0  0  0  0
   -0.8315   -0.0431    2.7161 N   0  0  0  0  0  0  0  0  0  0  0  0
   -1.8519   -0.0662    3.7383 C   0  0  2  0  0  0  0  0  0  0  0  0
   -1.2693   -0.7483    4.9691 C   0  0  0  0  0  0  0  0  0  0  0  0
   -0.3132   -1.5193    4.9193 O   0  0  0  0  0  0  0  0  0  0  0  0
   -3.1010   -0.7878    3.2570 C   0  0  0  0  0  0  0  0  0  0  0  0
   -0.0663   -0.7061    2.7976 H   0  0  0  0  0  0  0  0  0  0  0  0
   -2.0861    0.9774    3.9750 H   0  0  0  0  0  0  0  0  0  0  0  0
   -2.8860   -1.8350    3.0151 H   0  0  0  0  0  0  0  0  0  0  0  0
   -3.8838   -0.7795    4.0227 H   0  0  0  0  0  0  0  0  0  0  0  0
   -3.5017   -0.3137    2.3545 H   0  0  0  0  0  0  0  0  0  0  0  0
   -1.9698   -0.4285    6.1237 N   0  0  0  0  0  0  0  0  0  0  0  0
   -1.6198   -0.9597    7.4204 C   0  0  0  0  0  0  0  0  0  0  0  0
   -2.7380    0.2342    6.0747 H   0  0  0  0  0  0  0  0  0  0  0  0
   -2.1967   -1.8770    7.6093 H   0  0  0  0  0  0  0  0  0  0  0  0
   -0.5447   -1.1915    7.4435 H   0  0  0  0  0  0  0  0  0  0  0  0
   -1.8510   -0.2150    8.1962 H   0  0  0  0  0  0  0  0  0  0  0  0
  1  3  1  0  0  0  0
  1  7  1  0  0  0  0
  1  2  2  0  0  0  0
 33 34  1  0  0  0  0
 34 42  1  0  0  0  0
 34 35  2  0  0  0  0
  8  9  1  0  0  0  0
  9 17  1  0  0  0  0
  9 10  2  0  0  0  0
 18 19  1  0  0  0  0
 19 32  1  0  0  0  0
 19 20  2  0  0  0  0
 22 23  1  0  0  0  0
 23 24  1  0  0  0  0
 23 25  2  0  0  0  0
 33 36  1  0  0  0  0
  8 11  1  0  0  0  0
 42 43  1  0  0  0  0
 21 22  1  0  0  0  0
 18 21  1  0  0  0  0
 32 33  1  0  0  0  0
  7  8  1  0  0  0  0
 17 18  1  0  0  0  0
  3  4  1  0  0  0  0
  3  5  1  0  0  0  0
  3  6  1  0  0  0  0
 36 39  1  0  0  0  0
 36 40  1  0  0  0  0
 36 41  1  0  0  0  0
 11 14  1  0  0  0  0
 11 15  1  0  0  0  0
 11 16  1  0  0  0  0
 43 45  1  0  0  0  0
 43 46  1  0  0  0  0
 43 47  1  0  0  0  0
 22 30  1  0  0  0  0
 22 31  1  0  0  0  0
 21 28  1  0  0  0  0
 21 29  1  0  0  0  0
 33 38  1  0  0  0  0
  8 13  1  0  0  0  0
 18 27  1  0  0  0  0
 42 44  1  0  0  0  0
  7 12  1  0  0  0  0
 32 37  1  0  0  0  0
 17 26  1  0  0  0  0
M  CHG  1  24  -1
M  END
$$$$

  -OEChem-05262214473D

 47 46  0     1  0  0  0  0  0999 V2000
    0.5093   -4.7265    3.0306 C   0  0  0  0  0  0  0  0  0  0  0  0
    1.2735   -4.4402    3.9448 O   0  0  0  0  0  0  0  0  0  0  0  0
   -0.4465   -5.8608    3.1982 C   0  0  0  0  0  0  0  0  0  0  0  0
   -0.0219   -6.8213    2.8645 H   0  0  0  0  0  0  0  0  0  0  0  0
   -0.7314   -6.0185    4.2509 H   0  0  0  0  0  0  0  0  0  0  0  0
   -1.3983   -5.7596    2.6527 H   0  0  0  0  0  0  0  0  0  0  0  0
    0.4252   -4.0886    1.8040 N   0  0  0  0  0  0  0  0  0  0  0  0
    1.2532   -2.9707    1.4349 C   0  0  2  0  0  0  0  0  0  0  0  0
    0.3395   -1.8293    1.0083 C   0  0  0  0  0  0  0  0  0  0  0  0
   -0.8136   -2.0027    0.6194 O   0  0  0  0  0  0  0  0  0  0  0  0
    2.2176   -3.3411    0.3189 C   0  0  0  0  0  0  0  0  0  0  0  0
   -0.2574   -4.4279    1.1287 H   0  0  0  0  0  0  0  0  0  0  0  0
    1.8087   -2.6785    2.3327 H   0  0  0  0  0  0  0  0  0  0  0  0
    1.6793   -3.6366   -0.5890 H   0  0  0  0  0  0  0  0  0  0  0  0
    2.8662   -2.4980    0.0589 H   0  0  0  0  0  0  0  0  0  0  0  0
    2.8538   -4.1816    0.6166 H   0  0  0  0  0  0  0  0  0  0  0  0
    0.9758   -0.5952    1.0708 N   0  0  0  0  0  0  0  0  0  0  0  0
    0.3258    0.6374    0.7059 C   0  0  2  0  0  0  0  0  0  0  0  0
   -0.8836    0.8060    1.6195 C   0  0  0  0  0  0  0  0  0  0  0  0
   -1.8914    1.4275    1.2887 O   0  0  0  0  0  0  0  0  0  0  0  0
   -0.1108    0.6428   -0.7640 C   0  0  0  0  0  0  0  0  0  0  0  0
    1.0593    0.6419   -1.7469 C   0  0  0  0  0  0  0  0  0  0  0  0
    0.6929    0.6232   -3.2346 C   0  0  0  0  0  0  0  0  0  0  0  0
   -0.5413    0.4702   -3.4644 O   0  5  0  0  0  0  0  0  0  0  0  0
    1.6458    0.7750   -4.0478 O   0  0  0  0  0  0  0  0  0  0  0  0
    1.9288   -0.5463    1.4242 H   0  0  0  0  0  0  0  0  0  0  0  0
    1.0391    1.4422    0.9138 H   0  0  0  0  0  0  0  0  0  0  0  0
   -0.7529    1.5101   -0.9617 H   0  0  0  0  0  0  0  0  0  0  0  0
   -0.7303   -0.2423   -0.9618 H   0  0  0  0  0  0  0  0  0  0  0  0
    1.7145    1.4988   -1.5495 H   0  0  0  0  0  0  0  0  0  0  0  0
    1.6610   -0.2582   -1.5675 H   0  0  0  0  0  0  0  0  0  0  0  0
   -0.6843    0.2210    2.8622 N   0  0  0  0  0  0  0  0  0  0  0  0
   -1.6755    0.2556    3.9125 C   0  0  2  0  0  0  0  0  0  0  0  0
   -0.9772   -0.0596    5.2287 C   0  0  0  0  0  0  0  0  0  0  0  0
    0.0881   -0.6696    5.2937 O   0  0  0  0  0  0  0  0  0  0  0  0
   -2.8008   -0.7315    3.6442 C   0  0  0  0  0  0  0  0  0  0  0  0
    0.1770   -0.2864    3.0422 H   0  0  0  0  0  0  0  0  0  0  0  0
   -2.0687    1.2776    3.9426 H   0  0  0  0  0  0  0  0  0  0  0  0
   -2.4259   -1.7610    3.6104 H   0  0  0  0  0  0  0  0  0  0  0  0
   -3.5655   -0.6837    4.4264 H   0  0  0  0  0  0  0  0  0  0  0  0
   -3.2825   -0.5215    2.6831 H   0  0  0  0  0  0  0  0  0  0  0  0
   -1.7050    0.3826    6.3246 N   0  0  0  0  0  0  0  0  0  0  0  0
   -1.2593    0.1915    7.6851 C   0  0  0  0  0  0  0  0  0  0  0  0
   -2.5688    0.8960    6.1765 H   0  0  0  0  0  0  0  0  0  0  0  0
   -1.6816   -0.7434    8.0820 H   0  0  0  0  0  0  0  0  0  0  0  0
   -0.1609    0.1358    7.7065 H   0  0  0  0  0  0  0  0  0  0  0  0
   -1.5957    1.0370    8.3031 H   0  0  0  0  0  0  0  0  0  0  0  0
  1  3  1  0  0  0  0
  1  7  1  0  0  0  0
  1  2  2  0  0  0  0
 33 34  1  0  0  0  0
 34 42  1  0  0  0  0
 34 35  2  0  0  0  0
  8  9  1  0  0  0  0
  9 17  1  0  0  0  0
  9 10  2  0  0  0  0
 18 19  1  0  0  0  0
 19 32  1  0  0  0  0
 19 20  2  0  0  0  0
 22 23  1  0  0  0  0
 23 24  1  0  0  0  0
 23 25  2  0  0  0  0
 33 36  1  0  0  0  0
  8 11  1  0  0  0  0
 42 43  1  0  0  0  0
 21 22  1  0  0  0  0
 18 21  1  0  0  0  0
 32 33  1  0  0  0  0
  7  8  1  0  0  0  0
 17 18  1  0  0  0  0
  3  4  1  0  0  0  0
  3  5  1  0  0  0  0
  3  6  1  0  0  0  0
 36 39  1  0  0  0  0
 36 40  1  0  0  0  0
 36 41  1  0  0  0  0
 11 14  1  0  0  0  0
 11 15  1  0  0  0  0
 11 16  1  0  0  0  0
 43 45  1  0  0  0  0
 43 46  1  0  0  0  0
 43 47  1  0  0  0  0
 22 30  1  0  0  0  0
 22 31  1  0  0  0  0
 21 28  1  0  0  0  0
 21 29  1  0  0  0  0
 33 38  1  0  0  0  0
  8 13  1  0  0  0  0
 18 27  1  0  0  0  0
 42 44  1  0  0  0  0
  7 12  1  0  0  0  0
 32 37  1  0  0  0  0
 17 26  1  0  0  0  0
M  CHG  1  24  -1
M  END
$$$$

  -OEChem-05262214473D

 47 46  0     1  0  0  0  0  0999 V2000
    0.5093   -4.7265    3.0306 C   0  0  0  0  0  0  0  0  0  0  0  0
    1.2735   -4.4402    3.9448 O   0  0  0  0  0  0  0  0  0  0  0  0
   -0.4465   -5.8608    3.1982 C   0  0  0  0  0  0  0  0  0  0  0  0
   -0.0219   -6.8213    2.8645 H   0  0  0  0  0  0  0  0  0  0  0  0
   -0.7314   -6.0185    4.2509 H   0  0  0  0  0  0  0  0  0  0  0  0
   -1.3983   -5.7596    2.6527 H   0  0  0  0  0  0  0  0  0  0  0  0
    0.4252   -4.0886    1.8040 N   0  0  0  0  0  0  0  0  0  0  0  0
    1.2532   -2.9707    1.4349 C   0  0  2  0  0  0  0  0  0  0  0  0
    0.3395   -1.8293    1.0083 C   0  0  0  0  0  0  0  0  0  0  0  0
   -0.8136   -2.0027    0.6194 O   0  0  0  0  0  0  0  0  0  0  0  0
    2.2176   -3.3411    0.3189 C   0  0  0  0  0  0  0  0  0  0  0  0
   -0.2574   -4.4279    1.1287 H   0  0  0  0  0  0  0  0  0  0  0  0
    1.8087   -2.6785    2.3327 H   0  0  0  0  0  0  0  0  0  0  0  0
    1.6793   -3.6366   -0.5890 H   0  0  0  0  0  0  0  0  0  0  0  0
    2.8662   -2.4980    0.0589 H   0  0  0  0  0  0  0  0  0  0  0  0
    2.8538   -4.1816    0.6166 H   0  0  0  0  0  0  0  0  0  0  0  0
    0.9758   -0.5952    1.0708 N   0  0  0  0  0  0  0  0  0  0  0  0
    0.3258    0.6374    0.7059 C   0  0  2  0  0  0  0  0  0  0  0  0
   -0.8836    0.8060    1.6195 C   0  0  0  0  0  0  0  0  0  0  0  0
   -1.9810    1.1847    1.2149 O   0  0  0  0  0  0  0  0  0  0  0  0
   -0.1108    0.6428   -0.7640 C   0  0  0  0  0  0  0  0  0  0  0  0
    1.0593    0.6419   -1.7469 C   0  0  0  0  0  0  0  0  0  0  0  0
    0.6929    0.6232   -3.2346 C   0  0  0  0  0  0  0  0  0  0  0  0
   -0.5413    0.4702   -3.4644 O   0  5  0  0  0  0  0  0  0  0  0  0
    1.6458    0.7750   -4.0478 O   0  0  0  0  0  0  0  0  0  0  0  0
    1.9288   -0.5463    1.4242 H   0  0  0  0  0  0  0  0  0  0  0  0
    1.0391    1.4422    0.9138 H   0  0  0  0  0  0  0  0  0  0  0  0
   -0.7529    1.5101   -0.9617 H   0  0  0  0  0  0  0  0  0  0  0  0
   -0.7303   -0.2423   -0.9618 H   0  0  0  0  0  0  0  0  0  0  0  0
    1.7145    1.4988   -1.5495 H   0  0  0  0  0  0  0  0  0  0  0  0
    1.6610   -0.2582   -1.5675 H   0  0  0  0  0  0  0  0  0  0  0  0
   -0.5789    0.5288    2.9449 N   0  0  0  0  0  0  0  0  0  0  0  0
   -1.5500    0.6296    4.0096 C   0  0  2  0  0  0  0  0  0  0  0  0
   -0.7943    0.7043    5.3298 C   0  0  0  0  0  0  0  0  0  0  0  0
    0.3547    0.2903    5.4694 O   0  0  0  0  0  0  0  0  0  0  0  0
   -2.5084   -0.5511    3.9979 C   0  0  0  0  0  0  0  0  0  0  0  0
    0.3539    0.2068    3.1854 H   0  0  0  0  0  0  0  0  0  0  0  0
   -2.0994    1.5636    3.8492 H   0  0  0  0  0  0  0  0  0  0  0  0
   -1.9760   -1.4960    4.1571 H   0  0  0  0  0  0  0  0  0  0  0  0
   -3.2612   -0.4589    4.7877 H   0  0  0  0  0  0  0  0  0  0  0  0
   -3.0291   -0.6209    3.0368 H   0  0  0  0  0  0  0  0  0  0  0  0
   -1.5692    1.2483    6.3446 N   0  0  0  0  0  0  0  0  0  0  0  0
   -1.0820    1.4138    7.6941 C   0  0  0  0  0  0  0  0  0  0  0  0
   -2.5051    1.5824    6.1342 H   0  0  0  0  0  0  0  0  0  0  0  0
   -1.3463    0.5284    8.2911 H   0  0  0  0  0  0  0  0  0  0  0  0
    0.0115    1.5313    7.6772 H   0  0  0  0  0  0  0  0  0  0  0  0
   -1.5401    2.3079    8.1421 H   0  0  0  0  0  0  0  0  0  0  0  0
  1  3  1  0  0  0  0
  1  7  1  0  0  0  0
  1  2  2  0  0  0  0
 33 34  1  0  0  0  0
 34 42  1  0  0  0  0
 34 35  2  0  0  0  0
  8  9  1  0  0  0  0
  9 17  1  0  0  0  0
  9 10  2  0  0  0  0
 18 19  1  0  0  0  0
 19 32  1  0  0  0  0
 19 20  2  0  0  0  0
 22 23  1  0  0  0  0
 23 24  1  0  0  0  0
 23 25  2  0  0  0  0
 33 36  1  0  0  0  0
  8 11  1  0  0  0  0
 42 43  1  0  0  0  0
 21 22  1  0  0  0  0
 18 21  1  0  0  0  0
 32 33  1  0  0  0  0
  7  8  1  0  0  0  0
 17 18  1  0  0  0  0
  3  4  1  0  0  0  0
  3  5  1  0  0  0  0
  3  6  1  0  0  0  0
 36 39  1  0  0  0  0
 36 40  1  0  0  0  0
 36 41  1  0  0  0  0
 11 14  1  0  0  0  0
 11 15  1  0  0  0  0
 11 16  1  0  0  0  0
 43 45  1  0  0  0  0
 43 46  1  0  0  0  0
 43 47  1  0  0  0  0
 22 30  1  0  0  0  0
 22 31  1  0  0  0  0
 21 28  1  0  0  0  0
 21 29  1  0  0  0  0
 33 38  1  0  0  0  0
  8 13  1  0  0  0  0
 18 27  1  0  0  0  0
 42 44  1  0  0  0  0
  7 12  1  0  0  0  0
 32 37  1  0  0  0  0
 17 26  1  0  0  0  0
M  CHG  1  24  -1
M  END
$$$$

  -OEChem-05262214473D

 47 46  0     1  0  0  0  0  0999 V2000
    0.5093   -4.7265    3.0306 C   0  0  0  0  0  0  0  0  0  0  0  0
    1.2735   -4.4402    3.9448 O   0  0  0  0  0  0  0  0  0  0  0  0
   -0.4465   -5.8608    3.1982 C   0  0  0  0  0  0  0  0  0  0  0  0
   -0.0219   -6.8213    2.8645 H   0  0  0  0  0  0  0  0  0  0  0  0
   -0.7314   -6.0185    4.2509 H   0  0  0  0  0  0  0  0  0  0  0  0
   -1.3983   -5.7596    2.6527 H   0  0  0  0  0  0  0  0  0  0  0  0
    0.4252   -4.0886    1.8040 N   0  0  0  0  0  0  0  0  0  0  0  0
    1.2532   -2.9707    1.4349 C   0  0  2  0  0  0  0  0  0  0  0  0
    0.3395   -1.8293    1.0083 C   0  0  0  0  0  0  0  0  0  0  0  0
   -0.8136   -2.0027    0.6194 O   0  0  0  0  0  0  0  0  0  0  0  0
    2.2176   -3.3411    0.3189 C   0  0  0  0  0  0  0  0  0  0  0  0
   -0.2574   -4.4279    1.1287 H   0  0  0  0  0  0  0  0  0  0  0  0
    1.8087   -2.6785    2.3327 H   0  0  0  0  0  0  0  0  0  0  0  0
    1.6793   -3.6366   -0.5890 H   0  0  0  0  0  0  0  0  0  0  0  0
    2.8662   -2.4980    0.0589 H   0  0  0  0  0  0  0  0  0  0  0  0
    2.8538   -4.1816    0.6166 H   0  0  0  0  0  0  0  0  0  0  0  0
    0.9758   -0.5952    1.0708 N   0  0  0  0  0  0  0  0  0  0  0  0
    0.3258    0.6374    0.7059 C   0  0  2  0  0  0  0  0  0  0  0  0
   -0.8836    0.8060    1.6195 C   0  0  0  0  0  0  0  0  0  0  0  0
   -2.0320    0.9211    1.1961 O   0  0  0  0  0  0  0  0  0  0  0  0
   -0.1108    0.6428   -0.7640 C   0  0  0  0  0  0  0  0  0  0  0  0
    1.0593    0.6419   -1.7469 C   0  0  0  0  0  0  0  0  0  0  0  0
    0.6929    0.6232   -3.2346 C   0  0  0  0  0  0  0  0  0  0  0  0
   -0.5413    0.4702   -3.4644 O   0  5  0  0  0  0  0  0  0  0  0  0
    1.6458    0.7750   -4.0478 O   0  0  0  0  0  0  0  0  0  0  0  0
    1.9288   -0.5463    1.4242 H   0  0  0  0  0  0  0  0  0  0  0  0
    1.0391    1.4422    0.9138 H   0  0  0  0  0  0  0  0  0  0  0  0
   -0.7529    1.5101   -0.9617 H   0  0  0  0  0  0  0  0  0  0  0  0
   -0.7303   -0.2423   -0.9618 H   0  0  0  0  0  0  0  0  0  0  0  0
    1.7145    1.4988   -1.5495 H   0  0  0  0  0  0  0  0  0  0  0  0
    1.6610   -0.2582   -1.5675 H   0  0  0  0  0  0  0  0  0  0  0  0
   -0.5225    0.8595    2.9585 N   0  0  0  0  0  0  0  0  0  0  0  0
   -1.4839    1.0302    4.0231 C   0  0  2  0  0  0  0  0  0  0  0  0
   -0.7332    1.4912    5.2654 C   0  0  0  0  0  0  0  0  0  0  0  0
    0.4684    1.2948    5.4345 O   0  0  0  0  0  0  0  0  0  0  0  0
   -2.2438   -0.2590    4.2943 C   0  0  0  0  0  0  0  0  0  0  0  0
    0.4524    0.7401    3.2173 H   0  0  0  0  0  0  0  0  0  0  0  0
   -2.1760    1.8160    3.7012 H   0  0  0  0  0  0  0  0  0  0  0  0
   -1.5668   -1.0580    4.6179 H   0  0  0  0  0  0  0  0  0  0  0  0
   -2.9919   -0.1204    5.0818 H   0  0  0  0  0  0  0  0  0  0  0  0
   -2.7589   -0.6050    3.3916 H   0  0  0  0  0  0  0  0  0  0  0  0
   -1.5717    2.1096    6.1823 N   0  0  0  0  0  0  0  0  0  0  0  0
   -1.1001    2.6237    7.4469 C   0  0  0  0  0  0  0  0  0  0  0  0
   -2.5512    2.2465    5.9507 H   0  0  0  0  0  0  0  0  0  0  0  0
   -1.2137    1.8518    8.2224 H   0  0  0  0  0  0  0  0  0  0  0  0
   -0.0391    2.9001    7.3575 H   0  0  0  0  0  0  0  0  0  0  0  0
   -1.6880    3.5111    7.7241 H   0  0  0  0  0  0  0  0  0  0  0  0
  1  3  1  0  0  0  0
  1  7  1  0  0  0  0
  1  2  2  0  0  0  0
 33 34  1  0  0  0  0
 34 42  1  0  0  0  0
 34 35  2  0  0  0  0
  8  9  1  0  0  0  0
  9 17  1  0  0  0  0
  9 10  2  0  0  0  0
 18 19  1  0  0  0  0
 19 32  1  0  0  0  0
 19 20  2  0  0  0  0
 22 23  1  0  0  0  0
 23 24  1  0  0  0  0
 23 25  2  0  0  0  0
 33 36  1  0  0  0  0
  8 11  1  0  0  0  0
 42 43  1  0  0  0  0
 21 22  1  0  0  0  0
 18 21  1  0  0  0  0
 32 33  1  0  0  0  0
  7  8  1  0  0  0  0
 17 18  1  0  0  0  0
  3  4  1  0  0  0  0
  3  5  1  0  0  0  0
  3  6  1  0  0  0  0
 36 39  1  0  0  0  0
 36 40  1  0  0  0  0
 36 41  1  0  0  0  0
 11 14  1  0  0  0  0
 11 15  1  0  0  0  0
 11 16  1  0  0  0  0
 43 45  1  0  0  0  0
 43 46  1  0  0  0  0
 43 47  1  0  0  0  0
 22 30  1  0  0  0  0
 22 31  1  0  0  0  0
 21 28  1  0  0  0  0
 21 29  1  0  0  0  0
 33 38  1  0  0  0  0
  8 13  1  0  0  0  0
 18 27  1  0  0  0  0
 42 44  1  0  0  0  0
  7 12  1  0  0  0  0
 32 37  1  0  0  0  0
 17 26  1  0  0  0  0
M  CHG  1  24  -1
M  END
$$$$

  -OEChem-05262214473D

 47 46  0     1  0  0  0  0  0999 V2000
    0.5093   -4.7265    3.0306 C   0  0  0  0  0  0  0  0  0  0  0  0
    1.2735   -4.4402    3.9448 O   0  0  0  0  0  0  0  0  0  0  0  0
   -0.4465   -5.8608    3.1982 C   0  0  0  0  0  0  0  0  0  0  0  0
   -0.0219   -6.8213    2.8645 H   0  0  0  0  0  0  0  0  0  0  0  0
   -0.7314   -6.0185    4.2509 H   0  0  0  0  0  0  0  0  0  0  0  0
   -1.3983   -5.7596    2.6527 H   0  0  0  0  0  0  0  0  0  0  0  0
    0.4252   -4.0886    1.8040 N   0  0  0  0  0  0  0  0  0  0  0  0
    1.2532   -2.9707    1.4349 C   0  0  2  0  0  0  0  0  0  0  0  0
    0.3395   -1.8293    1.0083 C   0  0  0  0  0  0  0  0  0  0  0  0
   -0.8136   -2.0027    0.6194 O   0  0  0  0  0  0  0  0  0  0  0  0
    2.2176   -3.3411    0.3189 C   0  0  0  0  0  0  0  0  0  0  0  0
   -0.2574   -4.4279    1.1287 H   0  0  0  0  0  0  0  0  0  0  0  0
    1.8087   -2.6785    2.3327 H   0  0  0  0  0  0  0  0  0  0  0  0
    1.6793   -3.6366   -0.5890 H   0  0  0  0  0  0  0  0  0  0  0  0
    2.8662   -2.4980    0.0589 H   0  0  0  0  0  0  0  0  0  0  0  0
    2.8538   -4.1816    0.6166 H   0  0  0  0  0  0  0  0  0  0  0  0
    0.9758   -0.5952    1.0708 N   0  0  0  0  0  0  0  0  0  0  0  0
    0.3258    0.6374    0.7059 C   0  0  2  0  0  0  0  0  0  0  0  0
   -0.8836    0.8060    1.6195 C   0  0  0  0  0  0  0  0  0  0  0  0
   -2.0409    0.6547    1.2334 O   0  0  0  0  0  0  0  0  0  0  0  0
   -0.1108    0.6428   -0.7640 C   0  0  0  0  0  0  0  0  0  0  0  0
    1.0593    0.6419   -1.7469 C   0  0  0  0  0  0  0  0  0  0  0  0
    0.6929    0.6232   -3.2346 C   0  0  0  0  0  0  0  0  0  0  0  0
   -0.5413    0.4702   -3.4644 O   0  5  0  0  0  0  0  0  0  0  0  0
    1.6458    0.7750   -4.0478 O   0  0  0  0  0  0  0  0  0  0  0  0
    1.9288   -0.5463    1.4242 H   0  0  0  0  0  0  0  0  0  0  0  0
    1.0391    1.4422    0.9138 H   0  0  0  0  0  0  0  0  0  0  0  0
   -0.7529    1.5101   -0.9617 H   0  0  0  0  0  0  0  0  0  0  0  0
   -0.7303   -0.2423   -0.9618 H   0  0  0  0  0  0  0  0  0  0  0  0
    1.7145    1.4988   -1.5495 H   0  0  0  0  0  0  0  0  0  0  0  0
    1.6610   -0.2582   -1.5675 H   0  0  0  0  0  0  0  0  0  0  0  0
   -0.5188    1.1905    2.9022 N   0  0  0  0  0  0  0  0  0  0  0  0
   -1.4819    1.4301    3.9519 C   0  0  2  0  0  0  0  0  0  0  0  0
   -0.7981    2.2476    5.0399 C   0  0  0  0  0  0  0  0  0  0  0  0
    0.4215    2.2756    5.1913 O   0  0  0  0  0  0  0  0  0  0  0  0
   -2.0250    0.1251    4.5130 C   0  0  0  0  0  0  0  0  0  0  0  0
    0.4658    1.2771    3.1359 H   0  0  0  0  0  0  0  0  0  0  0  0
   -2.2934    2.0174    3.5086 H   0  0  0  0  0  0  0  0  0  0  0  0
   -1.2264   -0.4770    4.9614 H   0  0  0  0  0  0  0  0  0  0  0  0
   -2.7758    0.3087    5.2887 H   0  0  0  0  0  0  0  0  0  0  0  0
   -2.4901   -0.4749    3.7234 H   0  0  0  0  0  0  0  0  0  0  0  0
   -1.7123    2.9080    5.8488 N   0  0  0  0  0  0  0  0  0  0  0  0
   -1.3121    3.7388    6.9604 C   0  0  0  0  0  0  0  0  0  0  0  0
   -2.7039    2.8433    5.6383 H   0  0  0  0  0  0  0  0  0  0  0  0
   -1.2927    3.1366    7.8806 H   0  0  0  0  0  0  0  0  0  0  0  0
   -0.3094    4.1487    6.7693 H   0  0  0  0  0  0  0  0  0  0  0  0
   -2.0295    4.5645    7.0777 H   0  0  0  0  0  0  0  0  0  0  0  0
  1  3  1  0  0  0  0
  1  7  1  0  0  0  0
  1  2  2  0  0  0  0
 33 34  1  0  0  0  0
 34 42  1  0  0  0  0
 34 35  2  0  0  0  0
  8  9  1  0  0  0  0
  9 17  1  0  0  0  0
  9 10  2  0  0  0  0
 18 19  1  0  0  0  0
 19 32  1  0  0  0  0
 19 20  2  0  0  0  0
 22 23  1  0  0  0  0
 23 24  1  0  0  0  0
 23 25  2  0  0  0  0
 33 36  1  0  0  0  0
  8 11  1  0  0  0  0
 42 43  1  0  0  0  0
 21 22  1  0  0  0  0
 18 21  1  0  0  0  0
 32 33  1  0  0  0  0
  7  8  1  0  0  0  0
 17 18  1  0  0  0  0
  3  4  1  0  0  0  0
  3  5  1  0  0  0  0
  3  6  1  0  0  0  0
 36 39  1  0  0  0  0
 36 40  1  0  0  0  0
 36 41  1  0  0  0  0
 11 14  1  0  0  0  0
 11 15  1  0  0  0  0
 11 16  1  0  0  0  0
 43 45  1  0  0  0  0
 43 46  1  0  0  0  0
 43 47  1  0  0  0  0
 22 30  1  0  0  0  0
 22 31  1  0  0  0  0
 21 28  1  0  0  0  0
 21 29  1  0  0  0  0
 33 38  1  0  0  0  0
  8 13  1  0  0  0  0
 18 27  1  0  0  0  0
 42 44  1  0  0  0  0
  7 12  1  0  0  0  0
 32 37  1  0  0  0  0
 17 26  1  0  0  0  0
M  CHG  1  24  -1
M  END
$$$$

  -OEChem-05262214473D

 47 46  0     1  0  0  0  0  0999 V2000
    0.5093   -4.7265    3.0306 C   0  0  0  0  0  0  0  0  0  0  0  0
    1.2735   -4.4402    3.9448 O   0  0  0  0  0  0  0  0  0  0  0  0
   -0.4465   -5.8608    3.1982 C   0  0  0  0  0  0  0  0  0  0  0  0
   -0.0219   -6.8213    2.8645 H   0  0  0  0  0  0  0  0  0  0  0  0
   -0.7314   -6.0185    4.2509 H   0  0  0  0  0  0  0  0  0  0  0  0
   -1.3983   -5.7596    2.6527 H   0  0  0  0  0  0  0  0  0  0  0  0
    0.4252   -4.0886    1.8040 N   0  0  0  0  0  0  0  0  0  0  0  0
    1.2532   -2.9707    1.4349 C   0  0  2  0  0  0  0  0  0  0  0  0
    0.3395   -1.8293    1.0083 C   0  0  0  0  0  0  0  0  0  0  0  0
   -0.8136   -2.0027    0.6194 O   0  0  0  0  0  0  0  0  0  0  0  0
    2.2176   -3.3411    0.3189 C   0  0  0  0  0  0  0  0  0  0  0  0
   -0.2574   -4.4279    1.1287 H   0  0  0  0  0  0  0  0  0  0  0  0
    1.8087   -2.6785    2.3327 H   0  0  0  0  0  0  0  0  0  0  0  0
    1.6793   -3.6366   -0.5890 H   0  0  0  0  0  0  0  0  0  0  0  0
    2.8662   -2.4980    0.0589 H   0  0  0  0  0  0  0  0  0  0  0  0
    2.8538   -4.1816    0.6166 H   0  0  0  0  0  0  0  0  0  0  0  0
    0.9758   -0.5952    1.0708 N   0  0  0  0  0  0  0  0  0  0  0  0
    0.3258    0.6374    0.7059 C   0  0  2  0  0  0  0  0  0  0  0  0
   -0.8836    0.8060    1.6195 C   0  0  0  0  0  0  0  0  0  0  0  0
   -2.0072    0.4037    1.3244 O   0  0  0  0  0  0  0  0  0  0  0  0
   -0.1108    0.6428   -0.7640 C   0  0  0  0  0  0  0  0  0  0  0  0
    1.0593    0.6419   -1.7469 C   0  0  0  0  0  0  0  0  0  0  0  0
    0.6929    0.6232   -3.2346 C   0  0  0  0  0  0  0  0  0  0  0  0
   -0.5413    0.4702   -3.4644 O   0  5  0  0  0  0  0  0  0  0  0  0
    1.6458    0.7750   -4.0478 O   0  0  0  0  0  0  0  0  0  0  0  0
    1.9288   -0.5463    1.4242 H   0  0  0  0  0  0  0  0  0  0  0  0
    1.0391    1.4422    0.9138 H   0  0  0  0  0  0  0  0  0  0  0  0
   -0.7529    1.5101   -0.9617 H   0  0  0  0  0  0  0  0  0  0  0  0
   -0.7303   -0.2423   -0.9618 H   0  0  0  0  0  0  0  0  0  0  0  0
    1.7145    1.4988   -1.5495 H   0  0  0  0  0  0  0  0  0  0  0  0
    1.6610   -0.2582   -1.5675 H   0  0  0  0  0  0  0  0  0  0  0  0
   -0.5683    1.4992    2.7798 N   0  0  0  0  0  0  0  0  0  0  0  0
   -1.5440    1.8021    3.8011 C   0  0  2  0  0  0  0  0  0  0  0  0
   -0.9845    2.9218    4.6687 C   0  0  0  0  0  0  0  0  0  0  0  0
    0.2171    3.1658    4.7565 O   0  0  0  0  0  0  0  0  0  0  0  0
   -1.8670    0.5749    4.6391 C   0  0  0  0  0  0  0  0  0  0  0  0
    0.3932    1.7811    2.9467 H   0  0  0  0  0  0  0  0  0  0  0  0
   -2.4435    2.1543    3.2846 H   0  0  0  0  0  0  0  0  0  0  0  0
   -0.9777    0.2076    5.1642 H   0  0  0  0  0  0  0  0  0  0  0  0
   -2.6276    0.7991    5.3942 H   0  0  0  0  0  0  0  0  0  0  0  0
   -2.2412   -0.2395    4.0094 H   0  0  0  0  0  0  0  0  0  0  0  0
   -1.9814    3.5889    5.3669 N   0  0  0  0  0  0  0  0  0  0  0  0
   -1.7038    4.6833    6.2675 C   0  0  0  0  0  0  0  0  0  0  0  0
   -2.9528    3.3319    5.2185 H   0  0  0  0  0  0  0  0  0  0  0  0
   -1.5780    4.2952    7.2891 H   0  0  0  0  0  0  0  0  0  0  0  0
   -0.7809    5.1922    5.9525 H   0  0  0  0  0  0  0  0  0  0  0  0
   -2.5411    5.3964    6.2469 H   0  0  0  0  0  0  0  0  0  0  0  0
  1  3  1  0  0  0  0
  1  7  1  0  0  0  0
  1  2  2  0  0  0  0
 33 34  1  0  0  0  0
 34 42  1  0  0  0  0
 34 35  2  0  0  0  0
  8  9  1  0  0  0  0
  9 17  1  0  0  0  0
  9 10  2  0  0  0  0
 18 19  1  0  0  0  0
 19 32  1  0  0  0  0
 19 20  2  0  0  0  0
 22 23  1  0  0  0  0
 23 24  1  0  0  0  0
 23 25  2  0  0  0  0
 33 36  1  0  0  0  0
  8 11  1  0  0  0  0
 42 43  1  0  0  0  0
 21 22  1  0  0  0  0
 18 21  1  0  0  0  0
 32 33  1  0  0  0  0
  7  8  1  0  0  0  0
 17 18  1  0  0  0  0
  3  4  1  0  0  0  0
  3  5  1  0  0  0  0
  3  6  1  0  0  0  0
 36 39  1  0  0  0  0
 36 40  1  0  0  0  0
 36 41  1  0  0  0  0
 11 14  1  0  0  0  0
 11 15  1  0  0  0  0
 11 16  1  0  0  0  0
 43 45  1  0  0  0  0
 43 46  1  0  0  0  0
 43 47  1  0  0  0  0
 22 30  1  0  0  0  0
 22 31  1  0  0  0  0
 21 28  1  0  0  0  0
 21 29  1  0  0  0  0
 33 38  1  0  0  0  0
  8 13  1  0  0  0  0
 18 27  1  0  0  0  0
 42 44  1  0  0  0  0
  7 12  1  0  0  0  0
 32 37  1  0  0  0  0
 17 26  1  0  0  0  0
M  CHG  1  24  -1
M  END
$$$$

  -OEChem-05262214473D

 47 46  0     1  0  0  0  0  0999 V2000
    0.5093   -4.7265    3.0306 C   0  0  0  0  0  0  0  0  0  0  0  0
    1.2735   -4.4402    3.9448 O   0  0  0  0  0  0  0  0  0  0  0  0
   -0.4465   -5.8608    3.1982 C   0  0  0  0  0  0  0  0  0  0  0  0
   -0.0219   -6.8213    2.8645 H   0  0  0  0  0  0  0  0  0  0  0  0
   -0.7314   -6.0185    4.2509 H   0  0  0  0  0  0  0  0  0  0  0  0
   -1.3983   -5.7596    2.6527 H   0  0  0  0  0  0  0  0  0  0  0  0
    0.4252   -4.0886    1.8040 N   0  0  0  0  0  0  0  0  0  0  0  0
    1.2532   -2.9707    1.4349 C   0  0  2  0  0  0  0  0  0  0  0  0
    0.3395   -1.8293    1.0083 C   0  0  0  0  0  0  0  0  0  0  0  0
   -0.8136   -2.0027    0.6194 O   0  0  0  0  0  0  0  0  0  0  0  0
    2.2176   -3.3411    0.3189 C   0  0  0  0  0  0  0  0  0  0  0  0
   -0.2574   -4.4279    1.1287 H   0  0  0  0  0  0  0  0  0  0  0  0
    1.8087   -2.6785    2.3327 H   0  0  0  0  0  0  0  0  0  0  0  0
    1.6793   -3.6366   -0.5890 H   0  0  0  0  0  0  0  0  0  0  0  0
    2.8662   -2.4980    0.0589 H   0  0  0  0  0  0  0  0  0  0  0  0
    2.8538   -4.1816    0.6166 H   0  0  0  0  0  0  0  0  0  0  0  0
    0.9758   -0.5952    1.0708 N   0  0  0  0  0  0  0  0  0  0  0  0
    0.3258    0.6374    0.7059 C   0  0  2  0  0  0  0  0  0  0  0  0
   -0.8836    0.8060    1.6195 C   0  0  0  0  0  0  0  0  0  0  0  0
   -1.9331    0.1852    1.4629 O   0  0  0  0  0  0  0  0  0  0  0  0
   -0.1108    0.6428   -0.7640 C   0  0  0  0  0  0  0  0  0  0  0  0
    1.0593    0.6419   -1.7469 C   0  0  0  0  0  0  0  0  0  0  0  0
    0.6929    0.6232   -3.2346 C   0  0  0  0  0  0  0  0  0  0  0  0
   -0.5413    0.4702   -3.4644 O   0  5  0  0  0  0  0  0  0  0  0  0
    1.6458    0.7750   -4.0478 O   0  0  0  0  0  0  0  0  0  0  0  0
    1.9288   -0.5463    1.4242 H   0  0  0  0  0  0  0  0  0  0  0  0
    1.0391    1.4422    0.9138 H   0  0  0  0  0  0  0  0  0  0  0  0
   -0.7529    1.5101   -0.9617 H   0  0  0  0  0  0  0  0  0  0  0  0
   -0.7303   -0.2423   -0.9618 H   0  0  0  0  0  0  0  0  0  0  0  0
    1.7145    1.4988   -1.5495 H   0  0  0  0  0  0  0  0  0  0  0  0
    1.6610   -0.2582   -1.5675 H   0  0  0  0  0  0  0  0  0  0  0  0
   -0.6674    1.7646    2.5996 N   0  0  0  0  0  0  0  0  0  0  0  0
   -1.6659    2.1209    3.5808 C   0  0  2  0  0  0  0  0  0  0  0  0
   -1.2797    3.4680    4.1771 C   0  0  0  0  0  0  0  0  0  0  0  0
   -0.1307    3.9047    4.1596 O   0  0  0  0  0  0  0  0  0  0  0  0
   -1.7805    1.0598    4.6641 C   0  0  0  0  0  0  0  0  0  0  0  0
    0.2394    2.2179    2.6626 H   0  0  0  0  0  0  0  0  0  0  0  0
   -2.6162    2.2172    3.0444 H   0  0  0  0  0  0  0  0  0  0  0  0
   -0.8379    0.9490    5.2125 H   0  0  0  0  0  0  0  0  0  0  0  0
   -2.5576    1.3174    5.3913 H   0  0  0  0  0  0  0  0  0  0  0  0
   -2.0291    0.0852    4.2303 H   0  0  0  0  0  0  0  0  0  0  0  0
   -2.3607    4.1059    4.7693 N   0  0  0  0  0  0  0  0  0  0  0  0
   -2.2484    5.3926    5.4157 C   0  0  0  0  0  0  0  0  0  0  0  0
   -3.2811    3.6790    4.7199 H   0  0  0  0  0  0  0  0  0  0  0  0
   -2.0501    5.2487    6.4880 H   0  0  0  0  0  0  0  0  0  0  0  0
   -1.4215    5.9593    4.9628 H   0  0  0  0  0  0  0  0  0  0  0  0
   -3.1880    5.9501    5.2882 H   0  0  0  0  0  0  0  0  0  0  0  0
  1  3  1  0  0  0  0
  1  7  1  0  0  0  0
  1  2  2  0  0  0  0
 33 34  1  0  0  0  0
 34 42  1  0  0  0  0
 34 35  2  0  0  0  0
  8  9  1  0  0  0  0
  9 17  1  0  0  0  0
  9 10  2  0  0  0  0
 18 19  1  0  0  0  0
 19 32  1  0  0  0  0
 19 20  2  0  0  0  0
 22 23  1  0  0  0  0
 23 24  1  0  0  0  0
 23 25  2  0  0  0  0
 33 36  1  0  0  0  0
  8 11  1  0  0  0  0
 42 43  1  0  0  0  0
 21 22  1  0  0  0  0
 18 21  1  0  0  0  0
 32 33  1  0  0  0  0
  7  8  1  0  0  0  0
 17 18  1  0  0  0  0
  3  4  1  0  0  0  0
  3  5  1  0  0  0  0
  3  6  1  0  0  0  0
 36 39  1  0  0  0  0
 36 40  1  0  0  0  0
 36 41  1  0  0  0  0
 11 14  1  0  0  0  0
 11 15  1  0  0  0  0
 11 16  1  0  0  0  0
 43 45  1  0  0  0  0
 43 46  1  0  0  0  0
 43 47  1  0  0  0  0
 22 30  1  0  0  0  0
 22 31  1  0  0  0  0
 21 28  1  0  0  0  0
 21 29  1  0  0  0  0
 33 38  1  0  0  0  0
  8 13  1  0  0  0  0
 18 27  1  0  0  0  0
 42 44  1  0  0  0  0
  7 12  1  0  0  0  0
 32 37  1  0  0  0  0
 17 26  1  0  0  0  0
M  CHG  1  24  -1
M  END
$$$$

  -OEChem-05262214473D

 47 46  0     1  0  0  0  0  0999 V2000
    0.5093   -4.7265    3.0306 C   0  0  0  0  0  0  0  0  0  0  0  0
    1.2735   -4.4402    3.9448 O   0  0  0  0  0  0  0  0  0  0  0  0
   -0.4465   -5.8608    3.1982 C   0  0  0  0  0  0  0  0  0  0  0  0
   -0.0219   -6.8213    2.8645 H   0  0  0  0  0  0  0  0  0  0  0  0
   -0.7314   -6.0185    4.2509 H   0  0  0  0  0  0  0  0  0  0  0  0
   -1.3983   -5.7596    2.6527 H   0  0  0  0  0  0  0  0  0  0  0  0
    0.4252   -4.0886    1.8040 N   0  0  0  0  0  0  0  0  0  0  0  0
    1.2532   -2.9707    1.4349 C   0  0  2  0  0  0  0  0  0  0  0  0
    0.3395   -1.8293    1.0083 C   0  0  0  0  0  0  0  0  0  0  0  0
   -0.8136   -2.0027    0.6194 O   0  0  0  0  0  0  0  0  0  0  0  0
    2.2176   -3.3411    0.3189 C   0  0  0  0  0  0  0  0  0  0  0  0
   -0.2574   -4.4279    1.1287 H   0  0  0  0  0  0  0  0  0  0  0  0
    1.8087   -2.6785    2.3327 H   0  0  0  0  0  0  0  0  0  0  0  0
    1.6793   -3.6366   -0.5890 H   0  0  0  0  0  0  0  0  0  0  0  0
    2.8662   -2.4980    0.0589 H   0  0  0  0  0  0  0  0  0  0  0  0
    2.8538   -4.1816    0.6166 H   0  0  0  0  0  0  0  0  0  0  0  0
    0.9758   -0.5952    1.0708 N   0  0  0  0  0  0  0  0  0  0  0  0
    0.3258    0.6374    0.7059 C   0  0  2  0  0  0  0  0  0  0  0  0
   -0.8836    0.8060    1.6195 C   0  0  0  0  0  0  0  0  0  0  0  0
   -1.8237    0.0140    1.6393 O   0  0  0  0  0  0  0  0  0  0  0  0
   -0.1108    0.6428   -0.7640 C   0  0  0  0  0  0  0  0  0  0  0  0
    1.0593    0.6419   -1.7469 C   0  0  0  0  0  0  0  0  0  0  0  0
    0.6929    0.6232   -3.2346 C   0  0  0  0  0  0  0  0  0  0  0  0
   -0.5413    0.4702   -3.4644 O   0  5  0  0  0  0  0  0  0  0  0  0
    1.6458    0.7750   -4.0478 O   0  0  0  0  0  0  0  0  0  0  0  0
    1.9288   -0.5463    1.4242 H   0  0  0  0  0  0  0  0  0  0  0  0
    1.0391    1.4422    0.9138 H   0  0  0  0  0  0  0  0  0  0  0  0
   -0.7529    1.5101   -0.9617 H   0  0  0  0  0  0  0  0  0  0  0  0
   -0.7303   -0.2423   -0.9618 H   0  0  0  0  0  0  0  0  0  0  0  0
    1.7145    1.4988   -1.5495 H   0  0  0  0  0  0  0  0  0  0  0  0
    1.6610   -0.2582   -1.5675 H   0  0  0  0  0  0  0  0  0  0  0  0
   -0.8094    1.9686    2.3739 N   0  0  0  0  0  0  0  0  0  0  0  0
   -1.8394    2.3647    3.3061 C   0  0  2  0  0  0  0  0  0  0  0  0
   -1.6636    3.8490    3.5986 C   0  0  0  0  0  0  0  0  0  0  0  0
   -0.5984    4.4420    3.4414 O   0  0  0  0  0  0  0  0  0  0  0  0
   -1.7714    1.5466    4.5863 C   0  0  0  0  0  0  0  0  0  0  0  0
    0.0151    2.5576    2.3029 H   0  0  0  0  0  0  0  0  0  0  0  0
   -2.7996    2.2020    2.8044 H   0  0  0  0  0  0  0  0  0  0  0  0
   -0.8164    1.6967    5.1029 H   0  0  0  0  0  0  0  0  0  0  0  0
   -2.5703    1.8284    5.2801 H   0  0  0  0  0  0  0  0  0  0  0  0
   -1.8683    0.4770    4.3709 H   0  0  0  0  0  0  0  0  0  0  0  0
   -2.8244    4.4238    4.0968 N   0  0  0  0  0  0  0  0  0  0  0  0
   -2.9088    5.8184    4.4628 C   0  0  0  0  0  0  0  0  0  0  0  0
   -3.6663    3.8612    4.1764 H   0  0  0  0  0  0  0  0  0  0  0  0
   -2.6769    5.9321    5.5321 H   0  0  0  0  0  0  0  0  0  0  0  0
   -2.1875    6.3978    3.8678 H   0  0  0  0  0  0  0  0  0  0  0  0
   -3.9262    6.1878    4.2671 H   0  0  0  0  0  0  0  0  0  0  0  0
  1  3  1  0  0  0  0
  1  7  1  0  0  0  0
  1  2  2  0  0  0  0
 33 34  1  0  0  0  0
 34 42  1  0  0  0  0
 34 35  2  0  0  0  0
  8  9  1  0  0  0  0
  9 17  1  0  0  0  0
  9 10  2  0  0  0  0
 18 19  1  0  0  0  0
 19 32  1  0  0  0  0
 19 20  2  0  0  0  0
 22 23  1  0  0  0  0
 23 24  1  0  0  0  0
 23 25  2  0  0  0  0
 33 36  1  0  0  0  0
  8 11  1  0  0  0  0
 42 43  1  0  0  0  0
 21 22  1  0  0  0  0
 18 21  1  0  0  0  0
 32 33  1  0  0  0  0
  7  8  1  0  0  0  0
 17 18  1  0  0  0  0
  3  4  1  0  0  0  0
  3  5  1  0  0  0  0
  3  6  1  0  0  0  0
 36 39  1  0  0  0  0
 36 40  1  0  0  0  0
 36 41  1  0  0  0  0
 11 14  1  0  0  0  0
 11 15  1  0  0  0  0
 11 16  1  0  0  0  0
 43 45  1  0  0  0  0
 43 46  1  0  0  0  0
 43 47  1  0  0  0  0
 22 30  1  0  0  0  0
 22 31  1  0  0  0  0
 21 28  1  0  0  0  0
 21 29  1  0  0  0  0
 33 38  1  0  0  0  0
  8 13  1  0  0  0  0
 18 27  1  0  0  0  0
 42 44  1  0  0  0  0
  7 12  1  0  0  0  0
 32 37  1  0  0  0  0
 17 26  1  0  0  0  0
M  CHG  1  24  -1
M  END
$$$$

  -OEChem-05262214473D

 47 46  0     1  0  0  0  0  0999 V2000
    0.5093   -4.7265    3.0306 C   0  0  0  0  0  0  0  0  0  0  0  0
    1.2735   -4.4402    3.9448 O   0  0  0  0  0  0  0  0  0  0  0  0
   -0.4465   -5.8608    3.1982 C   0  0  0  0  0  0  0  0  0  0  0  0
   -0.0219   -6.8213    2.8645 H   0  0  0  0  0  0  0  0  0  0  0  0
   -0.7314   -6.0185    4.2509 H   0  0  0  0  0  0  0  0  0  0  0  0
   -1.3983   -5.7596    2.6527 H   0  0  0  0  0  0  0  0  0  0  0  0
    0.4252   -4.0886    1.8040 N   0  0  0  0  0  0  0  0  0  0  0  0
    1.2532   -2.9707    1.4349 C   0  0  2  0  0  0  0  0  0  0  0  0
    0.3395   -1.8293    1.0083 C   0  0  0  0  0  0  0  0  0  0  0  0
   -0.8136   -2.0027    0.6194 O   0  0  0  0  0  0  0  0  0  0  0  0
    2.2176   -3.3411    0.3189 C   0  0  0  0  0  0  0  0  0  0  0  0
   -0.2574   -4.4279    1.1287 H   0  0  0  0  0  0  0  0  0  0  0  0
    1.8087   -2.6785    2.3327 H   0  0  0  0  0  0  0  0  0  0  0  0
    1.6793   -3.6366   -0.5890 H   0  0  0  0  0  0  0  0  0  0  0  0
    2.8662   -2.4980    0.0589 H   0  0  0  0  0  0  0  0  0  0  0  0
    2.8538   -4.1816    0.6166 H   0  0  0  0  0  0  0  0  0  0  0  0
    0.9758   -0.5952    1.0708 N   0  0  0  0  0  0  0  0  0  0  0  0
    0.3258    0.6374    0.7059 C   0  0  2  0  0  0  0  0  0  0  0  0
   -0.8836    0.8060    1.6195 C   0  0  0  0  0  0  0  0  0  0  0  0
   -1.6864   -0.0981    1.8418 O   0  0  0  0  0  0  0  0  0  0  0  0
   -0.1108    0.6428   -0.7640 C   0  0  0  0  0  0  0  0  0  0  0  0
    1.0593    0.6419   -1.7469 C   0  0  0  0  0  0  0  0  0  0  0  0
    0.6929    0.6232   -3.2346 C   0  0  0  0  0  0  0  0  0  0  0  0
   -0.5413    0.4702   -3.4644 O   0  5  0  0  0  0  0  0  0  0  0  0
    1.6458    0.7750   -4.0478 O   0  0  0  0  0  0  0  0  0  0  0  0
    1.9288   -0.5463    1.4242 H   0  0  0  0  0  0  0  0  0  0  0  0
    1.0391    1.4422    0.9138 H   0  0  0  0  0  0  0  0  0  0  0  0
   -0.7529    1.5101   -0.9617 H   0  0  0  0  0  0  0  0  0  0  0  0
   -0.7303   -0.2423   -0.9618 H   0  0  0  0  0  0  0  0  0  0  0  0
    1.7145    1.4988   -1.5495 H   0  0  0  0  0  0  0  0  0  0  0  0
    1.6610   -0.2582   -1.5675 H   0  0  0  0  0  0  0  0  0  0  0  0
   -0.9847    2.0973    2.1181 N   0  0  0  0  0  0  0  0  0  0  0  0
   -2.0527    2.5169    2.9957 C   0  0  2  0  0  0  0  0  0  0  0  0
   -2.1100    4.0386    2.9726 C   0  0  0  0  0  0  0  0  0  0  0  0
   -1.1540    4.7411    2.6507 O   0  0  0  0  0  0  0  0  0  0  0  0
   -1.8403    2.0023    4.4109 C   0  0  0  0  0  0  0  0  0  0  0  0
   -0.2646    2.7771    1.8921 H   0  0  0  0  0  0  0  0  0  0  0  0
   -2.9812    2.1096    2.5810 H   0  0  0  0  0  0  0  0  0  0  0  0
   -0.9147    2.3998    4.8430 H   0  0  0  0  0  0  0  0  0  0  0  0
   -2.6651    2.2971    5.0682 H   0  0  0  0  0  0  0  0  0  0  0  0
   -1.7696    0.9093    4.4217 H   0  0  0  0  0  0  0  0  0  0  0  0
   -3.3408    4.5210    3.3952 N   0  0  0  0  0  0  0  0  0  0  0  0
   -3.6399    5.9318    3.4740 C   0  0  0  0  0  0  0  0  0  0  0  0
   -4.0821    3.8658    3.6250 H   0  0  0  0  0  0  0  0  0  0  0  0
   -3.4157    6.2988    4.4864 H   0  0  0  0  0  0  0  0  0  0  0  0
   -3.0268    6.4779    2.7420 H   0  0  0  0  0  0  0  0  0  0  0  0
   -4.7054    6.0934    3.2531 H   0  0  0  0  0  0  0  0  0  0  0  0
  1  3  1  0  0  0  0
  1  7  1  0  0  0  0
  1  2  2  0  0  0  0
 33 34  1  0  0  0  0
 34 42  1  0  0  0  0
 34 35  2  0  0  0  0
  8  9  1  0  0  0  0
  9 17  1  0  0  0  0
  9 10  2  0  0  0  0
 18 19  1  0  0  0  0
 19 32  1  0  0  0  0
 19 20  2  0  0  0  0
 22 23  1  0  0  0  0
 23 24  1  0  0  0  0
 23 25  2  0  0  0  0
 33 36  1  0  0  0  0
  8 11  1  0  0  0  0
 42 43  1  0  0  0  0
 21 22  1  0  0  0  0
 18 21  1  0  0  0  0
 32 33  1  0  0  0  0
  7  8  1  0  0  0  0
 17 18  1  0  0  0  0
  3  4  1  0  0  0  0
  3  5  1  0  0  0  0
  3  6  1  0  0  0  0
 36 39  1  0  0  0  0
 36 40  1  0  0  0  0
 36 41  1  0  0  0  0
 11 14  1  0  0  0  0
 11 15  1  0  0  0  0
 11 16  1  0  0  0  0
 43 45  1  0  0  0  0
 43 46  1  0  0  0  0
 43 47  1  0  0  0  0
 22 30  1  0  0  0  0
 22 31  1  0  0  0  0
 21 28  1  0  0  0  0
 21 29  1  0  0  0  0
 33 38  1  0  0  0  0
  8 13  1  0  0  0  0
 18 27  1  0  0  0  0
 42 44  1  0  0  0  0
  7 12  1  0  0  0  0
 32 37  1  0  0  0  0
 17 26  1  0  0  0  0
M  CHG  1  24  -1
M  END
$$$$

  -OEChem-05262214473D

 47 46  0     1  0  0  0  0  0999 V2000
    0.5093   -4.7265    3.0306 C   0  0  0  0  0  0  0  0  0  0  0  0
    1.2735   -4.4402    3.9448 O   0  0  0  0  0  0  0  0  0  0  0  0
   -0.4465   -5.8608    3.1982 C   0  0  0  0  0  0  0  0  0  0  0  0
   -0.0219   -6.8213    2.8645 H   0  0  0  0  0  0  0  0  0  0  0  0
   -0.7314   -6.0185    4.2509 H   0  0  0  0  0  0  0  0  0  0  0  0
   -1.3983   -5.7596    2.6527 H   0  0  0  0  0  0  0  0  0  0  0  0
    0.4252   -4.0886    1.8040 N   0  0  0  0  0  0  0  0  0  0  0  0
    1.2532   -2.9707    1.4349 C   0  0  2  0  0  0  0  0  0  0  0  0
    0.3395   -1.8293    1.0083 C   0  0  0  0  0  0  0  0  0  0  0  0
   -0.8136   -2.0027    0.6194 O   0  0  0  0  0  0  0  0  0  0  0  0
    2.2176   -3.3411    0.3189 C   0  0  0  0  0  0  0  0  0  0  0  0
   -0.2574   -4.4279    1.1287 H   0  0  0  0  0  0  0  0  0  0  0  0
    1.8087   -2.6785    2.3327 H   0  0  0  0  0  0  0  0  0  0  0  0
    1.6793   -3.6366   -0.5890 H   0  0  0  0  0  0  0  0  0  0  0  0
    2.8662   -2.4980    0.0589 H   0  0  0  0  0  0  0  0  0  0  0  0
    2.8538   -4.1816    0.6166 H   0  0  0  0  0  0  0  0  0  0  0  0
    0.9758   -0.5952    1.0708 N   0  0  0  0  0  0  0  0  0  0  0  0
    0.3258    0.6374    0.7059 C   0  0  2  0  0  0  0  0  0  0  0  0
   -0.8836    0.8060    1.6195 C   0  0  0  0  0  0  0  0  0  0  0  0
   -1.5306   -0.1436    2.0564 O   0  0  0  0  0  0  0  0  0  0  0  0
   -0.1108    0.6428   -0.7640 C   0  0  0  0  0  0  0  0  0  0  0  0
    1.0593    0.6419   -1.7469 C   0  0  0  0  0  0  0  0  0  0  0  0
    0.6929    0.6232   -3.2346 C   0  0  0  0  0  0  0  0  0  0  0  0
   -0.5413    0.4702   -3.4644 O   0  5  0  0  0  0  0  0  0  0  0  0
    1.6458    0.7750   -4.0478 O   0  0  0  0  0  0  0  0  0  0  0  0
    1.9288   -0.5463    1.4242 H   0  0  0  0  0  0  0  0  0  0  0  0
    1.0391    1.4422    0.9138 H   0  0  0  0  0  0  0  0  0  0  0  0
   -0.7529    1.5101   -0.9617 H   0  0  0  0  0  0  0  0  0  0  0  0
   -0.7303   -0.2423   -0.9618 H   0  0  0  0  0  0  0  0  0  0  0  0
    1.7145    1.4988   -1.5495 H   0  0  0  0  0  0  0  0  0  0  0  0
    1.6610   -0.2582   -1.5675 H   0  0  0  0  0  0  0  0  0  0  0  0
   -1.1813    2.1420    1.8496 N   0  0  0  0  0  0  0  0  0  0  0  0
   -2.2912    2.5671    2.6707 C   0  0  2  0  0  0  0  0  0  0  0  0
   -2.5885    4.0241    2.3418 C   0  0  0  0  0  0  0  0  0  0  0  0
   -1.7596    4.7815    1.8415 O   0  0  0  0  0  0  0  0  0  0  0  0
   -1.9826    2.3958    4.1499 C   0  0  0  0  0  0  0  0  0  0  0  0
   -0.5805    2.8614    1.4583 H   0  0  0  0  0  0  0  0  0  0  0  0
   -3.1488    1.9463    2.3894 H   0  0  0  0  0  0  0  0  0  0  0  0
   -1.1261    3.0103    4.4504 H   0  0  0  0  0  0  0  0  0  0  0  0
   -2.8353    2.6917    4.7700 H   0  0  0  0  0  0  0  0  0  0  0  0
   -1.7399    1.3526    4.3792 H   0  0  0  0  0  0  0  0  0  0  0  0
   -3.8747    4.3908    2.7124 N   0  0  0  0  0  0  0  0  0  0  0  0
   -4.3921    5.7250    2.5164 C   0  0  0  0  0  0  0  0  0  0  0  0
   -4.5003    3.6926    3.1034 H   0  0  0  0  0  0  0  0  0  0  0  0
   -4.2161    6.3238    3.4222 H   0  0  0  0  0  0  0  0  0  0  0  0
   -3.8821    6.1941    1.6621 H   0  0  0  0  0  0  0  0  0  0  0  0
   -5.4723    5.6733    2.3153 H   0  0  0  0  0  0  0  0  0  0  0  0
  1  3  1  0  0  0  0
  1  7  1  0  0  0  0
  1  2  2  0  0  0  0
 33 34  1  0  0  0  0
 34 42  1  0  0  0  0
 34 35  2  0  0  0  0
  8  9  1  0  0  0  0
  9 17  1  0  0  0  0
  9 10  2  0  0  0  0
 18 19  1  0  0  0  0
 19 32  1  0  0  0  0
 19 20  2  0  0  0  0
 22 23  1  0  0  0  0
 23 24  1  0  0  0  0
 23 25  2  0  0  0  0
 33 36  1  0  0  0  0
  8 11  1  0  0  0  0
 42 43  1  0  0  0  0
 21 22  1  0  0  0  0
 18 21  1  0  0  0  0
 32 33  1  0  0  0  0
  7  8  1  0  0  0  0
 17 18  1  0  0  0  0
  3  4  1  0  0  0  0
  3  5  1  0  0  0  0
  3  6  1  0  0  0  0
 36 39  1  0  0  0  0
 36 40  1  0  0  0  0
 36 41  1  0  0  0  0
 11 14  1  0  0  0  0
 11 15  1  0  0  0  0
 11 16  1  0  0  0  0
 43 45  1  0  0  0  0
 43 46  1  0  0  0  0
 43 47  1  0  0  0  0
 22 30  1  0  0  0  0
 22 31  1  0  0  0  0
 21 28  1  0  0  0  0
 21 29  1  0  0  0  0
 33 38  1  0  0  0  0
  8 13  1  0  0  0  0
 18 27  1  0  0  0  0
 42 44  1  0  0  0  0
  7 12  1  0  0  0  0
 32 37  1  0  0  0  0
 17 26  1  0  0  0  0
M  CHG  1  24  -1
M  END
$$$$

  -OEChem-05262214473D

 47 46  0     1  0  0  0  0  0999 V2000
    0.5093   -4.7265    3.0306 C   0  0  0  0  0  0  0  0  0  0  0  0
    1.2735   -4.4402    3.9448 O   0  0  0  0  0  0  0  0  0  0  0  0
   -0.4465   -5.8608    3.1982 C   0  0  0  0  0  0  0  0  0  0  0  0
   -0.0219   -6.8213    2.8645 H   0  0  0  0  0  0  0  0  0  0  0  0
   -0.7314   -6.0185    4.2509 H   0  0  0  0  0  0  0  0  0  0  0  0
   -1.3983   -5.7596    2.6527 H   0  0  0  0  0  0  0  0  0  0  0  0
    0.4252   -4.0886    1.8040 N   0  0  0  0  0  0  0  0  0  0  0  0
    1.2532   -2.9707    1.4349 C   0  0  2  0  0  0  0  0  0  0  0  0
    0.3395   -1.8293    1.0083 C   0  0  0  0  0  0  0  0  0  0  0  0
   -0.8136   -2.0027    0.6194 O   0  0  0  0  0  0  0  0  0  0  0  0
    2.2176   -3.3411    0.3189 C   0  0  0  0  0  0  0  0  0  0  0  0
   -0.2574   -4.4279    1.1287 H   0  0  0  0  0  0  0  0  0  0  0  0
    1.8087   -2.6785    2.3327 H   0  0  0  0  0  0  0  0  0  0  0  0
    1.6793   -3.6366   -0.5890 H   0  0  0  0  0  0  0  0  0  0  0  0
    2.8662   -2.4980    0.0589 H   0  0  0  0  0  0  0  0  0  0  0  0
    2.8538   -4.1816    0.6166 H   0  0  0  0  0  0  0  0  0  0  0  0
    0.9758   -0.5952    1.0708 N   0  0  0  0  0  0  0  0  0  0  0  0
    0.3258    0.6374    0.7059 C   0  0  2  0  0  0  0  0  0  0  0  0
   -0.8836    0.8060    1.6195 C   0  0  0  0  0  0  0  0  0  0  0  0
   -1.3669   -0.1194    2.2686 O   0  0  0  0  0  0  0  0  0  0  0  0
   -0.1108    0.6428   -0.7640 C   0  0  0  0  0  0  0  0  0  0  0  0
    1.0593    0.6419   -1.7469 C   0  0  0  0  0  0  0  0  0  0  0  0
    0.6929    0.6232   -3.2346 C   0  0  0  0  0  0  0  0  0  0  0  0
   -0.5413    0.4702   -3.4644 O   0  5  0  0  0  0  0  0  0  0  0  0
    1.6458    0.7750   -4.0478 O   0  0  0  0  0  0  0  0  0  0  0  0
    1.9288   -0.5463    1.4242 H   0  0  0  0  0  0  0  0  0  0  0  0
    1.0391    1.4422    0.9138 H   0  0  0  0  0  0  0  0  0  0  0  0
   -0.7529    1.5101   -0.9617 H   0  0  0  0  0  0  0  0  0  0  0  0
   -0.7303   -0.2423   -0.9618 H   0  0  0  0  0  0  0  0  0  0  0  0
    1.7145    1.4988   -1.5495 H   0  0  0  0  0  0  0  0  0  0  0  0
    1.6610   -0.2582   -1.5675 H   0  0  0  0  0  0  0  0  0  0  0  0
   -1.3858    2.0995    1.5867 N   0  0  0  0  0  0  0  0  0  0  0  0
   -2.5386    2.5119    2.3533 C   0  0  2  0  0  0  0  0  0  0  0  0
   -3.0666    3.8065    1.7491 C   0  0  0  0  0  0  0  0  0  0  0  0
   -2.3740    4.5606    1.0689 O   0  0  0  0  0  0  0  0  0  0  0  0
   -2.1885    2.7003    3.8212 C   0  0  0  0  0  0  0  0  0  0  0  0
   -0.9112    2.8049    1.0310 H   0  0  0  0  0  0  0  0  0  0  0  0
   -3.2908    1.7232    2.2426 H   0  0  0  0  0  0  0  0  0  0  0  0
   -1.4362    3.4867    3.9520 H   0  0  0  0  0  0  0  0  0  0  0  0
   -3.0695    2.9852    4.4058 H   0  0  0  0  0  0  0  0  0  0  0  0
   -1.7811    1.7767    4.2463 H   0  0  0  0  0  0  0  0  0  0  0  0
   -4.3899    4.0421    2.0949 N   0  0  0  0  0  0  0  0  0  0  0  0
   -5.1139    5.2121    1.6555 C   0  0  0  0  0  0  0  0  0  0  0  0
   -4.8923    3.3534    2.6471 H   0  0  0  0  0  0  0  0  0  0  0  0
   -5.0236    6.0054    2.4121 H   0  0  0  0  0  0  0  0  0  0  0  0
   -4.6951    5.5656    0.7018 H   0  0  0  0  0  0  0  0  0  0  0  0
   -6.1749    4.9562    1.5177 H   0  0  0  0  0  0  0  0  0  0  0  0
  1  3  1  0  0  0  0
  1  7  1  0  0  0  0
  1  2  2  0  0  0  0
 33 34  1  0  0  0  0
 34 42  1  0  0  0  0
 34 35  2  0  0  0  0
  8  9  1  0  0  0  0
  9 17  1  0  0  0  0
  9 10  2  0  0  0  0
 18 19  1  0  0  0  0
 19 32  1  0  0  0  0
 19 20  2  0  0  0  0
 22 23  1  0  0  0  0
 23 24  1  0  0  0  0
 23 25  2  0  0  0  0
 33 36  1  0  0  0  0
  8 11  1  0  0  0  0
 42 43  1  0  0  0  0
 21 22  1  0  0  0  0
 18 21  1  0  0  0  0
 32 33  1  0  0  0  0
  7  8  1  0  0  0  0
 17 18  1  0  0  0  0
  3  4  1  0  0  0  0
  3  5  1  0  0  0  0
  3  6  1  0  0  0  0
 36 39  1  0  0  0  0
 36 40  1  0  0  0  0
 36 41  1  0  0  0  0
 11 14  1  0  0  0  0
 11 15  1  0  0  0  0
 11 16  1  0  0  0  0
 43 45  1  0  0  0  0
 43 46  1  0  0  0  0
 43 47  1  0  0  0  0
 22 30  1  0  0  0  0
 22 31  1  0  0  0  0
 21 28  1  0  0  0  0
 21 29  1  0  0  0  0
 33 38  1  0  0  0  0
  8 13  1  0  0  0  0
 18 27  1  0  0  0  0
 42 44  1  0  0  0  0
  7 12  1  0  0  0  0
 32 37  1  0  0  0  0
 17 26  1  0  0  0  0
M  CHG  1  24  -1
M  END
$$$$

  -OEChem-05262214473D

 47 46  0     1  0  0  0  0  0999 V2000
    0.5093   -4.7265    3.0306 C   0  0  0  0  0  0  0  0  0  0  0  0
    1.2735   -4.4402    3.9448 O   0  0  0  0  0  0  0  0  0  0  0  0
   -0.4465   -5.8608    3.1982 C   0  0  0  0  0  0  0  0  0  0  0  0
   -0.0219   -6.8213    2.8645 H   0  0  0  0  0  0  0  0  0  0  0  0
   -0.7314   -6.0185    4.2509 H   0  0  0  0  0  0  0  0  0  0  0  0
   -1.3983   -5.7596    2.6527 H   0  0  0  0  0  0  0  0  0  0  0  0
    0.4252   -4.0886    1.8040 N   0  0  0  0  0  0  0  0  0  0  0  0
    1.2532   -2.9707    1.4349 C   0  0  2  0  0  0  0  0  0  0  0  0
    0.3395   -1.8293    1.0083 C   0  0  0  0  0  0  0  0  0  0  0  0
   -0.8136   -2.0027    0.6194 O   0  0  0  0  0  0  0  0  0  0  0  0
    2.2176   -3.3411    0.3189 C   0  0  0  0  0  0  0  0  0  0  0  0
   -0.2574   -4.4279    1.1287 H   0  0  0  0  0  0  0  0  0  0  0  0
    1.8087   -2.6785    2.3327 H   0  0  0  0  0  0  0  0  0  0  0  0
    1.6793   -3.6366   -0.5890 H   0  0  0  0  0  0  0  0  0  0  0  0
    2.8662   -2.4980    0.0589 H   0  0  0  0  0  0  0  0  0  0  0  0
    2.8538   -4.1816    0.6166 H   0  0  0  0  0  0  0  0  0  0  0  0
    0.9758   -0.5952    1.0708 N   0  0  0  0  0  0  0  0  0  0  0  0
    0.3258    0.6374    0.7059 C   0  0  2  0  0  0  0  0  0  0  0  0
   -0.6361    0.9996    1.8325 C   0  0  0  0  0  0  0  0  0  0  0  0
   -0.8035    0.2920    2.8238 O   0  0  0  0  0  0  0  0  0  0  0  0
   -0.4300    0.5163   -0.6228 C   0  0  0  0  0  0  0  0  0  0  0  0
    0.4869    0.3158   -1.8288 C   0  0  0  0  0  0  0  0  0  0  0  0
   -0.2058    0.1633   -3.1870 C   0  0  0  0  0  0  0  0  0  0  0  0
   -1.4664    0.0837   -3.1220 O   0  5  0  0  0  0  0  0  0  0  0  0
    0.5459    0.1497   -4.2004 O   0  0  0  0  0  0  0  0  0  0  0  0
    1.9288   -0.5463    1.4242 H   0  0  0  0  0  0  0  0  0  0  0  0
    1.1087    1.4015    0.6520 H   0  0  0  0  0  0  0  0  0  0  0  0
   -1.0537    1.4046   -0.7822 H   0  0  0  0  0  0  0  0  0  0  0  0
   -1.1236   -0.3336   -0.5696 H   0  0  0  0  0  0  0  0  0  0  0  0
    1.2137    1.1348   -1.8867 H   0  0  0  0  0  0  0  0  0  0  0  0
    1.0655   -0.6039   -1.6743 H   0  0  0  0  0  0  0  0  0  0  0  0
   -1.3179    2.1812    1.5766 N   0  0  0  0  0  0  0  0  0  0  0  0
   -2.2976    2.7326    2.4838 C   0  0  2  0  0  0  0  0  0  0  0  0
   -3.1433    3.7352    1.7099 C   0  0  0  0  0  0  0  0  0  0  0  0
   -2.7574    4.2850    0.6804 O   0  0  0  0  0  0  0  0  0  0  0  0
   -1.6328    3.3924    3.6818 C   0  0  0  0  0  0  0  0  0  0  0  0
   -1.1033    2.7088    0.7357 H   0  0  0  0  0  0  0  0  0  0  0  0
   -2.9280    1.8994    2.8130 H   0  0  0  0  0  0  0  0  0  0  0  0
   -0.9970    4.2297    3.3716 H   0  0  0  0  0  0  0  0  0  0  0  0
   -2.3772    3.7847    4.3825 H   0  0  0  0  0  0  0  0  0  0  0  0
   -1.0014    2.6772    4.2200 H   0  0  0  0  0  0  0  0  0  0  0  0
   -4.3626    3.9763    2.3276 N   0  0  0  0  0  0  0  0  0  0  0  0
   -5.3376    4.8989    1.7946 C   0  0  0  0  0  0  0  0  0  0  0  0
   -4.6072    3.4615    3.1683 H   0  0  0  0  0  0  0  0  0  0  0  0
   -5.1849    5.8928    2.2406 H   0  0  0  0  0  0  0  0  0  0  0  0
   -5.2210    4.9653    0.7028 H   0  0  0  0  0  0  0  0  0  0  0  0
   -6.3499    4.5413    2.0342 H   0  0  0  0  0  0  0  0  0  0  0  0
  1  3  1  0  0  0  0
  1  7  1  0  0  0  0
  1  2  2  0  0  0  0
 33 34  1  0  0  0  0
 34 42  1  0  0  0  0
 34 35  2  0  0  0  0
  8  9  1  0  0  0  0
  9 17  1  0  0  0  0
  9 10  2  0  0  0  0
 18 19  1  0  0  0  0
 19 32  1  0  0  0  0
 19 20  2  0  0  0  0
 22 23  1  0  0  0  0
 23 24  1  0  0  0  0
 23 25  2  0  0  0  0
 33 36  1  0  0  0  0
  8 11  1  0  0  0  0
 42 43  1  0  0  0  0
 21 22  1  0  0  0  0
 18 21  1  0  0  0  0
 32 33  1  0  0  0  0
  7  8  1  0  0  0  0
 17 18  1  0  0  0  0
  3  4  1  0  0  0  0
  3  5  1  0  0  0  0
  3  6  1  0  0  0  0
 36 39  1  0  0  0  0
 36 40  1  0  0  0  0
 36 41  1  0  0  0  0
 11 14  1  0  0  0  0
 11 15  1  0  0  0  0
 11 16  1  0  0  0  0
 43 45  1  0  0  0  0
 43 46  1  0  0  0  0
 43 47  1  0  0  0  0
 22 30  1  0  0  0  0
 22 31  1  0  0  0  0
 21 28  1  0  0  0  0
 21 29  1  0  0  0  0
 33 38  1  0  0  0  0
  8 13  1  0  0  0  0
 18 27  1  0  0  0  0
 42 44  1  0  0  0  0
  7 12  1  0  0  0  0
 32 37  1  0  0  0  0
 17 26  1  0  0  0  0
M  CHG  1  24  -1
M  END
$$$$

  -OEChem-05262214473D

 47 46  0     1  0  0  0  0  0999 V2000
    0.5093   -4.7265    3.0306 C   0  0  0  0  0  0  0  0  0  0  0  0
    1.2735   -4.4402    3.9448 O   0  0  0  0  0  0  0  0  0  0  0  0
   -0.4465   -5.8608    3.1982 C   0  0  0  0  0  0  0  0  0  0  0  0
   -0.0219   -6.8213    2.8645 H   0  0  0  0  0  0  0  0  0  0  0  0
   -0.7314   -6.0185    4.2509 H   0  0  0  0  0  0  0  0  0  0  0  0
   -1.3983   -5.7596    2.6527 H   0  0  0  0  0  0  0  0  0  0  0  0
    0.4252   -4.0886    1.8040 N   0  0  0  0  0  0  0  0  0  0  0  0
    1.2532   -2.9707    1.4349 C   0  0  2  0  0  0  0  0  0  0  0  0
    0.3395   -1.8293    1.0083 C   0  0  0  0  0  0  0  0  0  0  0  0
   -0.8136   -2.0027    0.6194 O   0  0  0  0  0  0  0  0  0  0  0  0
    2.2176   -3.3411    0.3189 C   0  0  0  0  0  0  0  0  0  0  0  0
   -0.2574   -4.4279    1.1287 H   0  0  0  0  0  0  0  0  0  0  0  0
    1.8087   -2.6785    2.3327 H   0  0  0  0  0  0  0  0  0  0  0  0
    1.6793   -3.6366   -0.5890 H   0  0  0  0  0  0  0  0  0  0  0  0
    2.8662   -2.4980    0.0589 H   0  0  0  0  0  0  0  0  0  0  0  0
    2.8538   -4.1816    0.6166 H   0  0  0  0  0  0  0  0  0  0  0  0
    0.9758   -0.5952    1.0708 N   0  0  0  0  0  0  0  0  0  0  0  0
    0.3258    0.6374    0.7059 C   0  0  2  0  0  0  0  0  0  0  0  0
   -0.6361    0.9996    1.8325 C   0  0  0  0  0  0  0  0  0  0  0  0
   -0.6160    0.4514    2.9327 O   0  0  0  0  0  0  0  0  0  0  0  0
   -0.4300    0.5163   -0.6228 C   0  0  0  0  0  0  0  0  0  0  0  0
    0.4869    0.3158   -1.8288 C   0  0  0  0  0  0  0  0  0  0  0  0
   -0.2058    0.1633   -3.1870 C   0  0  0  0  0  0  0  0  0  0  0  0
   -1.4664    0.0837   -3.1220 O   0  5  0  0  0  0  0  0  0  0  0  0
    0.5459    0.1497   -4.2004 O   0  0  0  0  0  0  0  0  0  0  0  0
    1.9288   -0.5463    1.4242 H   0  0  0  0  0  0  0  0  0  0  0  0
    1.1087    1.4015    0.6520 H   0  0  0  0  0  0  0  0  0  0  0  0
   -1.0537    1.4046   -0.7822 H   0  0  0  0  0  0  0  0  0  0  0  0
   -1.1236   -0.3336   -0.5696 H   0  0  0  0  0  0  0  0  0  0  0  0
    1.2137    1.1348   -1.8867 H   0  0  0  0  0  0  0  0  0  0  0  0
    1.0655   -0.6039   -1.6743 H   0  0  0  0  0  0  0  0  0  0  0  0
   -1.5476    1.9730    1.4475 N   0  0  0  0  0  0  0  0  0  0  0  0
   -2.5740    2.4778    2.3297 C   0  0  2  0  0  0  0  0  0  0  0  0
   -3.6345    3.1599    1.4755 C   0  0  0  0  0  0  0  0  0  0  0  0
   -3.4114    3.5897    0.3457 O   0  0  0  0  0  0  0  0  0  0  0  0
   -1.9977    3.4429    3.3540 C   0  0  0  0  0  0  0  0  0  0  0  0
   -1.4793    2.3813    0.5200 H   0  0  0  0  0  0  0  0  0  0  0  0
   -3.0129    1.6098    2.8337 H   0  0  0  0  0  0  0  0  0  0  0  0
   -1.5535    4.3191    2.8678 H   0  0  0  0  0  0  0  0  0  0  0  0
   -2.7719    3.8026    4.0398 H   0  0  0  0  0  0  0  0  0  0  0  0
   -1.2143    2.9593    3.9475 H   0  0  0  0  0  0  0  0  0  0  0  0
   -4.8479    3.2709    2.1401 N   0  0  0  0  0  0  0  0  0  0  0  0
   -6.0083    3.8922    1.5457 C   0  0  0  0  0  0  0  0  0  0  0  0
   -4.9481    2.8694    3.0677 H   0  0  0  0  0  0  0  0  0  0  0  0
   -6.0335    4.9580    1.8167 H   0  0  0  0  0  0  0  0  0  0  0  0
   -5.9569    3.7933    0.4513 H   0  0  0  0  0  0  0  0  0  0  0  0
   -6.9187    3.3982    1.9161 H   0  0  0  0  0  0  0  0  0  0  0  0
  1  3  1  0  0  0  0
  1  7  1  0  0  0  0
  1  2  2  0  0  0  0
 33 34  1  0  0  0  0
 34 42  1  0  0  0  0
 34 35  2  0  0  0  0
  8  9  1  0  0  0  0
  9 17  1  0  0  0  0
  9 10  2  0  0  0  0
 18 19  1  0  0  0  0
 19 32  1  0  0  0  0
 19 20  2  0  0  0  0
 22 23  1  0  0  0  0
 23 24  1  0  0  0  0
 23 25  2  0  0  0  0
 33 36  1  0  0  0  0
  8 11  1  0  0  0  0
 42 43  1  0  0  0  0
 21 22  1  0  0  0  0
 18 21  1  0  0  0  0
 32 33  1  0  0  0  0
  7  8  1  0  0  0  0
 17 18  1  0  0  0  0
  3  4  1  0  0  0  0
  3  5  1  0  0  0  0
  3  6  1  0  0  0  0
 36 39  1  0  0  0  0
 36 40  1  0  0  0  0
 36 41  1  0  0  0  0
 11 14  1  0  0  0  0
 11 15  1  0  0  0  0
 11 16  1  0  0  0  0
 43 45  1  0  0  0  0
 43 46  1  0  0  0  0
 43 47  1  0  0  0  0
 22 30  1  0  0  0  0
 22 31  1  0  0  0  0
 21 28  1  0  0  0  0
 21 29  1  0  0  0  0
 33 38  1  0  0  0  0
  8 13  1  0  0  0  0
 18 27  1  0  0  0  0
 42 44  1  0  0  0  0
  7 12  1  0  0  0  0
 32 37  1  0  0  0  0
 17 26  1  0  0  0  0
M  CHG  1  24  -1
M  END
$$$$

  -OEChem-05262214473D

 47 46  0     1  0  0  0  0  0999 V2000
    0.5093   -4.7265    3.0306 C   0  0  0  0  0  0  0  0  0  0  0  0
    1.2735   -4.4402    3.9448 O   0  0  0  0  0  0  0  0  0  0  0  0
   -0.4465   -5.8608    3.1982 C   0  0  0  0  0  0  0  0  0  0  0  0
   -0.0219   -6.8213    2.8645 H   0  0  0  0  0  0  0  0  0  0  0  0
   -0.7314   -6.0185    4.2509 H   0  0  0  0  0  0  0  0  0  0  0  0
   -1.3983   -5.7596    2.6527 H   0  0  0  0  0  0  0  0  0  0  0  0
    0.4252   -4.0886    1.8040 N   0  0  0  0  0  0  0  0  0  0  0  0
    1.2532   -2.9707    1.4349 C   0  0  2  0  0  0  0  0  0  0  0  0
    0.3395   -1.8293    1.0083 C   0  0  0  0  0  0  0  0  0  0  0  0
   -0.8136   -2.0027    0.6194 O   0  0  0  0  0  0  0  0  0  0  0  0
    2.2176   -3.3411    0.3189 C   0  0  0  0  0  0  0  0  0  0  0  0
   -0.2574   -4.4279    1.1287 H   0  0  0  0  0  0  0  0  0  0  0  0
    1.8087   -2.6785    2.3327 H   0  0  0  0  0  0  0  0  0  0  0  0
    1.6793   -3.6366   -0.5890 H   0  0  0  0  0  0  0  0  0  0  0  0
    2.8662   -2.4980    0.0589 H   0  0  0  0  0  0  0  0  0  0  0  0
    2.8538   -4.1816    0.6166 H   0  0  0  0  0  0  0  0  0  0  0  0
    0.9758   -0.5952    1.0708 N   0  0  0  0  0  0  0  0  0  0  0  0
    0.3258    0.6374    0.7059 C   0  0  2  0  0  0  0  0  0  0  0  0
   -0.6361    0.9996    1.8325 C   0  0  0  0  0  0  0  0  0  0  0  0
   -0.4586    0.6589    3.0003 O   0  0  0  0  0  0  0  0  0  0  0  0
   -0.4300    0.5163   -0.6228 C   0  0  0  0  0  0  0  0  0  0  0  0
    0.4869    0.3158   -1.8288 C   0  0  0  0  0  0  0  0  0  0  0  0
   -0.2058    0.1633   -3.1870 C   0  0  0  0  0  0  0  0  0  0  0  0
   -1.4664    0.0837   -3.1220 O   0  5  0  0  0  0  0  0  0  0  0  0
    0.5459    0.1497   -4.2004 O   0  0  0  0  0  0  0  0  0  0  0  0
    1.9288   -0.5463    1.4242 H   0  0  0  0  0  0  0  0  0  0  0  0
    1.1087    1.4015    0.6520 H   0  0  0  0  0  0  0  0  0  0  0  0
   -1.0537    1.4046   -0.7822 H   0  0  0  0  0  0  0  0  0  0  0  0
   -1.1236   -0.3336   -0.5696 H   0  0  0  0  0  0  0  0  0  0  0  0
    1.2137    1.1348   -1.8867 H   0  0  0  0  0  0  0  0  0  0  0  0
    1.0655   -0.6039   -1.6743 H   0  0  0  0  0  0  0  0  0  0  0  0
   -1.7375    1.7069    1.3709 N   0  0  0  0  0  0  0  0  0  0  0  0
   -2.8018    2.1538    2.2395 C   0  0  2  0  0  0  0  0  0  0  0  0
   -4.0134    2.4721    1.3733 C   0  0  0  0  0  0  0  0  0  0  0  0
   -3.9307    2.7383    0.1761 O   0  0  0  0  0  0  0  0  0  0  0  0
   -2.3800    3.3684    3.0516 C   0  0  0  0  0  0  0  0  0  0  0  0
   -1.7930    1.9578    0.3883 H   0  0  0  0  0  0  0  0  0  0  0  0
   -3.0383    1.3173    2.9061 H   0  0  0  0  0  0  0  0  0  0  0  0
   -2.1391    4.2168    2.4007 H   0  0  0  0  0  0  0  0  0  0  0  0
   -3.1777    3.6885    3.7300 H   0  0  0  0  0  0  0  0  0  0  0  0
   -1.4907    3.1466    3.6513 H   0  0  0  0  0  0  0  0  0  0  0  0
   -5.1933    2.4661    2.1039 N   0  0  0  0  0  0  0  0  0  0  0  0
   -6.4790    2.7509    1.5108 C   0  0  0  0  0  0  0  0  0  0  0  0
   -5.1703    2.2158    3.0881 H   0  0  0  0  0  0  0  0  0  0  0  0
   -6.7006    3.8236    1.6120 H   0  0  0  0  0  0  0  0  0  0  0  0
   -6.4592    2.4796    0.4450 H   0  0  0  0  0  0  0  0  0  0  0  0
   -7.2568    2.1660    2.0236 H   0  0  0  0  0  0  0  0  0  0  0  0
  1  3  1  0  0  0  0
  1  7  1  0  0  0  0
  1  2  2  0  0  0  0
 33 34  1  0  0  0  0
 34 42  1  0  0  0  0
 34 35  2  0  0  0  0
  8  9  1  0  0  0  0
  9 17  1  0  0  0  0
  9 10  2  0  0  0  0
 18 19  1  0  0  0  0
 19 32  1  0  0  0  0
 19 20  2  0  0  0  0
 22 23  1  0  0  0  0
 23 24  1  0  0  0  0
 23 25  2  0  0  0  0
 33 36  1  0  0  0  0
  8 11  1  0  0  0  0
 42 43  1  0  0  0  0
 21 22  1  0  0  0  0
 18 21  1  0  0  0  0
 32 33  1  0  0  0  0
  7  8  1  0  0  0  0
 17 18  1  0  0  0  0
  3  4  1  0  0  0  0
  3  5  1  0  0  0  0
  3  6  1  0  0  0  0
 36 39  1  0  0  0  0
 36 40  1  0  0  0  0
 36 41  1  0  0  0  0
 11 14  1  0  0  0  0
 11 15  1  0  0  0  0
 11 16  1  0  0  0  0
 43 45  1  0  0  0  0
 43 46  1  0  0  0  0
 43 47  1  0  0  0  0
 22 30  1  0  0  0  0
 22 31  1  0  0  0  0
 21 28  1  0  0  0  0
 21 29  1  0  0  0  0
 33 38  1  0  0  0  0
  8 13  1  0  0  0  0
 18 27  1  0  0  0  0
 42 44  1  0  0  0  0
  7 12  1  0  0  0  0
 32 37  1  0  0  0  0
 17 26  1  0  0  0  0
M  CHG  1  24  -1
M  END
$$$$

  -OEChem-05262214473D

 47 46  0     1  0  0  0  0  0999 V2000
    0.5093   -4.7265    3.0306 C   0  0  0  0  0  0  0  0  0  0  0  0
    1.2735   -4.4402    3.9448 O   0  0  0  0  0  0  0  0  0  0  0  0
   -0.4465   -5.8608    3.1982 C   0  0  0  0  0  0  0  0  0  0  0  0
   -0.0219   -6.8213    2.8645 H   0  0  0  0  0  0  0  0  0  0  0  0
   -0.7314   -6.0185    4.2509 H   0  0  0  0  0  0  0  0  0  0  0  0
   -1.3983   -5.7596    2.6527 H   0  0  0  0  0  0  0  0  0  0  0  0
    0.4252   -4.0886    1.8040 N   0  0  0  0  0  0  0  0  0  0  0  0
    1.2532   -2.9707    1.4349 C   0  0  2  0  0  0  0  0  0  0  0  0
    0.3395   -1.8293    1.0083 C   0  0  0  0  0  0  0  0  0  0  0  0
   -0.8136   -2.0027    0.6194 O   0  0  0  0  0  0  0  0  0  0  0  0
    2.2176   -3.3411    0.3189 C   0  0  0  0  0  0  0  0  0  0  0  0
   -0.2574   -4.4279    1.1287 H   0  0  0  0  0  0  0  0  0  0  0  0
    1.8087   -2.6785    2.3327 H   0  0  0  0  0  0  0  0  0  0  0  0
    1.6793   -3.6366   -0.5890 H   0  0  0  0  0  0  0  0  0  0  0  0
    2.8662   -2.4980    0.0589 H   0  0  0  0  0  0  0  0  0  0  0  0
    2.8538   -4.1816    0.6166 H   0  0  0  0  0  0  0  0  0  0  0  0
    0.9758   -0.5952    1.0708 N   0  0  0  0  0  0  0  0  0  0  0  0
    0.3258    0.6374    0.7059 C   0  0  2  0  0  0  0  0  0  0  0  0
   -0.6361    0.9996    1.8325 C   0  0  0  0  0  0  0  0  0  0  0  0
   -0.3421    0.9005    3.0221 O   0  0  0  0  0  0  0  0  0  0  0  0
   -0.4300    0.5163   -0.6228 C   0  0  0  0  0  0  0  0  0  0  0  0
    0.4869    0.3158   -1.8288 C   0  0  0  0  0  0  0  0  0  0  0  0
   -0.2058    0.1633   -3.1870 C   0  0  0  0  0  0  0  0  0  0  0  0
   -1.4664    0.0837   -3.1220 O   0  5  0  0  0  0  0  0  0  0  0  0
    0.5459    0.1497   -4.2004 O   0  0  0  0  0  0  0  0  0  0  0  0
    1.9288   -0.5463    1.4242 H   0  0  0  0  0  0  0  0  0  0  0  0
    1.1087    1.4015    0.6520 H   0  0  0  0  0  0  0  0  0  0  0  0
   -1.0537    1.4046   -0.7822 H   0  0  0  0  0  0  0  0  0  0  0  0
   -1.1236   -0.3336   -0.5696 H   0  0  0  0  0  0  0  0  0  0  0  0
    1.2137    1.1348   -1.8867 H   0  0  0  0  0  0  0  0  0  0  0  0
    1.0655   -0.6039   -1.6743 H   0  0  0  0  0  0  0  0  0  0  0  0
   -1.8748    1.4011    1.3520 N   0  0  0  0  0  0  0  0  0  0  0  0
   -2.9653    1.7825    2.2192 C   0  0  2  0  0  0  0  0  0  0  0  0
   -4.2541    1.7185    1.4101 C   0  0  0  0  0  0  0  0  0  0  0  0
   -4.2800    1.7890    0.1831 O   0  0  0  0  0  0  0  0  0  0  0  0
   -2.7537    3.1740    2.7951 C   0  0  0  0  0  0  0  0  0  0  0  0
   -2.0233    1.4673    0.3494 H   0  0  0  0  0  0  0  0  0  0  0  0
   -3.0024    1.0417    3.0253 H   0  0  0  0  0  0  0  0  0  0  0  0
   -2.7139    3.9298    2.0022 H   0  0  0  0  0  0  0  0  0  0  0  0
   -3.5669    3.4502    3.4744 H   0  0  0  0  0  0  0  0  0  0  0  0
   -1.8117    3.2263    3.3517 H   0  0  0  0  0  0  0  0  0  0  0  0
   -5.3753    1.6168    2.2217 N   0  0  0  0  0  0  0  0  0  0  0  0
   -6.7176    1.5528    1.6924 C   0  0  0  0  0  0  0  0  0  0  0  0
   -5.2588    1.5454    3.2282 H   0  0  0  0  0  0  0  0  0  0  0  0
   -7.1406    2.5669    1.6404 H   0  0  0  0  0  0  0  0  0  0  0  0
   -6.6935    1.1135    0.6842 H   0  0  0  0  0  0  0  0  0  0  0  0
   -7.3413    0.9287    2.3494 H   0  0  0  0  0  0  0  0  0  0  0  0
  1  3  1  0  0  0  0
  1  7  1  0  0  0  0
  1  2  2  0  0  0  0
 33 34  1  0  0  0  0
 34 42  1  0  0  0  0
 34 35  2  0  0  0  0
  8  9  1  0  0  0  0
  9 17  1  0  0  0  0
  9 10  2  0  0  0  0
 18 19  1  0  0  0  0
 19 32  1  0  0  0  0
 19 20  2  0  0  0  0
 22 23  1  0  0  0  0
 23 24  1  0  0  0  0
 23 25  2  0  0  0  0
 33 36  1  0  0  0  0
  8 11  1  0  0  0  0
 42 43  1  0  0  0  0
 21 22  1  0  0  0  0
 18 21  1  0  0  0  0
 32 33  1  0  0  0  0
  7  8  1  0  0  0  0
 17 18  1  0  0  0  0
  3  4  1  0  0  0  0
  3  5  1  0  0  0  0
  3  6  1  0  0  0  0
 36 39  1  0  0  0  0
 36 40  1  0  0  0  0
 36 41  1  0  0  0  0
 11 14  1  0  0  0  0
 11 15  1  0  0  0  0
 11 16  1  0  0  0  0
 43 45  1  0  0  0  0
 43 46  1  0  0  0  0
 43 47  1  0  0  0  0
 22 30  1  0  0  0  0
 22 31  1  0  0  0  0
 21 28  1  0  0  0  0
 21 29  1  0  0  0  0
 33 38  1  0  0  0  0
  8 13  1  0  0  0  0
 18 27  1  0  0  0  0
 42 44  1  0  0  0  0
  7 12  1  0  0  0  0
 32 37  1  0  0  0  0
 17 26  1  0  0  0  0
M  CHG  1  24  -1
M  END
$$$$

  -OEChem-05262214473D

 47 46  0     1  0  0  0  0  0999 V2000
    0.5093   -4.7265    3.0306 C   0  0  0  0  0  0  0  0  0  0  0  0
    1.2735   -4.4402    3.9448 O   0  0  0  0  0  0  0  0  0  0  0  0
   -0.4465   -5.8608    3.1982 C   0  0  0  0  0  0  0  0  0  0  0  0
   -0.0219   -6.8213    2.8645 H   0  0  0  0  0  0  0  0  0  0  0  0
   -0.7314   -6.0185    4.2509 H   0  0  0  0  0  0  0  0  0  0  0  0
   -1.3983   -5.7596    2.6527 H   0  0  0  0  0  0  0  0  0  0  0  0
    0.4252   -4.0886    1.8040 N   0  0  0  0  0  0  0  0  0  0  0  0
    1.2532   -2.9707    1.4349 C   0  0  2  0  0  0  0  0  0  0  0  0
    0.3395   -1.8293    1.0083 C   0  0  0  0  0  0  0  0  0  0  0  0
   -0.8136   -2.0027    0.6194 O   0  0  0  0  0  0  0  0  0  0  0  0
    2.2176   -3.3411    0.3189 C   0  0  0  0  0  0  0  0  0  0  0  0
   -0.2574   -4.4279    1.1287 H   0  0  0  0  0  0  0  0  0  0  0  0
    1.8087   -2.6785    2.3327 H   0  0  0  0  0  0  0  0  0  0  0  0
    1.6793   -3.6366   -0.5890 H   0  0  0  0  0  0  0  0  0  0  0  0
    2.8662   -2.4980    0.0589 H   0  0  0  0  0  0  0  0  0  0  0  0
    2.8538   -4.1816    0.6166 H   0  0  0  0  0  0  0  0  0  0  0  0
    0.9758   -0.5952    1.0708 N   0  0  0  0  0  0  0  0  0  0  0  0
    0.3258    0.6374    0.7059 C   0  0  2  0  0  0  0  0  0  0  0  0
   -0.6361    0.9996    1.8325 C   0  0  0  0  0  0  0  0  0  0  0  0
   -0.2744    1.1597    2.9965 O   0  0  0  0  0  0  0  0  0  0  0  0
   -0.4300    0.5163   -0.6228 C   0  0  0  0  0  0  0  0  0  0  0  0
    0.4869    0.3158   -1.8288 C   0  0  0  0  0  0  0  0  0  0  0  0
   -0.2058    0.1633   -3.1870 C   0  0  0  0  0  0  0  0  0  0  0  0
   -1.4664    0.0837   -3.1220 O   0  5  0  0  0  0  0  0  0  0  0  0
    0.5459    0.1497   -4.2004 O   0  0  0  0  0  0  0  0  0  0  0  0
    1.9288   -0.5463    1.4242 H   0  0  0  0  0  0  0  0  0  0  0  0
    1.1087    1.4015    0.6520 H   0  0  0  0  0  0  0  0  0  0  0  0
   -1.0537    1.4046   -0.7822 H   0  0  0  0  0  0  0  0  0  0  0  0
   -1.1236   -0.3336   -0.5696 H   0  0  0  0  0  0  0  0  0  0  0  0
    1.2137    1.1348   -1.8867 H   0  0  0  0  0  0  0  0  0  0  0  0
    1.0655   -0.6039   -1.6743 H   0  0  0  0  0  0  0  0  0  0  0  0
   -1.9501    1.0764    1.3922 N   0  0  0  0  0  0  0  0  0  0  0  0
   -3.0536    1.3893    2.2703 C   0  0  2  0  0  0  0  0  0  0  0  0
   -4.3402    0.9506    1.5835 C   0  0  0  0  0  0  0  0  0  0  0  0
   -4.4354    0.8064    0.3664 O   0  0  0  0  0  0  0  0  0  0  0  0
   -3.0932    2.8729    2.6020 C   0  0  0  0  0  0  0  0  0  0  0  0
   -2.1543    0.9432    0.4061 H   0  0  0  0  0  0  0  0  0  0  0  0
   -2.9077    0.8019    3.1833 H   0  0  0  0  0  0  0  0  0  0  0  0
   -3.2387    3.4777    1.6995 H   0  0  0  0  0  0  0  0  0  0  0  0
   -3.9129    3.1038    3.2903 H   0  0  0  0  0  0  0  0  0  0  0  0
   -2.1554    3.1930    3.0689 H   0  0  0  0  0  0  0  0  0  0  0  0
   -5.3815    0.7808    2.4852 N   0  0  0  0  0  0  0  0  0  0  0  0
   -6.7078    0.3795    2.0781 C   0  0  0  0  0  0  0  0  0  0  0  0
   -5.2074    0.9037    3.4784 H   0  0  0  0  0  0  0  0  0  0  0  0
   -7.3235    1.2735    1.9001 H   0  0  0  0  0  0  0  0  0  0  0  0
   -6.6439   -0.2117    1.1527 H   0  0  0  0  0  0  0  0  0  0  0  0
   -7.1662   -0.2293    2.8713 H   0  0  0  0  0  0  0  0  0  0  0  0
  1  3  1  0  0  0  0
  1  7  1  0  0  0  0
  1  2  2  0  0  0  0
 33 34  1  0  0  0  0
 34 42  1  0  0  0  0
 34 35  2  0  0  0  0
  8  9  1  0  0  0  0
  9 17  1  0  0  0  0
  9 10  2  0  0  0  0
 18 19  1  0  0  0  0
 19 32  1  0  0  0  0
 19 20  2  0  0  0  0
 22 23  1  0  0  0  0
 23 24  1  0  0  0  0
 23 25  2  0  0  0  0
 33 36  1  0  0  0  0
  8 11  1  0  0  0  0
 42 43  1  0  0  0  0
 21 22  1  0  0  0  0
 18 21  1  0  0  0  0
 32 33  1  0  0  0  0
  7  8  1  0  0  0  0
 17 18  1  0  0  0  0
  3  4  1  0  0  0  0
  3  5  1  0  0  0  0
  3  6  1  0  0  0  0
 36 39  1  0  0  0  0
 36 40  1  0  0  0  0
 36 41  1  0  0  0  0
 11 14  1  0  0  0  0
 11 15  1  0  0  0  0
 11 16  1  0  0  0  0
 43 45  1  0  0  0  0
 43 46  1  0  0  0  0
 43 47  1  0  0  0  0
 22 30  1  0  0  0  0
 22 31  1  0  0  0  0
 21 28  1  0  0  0  0
 21 29  1  0  0  0  0
 33 38  1  0  0  0  0
  8 13  1  0  0  0  0
 18 27  1  0  0  0  0
 42 44  1  0  0  0  0
  7 12  1  0  0  0  0
 32 37  1  0  0  0  0
 17 26  1  0  0  0  0
M  CHG  1  24  -1
M  END
$$$$

  -OEChem-05262214473D

 47 46  0     1  0  0  0  0  0999 V2000
    0.5093   -4.7265    3.0306 C   0  0  0  0  0  0  0  0  0  0  0  0
    1.2735   -4.4402    3.9448 O   0  0  0  0  0  0  0  0  0  0  0  0
   -0.4465   -5.8608    3.1982 C   0  0  0  0  0  0  0  0  0  0  0  0
   -0.0219   -6.8213    2.8645 H   0  0  0  0  0  0  0  0  0  0  0  0
   -0.7314   -6.0185    4.2509 H   0  0  0  0  0  0  0  0  0  0  0  0
   -1.3983   -5.7596    2.6527 H   0  0  0  0  0  0  0  0  0  0  0  0
    0.4252   -4.0886    1.8040 N   0  0  0  0  0  0  0  0  0  0  0  0
    1.2532   -2.9707    1.4349 C   0  0  2  0  0  0  0  0  0  0  0  0
    0.3395   -1.8293    1.0083 C   0  0  0  0  0  0  0  0  0  0  0  0
   -0.8136   -2.0027    0.6194 O   0  0  0  0  0  0  0  0  0  0  0  0
    2.2176   -3.3411    0.3189 C   0  0  0  0  0  0  0  0  0  0  0  0
   -0.2574   -4.4279    1.1287 H   0  0  0  0  0  0  0  0  0  0  0  0
    1.8087   -2.6785    2.3327 H   0  0  0  0  0  0  0  0  0  0  0  0
    1.6793   -3.6366   -0.5890 H   0  0  0  0  0  0  0  0  0  0  0  0
    2.8662   -2.4980    0.0589 H   0  0  0  0  0  0  0  0  0  0  0  0
    2.8538   -4.1816    0.6166 H   0  0  0  0  0  0  0  0  0  0  0  0
    0.9758   -0.5952    1.0708 N   0  0  0  0  0  0  0  0  0  0  0  0
    0.3258    0.6374    0.7059 C   0  0  2  0  0  0  0  0  0  0  0  0
   -0.6361    0.9996    1.8325 C   0  0  0  0  0  0  0  0  0  0  0  0
   -0.2602    1.4189    2.9253 O   0  0  0  0  0  0  0  0  0  0  0  0
   -0.4300    0.5163   -0.6228 C   0  0  0  0  0  0  0  0  0  0  0  0
    0.4869    0.3158   -1.8288 C   0  0  0  0  0  0  0  0  0  0  0  0
   -0.2058    0.1633   -3.1870 C   0  0  0  0  0  0  0  0  0  0  0  0
   -1.4664    0.0837   -3.1220 O   0  5  0  0  0  0  0  0  0  0  0  0
    0.5459    0.1497   -4.2004 O   0  0  0  0  0  0  0  0  0  0  0  0
    1.9288   -0.5463    1.4242 H   0  0  0  0  0  0  0  0  0  0  0  0
    1.1087    1.4015    0.6520 H   0  0  0  0  0  0  0  0  0  0  0  0
   -1.0537    1.4046   -0.7822 H   0  0  0  0  0  0  0  0  0  0  0  0
   -1.1236   -0.3336   -0.5696 H   0  0  0  0  0  0  0  0  0  0  0  0
    1.2137    1.1348   -1.8867 H   0  0  0  0  0  0  0  0  0  0  0  0
    1.0655   -0.6039   -1.6743 H   0  0  0  0  0  0  0  0  0  0  0  0
   -1.9583    0.7548    1.4886 N   0  0  0  0  0  0  0  0  0  0  0  0
   -3.0605    1.0010    2.3892 C   0  0  2  0  0  0  0  0  0  0  0  0
   -4.2659    0.2207    1.8816 C   0  0  0  0  0  0  0  0  0  0  0  0
   -4.3863   -0.1426    0.7134 O   0  0  0  0  0  0  0  0  0  0  0  0
   -3.3754    2.4857    2.4856 C   0  0  0  0  0  0  0  0  0  0  0  0
   -2.1771    0.4211    0.5545 H   0  0  0  0  0  0  0  0  0  0  0  0
   -2.7606    0.6141    3.3692 H   0  0  0  0  0  0  0  0  0  0  0  0
   -3.6779    2.8911    1.5132 H   0  0  0  0  0  0  0  0  0  0  0  0
   -4.1923    2.6731    3.1904 H   0  0  0  0  0  0  0  0  0  0  0  0
   -2.4985    3.0490    2.8224 H   0  0  0  0  0  0  0  0  0  0  0  0
   -5.2114    0.0152    2.8766 N   0  0  0  0  0  0  0  0  0  0  0  0
   -6.4503   -0.6889    2.6415 C   0  0  0  0  0  0  0  0  0  0  0  0
   -5.0197    0.3346    3.8216 H   0  0  0  0  0  0  0  0  0  0  0  0
   -7.2370    0.0316    2.3733 H   0  0  0  0  0  0  0  0  0  0  0  0
   -6.3139   -1.4059    1.8184 H   0  0  0  0  0  0  0  0  0  0  0  0
   -6.7436   -1.2293    3.5536 H   0  0  0  0  0  0  0  0  0  0  0  0
  1  3  1  0  0  0  0
  1  7  1  0  0  0  0
  1  2  2  0  0  0  0
 33 34  1  0  0  0  0
 34 42  1  0  0  0  0
 34 35  2  0  0  0  0
  8  9  1  0  0  0  0
  9 17  1  0  0  0  0
  9 10  2  0  0  0  0
 18 19  1  0  0  0  0
 19 32  1  0  0  0  0
 19 20  2  0  0  0  0
 22 23  1  0  0  0  0
 23 24  1  0  0  0  0
 23 25  2  0  0  0  0
 33 36  1  0  0  0  0
  8 11  1  0  0  0  0
 42 43  1  0  0  0  0
 21 22  1  0  0  0  0
 18 21  1  0  0  0  0
 32 33  1  0  0  0  0
  7  8  1  0  0  0  0
 17 18  1  0  0  0  0
  3  4  1  0  0  0  0
  3  5  1  0  0  0  0
  3  6  1  0  0  0  0
 36 39  1  0  0  0  0
 36 40  1  0  0  0  0
 36 41  1  0  0  0  0
 11 14  1  0  0  0  0
 11 15  1  0  0  0  0
 11 16  1  0  0  0  0
 43 45  1  0  0  0  0
 43 46  1  0  0  0  0
 43 47  1  0  0  0  0
 22 30  1  0  0  0  0
 22 31  1  0  0  0  0
 21 28  1  0  0  0  0
 21 29  1  0  0  0  0
 33 38  1  0  0  0  0
  8 13  1  0  0  0  0
 18 27  1  0  0  0  0
 42 44  1  0  0  0  0
  7 12  1  0  0  0  0
 32 37  1  0  0  0  0
 17 26  1  0  0  0  0
M  CHG  1  24  -1
M  END
$$$$

  -OEChem-05262214473D

 47 46  0     1  0  0  0  0  0999 V2000
    0.5093   -4.7265    3.0306 C   0  0  0  0  0  0  0  0  0  0  0  0
    1.2735   -4.4402    3.9448 O   0  0  0  0  0  0  0  0  0  0  0  0
   -0.4465   -5.8608    3.1982 C   0  0  0  0  0  0  0  0  0  0  0  0
   -0.0219   -6.8213    2.8645 H   0  0  0  0  0  0  0  0  0  0  0  0
   -0.7314   -6.0185    4.2509 H   0  0  0  0  0  0  0  0  0  0  0  0
   -1.3983   -5.7596    2.6527 H   0  0  0  0  0  0  0  0  0  0  0  0
    0.4252   -4.0886    1.8040 N   0  0  0  0  0  0  0  0  0  0  0  0
    1.2532   -2.9707    1.4349 C   0  0  2  0  0  0  0  0  0  0  0  0
    0.3395   -1.8293    1.0083 C   0  0  0  0  0  0  0  0  0  0  0  0
   -0.8136   -2.0027    0.6194 O   0  0  0  0  0  0  0  0  0  0  0  0
    2.2176   -3.3411    0.3189 C   0  0  0  0  0  0  0  0  0  0  0  0
   -0.2574   -4.4279    1.1287 H   0  0  0  0  0  0  0  0  0  0  0  0
    1.8087   -2.6785    2.3327 H   0  0  0  0  0  0  0  0  0  0  0  0
    1.6793   -3.6366   -0.5890 H   0  0  0  0  0  0  0  0  0  0  0  0
    2.8662   -2.4980    0.0589 H   0  0  0  0  0  0  0  0  0  0  0  0
    2.8538   -4.1816    0.6166 H   0  0  0  0  0  0  0  0  0  0  0  0
    0.9758   -0.5952    1.0708 N   0  0  0  0  0  0  0  0  0  0  0  0
    0.3258    0.6374    0.7059 C   0  0  2  0  0  0  0  0  0  0  0  0
   -0.6361    0.9996    1.8325 C   0  0  0  0  0  0  0  0  0  0  0  0
   -0.3003    1.6603    2.8134 O   0  0  0  0  0  0  0  0  0  0  0  0
   -0.4300    0.5163   -0.6228 C   0  0  0  0  0  0  0  0  0  0  0  0
    0.4869    0.3158   -1.8288 C   0  0  0  0  0  0  0  0  0  0  0  0
   -0.2058    0.1633   -3.1870 C   0  0  0  0  0  0  0  0  0  0  0  0
   -1.4664    0.0837   -3.1220 O   0  5  0  0  0  0  0  0  0  0  0  0
    0.5459    0.1497   -4.2004 O   0  0  0  0  0  0  0  0  0  0  0  0
    1.9288   -0.5463    1.4242 H   0  0  0  0  0  0  0  0  0  0  0  0
    1.1087    1.4015    0.6520 H   0  0  0  0  0  0  0  0  0  0  0  0
   -1.0537    1.4046   -0.7822 H   0  0  0  0  0  0  0  0  0  0  0  0
   -1.1236   -0.3336   -0.5696 H   0  0  0  0  0  0  0  0  0  0  0  0
    1.2137    1.1348   -1.8867 H   0  0  0  0  0  0  0  0  0  0  0  0
    1.0655   -0.6039   -1.6743 H   0  0  0  0  0  0  0  0  0  0  0  0
   -1.8988    0.4584    1.6347 N   0  0  0  0  0  0  0  0  0  0  0  0
   -2.9857    0.6440    2.5680 C   0  0  2  0  0  0  0  0  0  0  0  0
   -4.0363   -0.4215    2.2841 C   0  0  0  0  0  0  0  0  0  0  0  0
   -4.1362   -0.9931    1.2005 O   0  0  0  0  0  0  0  0  0  0  0  0
   -3.5811    2.0386    2.4537 C   0  0  0  0  0  0  0  0  0  0  0  0
   -2.0902   -0.0634    0.7845 H   0  0  0  0  0  0  0  0  0  0  0  0
   -2.5713    0.4911    3.5704 H   0  0  0  0  0  0  0  0  0  0  0  0
   -4.0013    2.2102    1.4560 H   0  0  0  0  0  0  0  0  0  0  0  0
   -4.3859    2.1872    3.1813 H   0  0  0  0  0  0  0  0  0  0  0  0
   -2.8174    2.8040    2.6288 H   0  0  0  0  0  0  0  0  0  0  0  0
   -4.8766   -0.6279    3.3692 N   0  0  0  0  0  0  0  0  0  0  0  0
   -5.9626   -1.5798    3.3443 C   0  0  0  0  0  0  0  0  0  0  0  0
   -4.7085   -0.1232    4.2345 H   0  0  0  0  0  0  0  0  0  0  0  0
   -6.8868   -1.0742    3.0279 H   0  0  0  0  0  0  0  0  0  0  0  0
   -5.7258   -2.3875    2.6362 H   0  0  0  0  0  0  0  0  0  0  0  0
   -6.1022   -2.0030    4.3500 H   0  0  0  0  0  0  0  0  0  0  0  0
  1  3  1  0  0  0  0
  1  7  1  0  0  0  0
  1  2  2  0  0  0  0
 33 34  1  0  0  0  0
 34 42  1  0  0  0  0
 34 35  2  0  0  0  0
  8  9  1  0  0  0  0
  9 17  1  0  0  0  0
  9 10  2  0  0  0  0
 18 19  1  0  0  0  0
 19 32  1  0  0  0  0
 19 20  2  0  0  0  0
 22 23  1  0  0  0  0
 23 24  1  0  0  0  0
 23 25  2  0  0  0  0
 33 36  1  0  0  0  0
  8 11  1  0  0  0  0
 42 43  1  0  0  0  0
 21 22  1  0  0  0  0
 18 21  1  0  0  0  0
 32 33  1  0  0  0  0
  7  8  1  0  0  0  0
 17 18  1  0  0  0  0
  3  4  1  0  0  0  0
  3  5  1  0  0  0  0
  3  6  1  0  0  0  0
 36 39  1  0  0  0  0
 36 40  1  0  0  0  0
 36 41  1  0  0  0  0
 11 14  1  0  0  0  0
 11 15  1  0  0  0  0
 11 16  1  0  0  0  0
 43 45  1  0  0  0  0
 43 46  1  0  0  0  0
 43 47  1  0  0  0  0
 22 30  1  0  0  0  0
 22 31  1  0  0  0  0
 21 28  1  0  0  0  0
 21 29  1  0  0  0  0
 33 38  1  0  0  0  0
  8 13  1  0  0  0  0
 18 27  1  0  0  0  0
 42 44  1  0  0  0  0
  7 12  1  0  0  0  0
 32 37  1  0  0  0  0
 17 26  1  0  0  0  0
M  CHG  1  24  -1
M  END
$$$$

  -OEChem-05262214473D

 47 46  0     1  0  0  0  0  0999 V2000
    0.5093   -4.7265    3.0306 C   0  0  0  0  0  0  0  0  0  0  0  0
    1.2735   -4.4402    3.9448 O   0  0  0  0  0  0  0  0  0  0  0  0
   -0.4465   -5.8608    3.1982 C   0  0  0  0  0  0  0  0  0  0  0  0
   -0.0219   -6.8213    2.8645 H   0  0  0  0  0  0  0  0  0  0  0  0
   -0.7314   -6.0185    4.2509 H   0  0  0  0  0  0  0  0  0  0  0  0
   -1.3983   -5.7596    2.6527 H   0  0  0  0  0  0  0  0  0  0  0  0
    0.4252   -4.0886    1.8040 N   0  0  0  0  0  0  0  0  0  0  0  0
    1.2532   -2.9707    1.4349 C   0  0  2  0  0  0  0  0  0  0  0  0
    0.3395   -1.8293    1.0083 C   0  0  0  0  0  0  0  0  0  0  0  0
   -0.8136   -2.0027    0.6194 O   0  0  0  0  0  0  0  0  0  0  0  0
    2.2176   -3.3411    0.3189 C   0  0  0  0  0  0  0  0  0  0  0  0
   -0.2574   -4.4279    1.1287 H   0  0  0  0  0  0  0  0  0  0  0  0
    1.8087   -2.6785    2.3327 H   0  0  0  0  0  0  0  0  0  0  0  0
    1.6793   -3.6366   -0.5890 H   0  0  0  0  0  0  0  0  0  0  0  0
    2.8662   -2.4980    0.0589 H   0  0  0  0  0  0  0  0  0  0  0  0
    2.8538   -4.1816    0.6166 H   0  0  0  0  0  0  0  0  0  0  0  0
    0.9758   -0.5952    1.0708 N   0  0  0  0  0  0  0  0  0  0  0  0
    0.3258    0.6374    0.7059 C   0  0  2  0  0  0  0  0  0  0  0  0
   -0.6361    0.9996    1.8325 C   0  0  0  0  0  0  0  0  0  0  0  0
   -0.3922    1.8675    2.6683 O   0  0  0  0  0  0  0  0  0  0  0  0
   -0.4300    0.5163   -0.6228 C   0  0  0  0  0  0  0  0  0  0  0  0
    0.4869    0.3158   -1.8288 C   0  0  0  0  0  0  0  0  0  0  0  0
   -0.2058    0.1633   -3.1870 C   0  0  0  0  0  0  0  0  0  0  0  0
   -1.4664    0.0837   -3.1220 O   0  5  0  0  0  0  0  0  0  0  0  0
    0.5459    0.1497   -4.2004 O   0  0  0  0  0  0  0  0  0  0  0  0
    1.9288   -0.5463    1.4242 H   0  0  0  0  0  0  0  0  0  0  0  0
    1.1087    1.4015    0.6520 H   0  0  0  0  0  0  0  0  0  0  0  0
   -1.0537    1.4046   -0.7822 H   0  0  0  0  0  0  0  0  0  0  0  0
   -1.1236   -0.3336   -0.5696 H   0  0  0  0  0  0  0  0  0  0  0  0
    1.2137    1.1348   -1.8867 H   0  0  0  0  0  0  0  0  0  0  0  0
    1.0655   -0.6039   -1.6743 H   0  0  0  0  0  0  0  0  0  0  0  0
   -1.7757    0.2074    1.8205 N   0  0  0  0  0  0  0  0  0  0  0  0
   -2.8341    0.3426    2.7943 C   0  0  2  0  0  0  0  0  0  0  0  0
   -3.6670   -0.9321    2.7637 C   0  0  0  0  0  0  0  0  0  0  0  0
   -3.7020   -1.6874    1.7944 O   0  0  0  0  0  0  0  0  0  0  0  0
   -3.6963    1.5623    2.5085 C   0  0  0  0  0  0  0  0  0  0  0  0
   -1.8995   -0.4771    1.0804 H   0  0  0  0  0  0  0  0  0  0  0  0
   -2.3525    0.4414    3.7732 H   0  0  0  0  0  0  0  0  0  0  0  0
   -4.1871    1.4813    1.5318 H   0  0  0  0  0  0  0  0  0  0  0  0
   -4.4806    1.6795    3.2637 H   0  0  0  0  0  0  0  0  0  0  0  0
   -3.0905    2.4748    2.5015 H   0  0  0  0  0  0  0  0  0  0  0  0
   -4.4000   -1.1047    3.9294 N   0  0  0  0  0  0  0  0  0  0  0  0
   -5.2780   -2.2323    4.1386 C   0  0  0  0  0  0  0  0  0  0  0  0
   -4.2950   -0.4385    4.6890 H   0  0  0  0  0  0  0  0  0  0  0  0
   -6.2969   -1.9685    3.8190 H   0  0  0  0  0  0  0  0  0  0  0  0
   -4.9197   -3.0898    3.5502 H   0  0  0  0  0  0  0  0  0  0  0  0
   -5.2858   -2.4977    5.2061 H   0  0  0  0  0  0  0  0  0  0  0  0
  1  3  1  0  0  0  0
  1  7  1  0  0  0  0
  1  2  2  0  0  0  0
 33 34  1  0  0  0  0
 34 42  1  0  0  0  0
 34 35  2  0  0  0  0
  8  9  1  0  0  0  0
  9 17  1  0  0  0  0
  9 10  2  0  0  0  0
 18 19  1  0  0  0  0
 19 32  1  0  0  0  0
 19 20  2  0  0  0  0
 22 23  1  0  0  0  0
 23 24  1  0  0  0  0
 23 25  2  0  0  0  0
 33 36  1  0  0  0  0
  8 11  1  0  0  0  0
 42 43  1  0  0  0  0
 21 22  1  0  0  0  0
 18 21  1  0  0  0  0
 32 33  1  0  0  0  0
  7  8  1  0  0  0  0
 17 18  1  0  0  0  0
  3  4  1  0  0  0  0
  3  5  1  0  0  0  0
  3  6  1  0  0  0  0
 36 39  1  0  0  0  0
 36 40  1  0  0  0  0
 36 41  1  0  0  0  0
 11 14  1  0  0  0  0
 11 15  1  0  0  0  0
 11 16  1  0  0  0  0
 43 45  1  0  0  0  0
 43 46  1  0  0  0  0
 43 47  1  0  0  0  0
 22 30  1  0  0  0  0
 22 31  1  0  0  0  0
 21 28  1  0  0  0  0
 21 29  1  0  0  0  0
 33 38  1  0  0  0  0
  8 13  1  0  0  0  0
 18 27  1  0  0  0  0
 42 44  1  0  0  0  0
  7 12  1  0  0  0  0
 32 37  1  0  0  0  0
 17 26  1  0  0  0  0
M  CHG  1  24  -1
M  END
$$$$

  -OEChem-05262214473D

 47 46  0     1  0  0  0  0  0999 V2000
    0.5093   -4.7265    3.0306 C   0  0  0  0  0  0  0  0  0  0  0  0
    1.2735   -4.4402    3.9448 O   0  0  0  0  0  0  0  0  0  0  0  0
   -0.4465   -5.8608    3.1982 C   0  0  0  0  0  0  0  0  0  0  0  0
   -0.0219   -6.8213    2.8645 H   0  0  0  0  0  0  0  0  0  0  0  0
   -0.7314   -6.0185    4.2509 H   0  0  0  0  0  0  0  0  0  0  0  0
   -1.3983   -5.7596    2.6527 H   0  0  0  0  0  0  0  0  0  0  0  0
    0.4252   -4.0886    1.8040 N   0  0  0  0  0  0  0  0  0  0  0  0
    1.2532   -2.9707    1.4349 C   0  0  2  0  0  0  0  0  0  0  0  0
    0.3395   -1.8293    1.0083 C   0  0  0  0  0  0  0  0  0  0  0  0
   -0.8136   -2.0027    0.6194 O   0  0  0  0  0  0  0  0  0  0  0  0
    2.2176   -3.3411    0.3189 C   0  0  0  0  0  0  0  0  0  0  0  0
   -0.2574   -4.4279    1.1287 H   0  0  0  0  0  0  0  0  0  0  0  0
    1.8087   -2.6785    2.3327 H   0  0  0  0  0  0  0  0  0  0  0  0
    1.6793   -3.6366   -0.5890 H   0  0  0  0  0  0  0  0  0  0  0  0
    2.8662   -2.4980    0.0589 H   0  0  0  0  0  0  0  0  0  0  0  0
    2.8538   -4.1816    0.6166 H   0  0  0  0  0  0  0  0  0  0  0  0
    0.9758   -0.5952    1.0708 N   0  0  0  0  0  0  0  0  0  0  0  0
    0.3258    0.6374    0.7059 C   0  0  2  0  0  0  0  0  0  0  0  0
   -0.6361    0.9996    1.8325 C   0  0  0  0  0  0  0  0  0  0  0  0
   -0.5294    2.0264    2.5001 O   0  0  0  0  0  0  0  0  0  0  0  0
   -0.4300    0.5163   -0.6228 C   0  0  0  0  0  0  0  0  0  0  0  0
    0.4869    0.3158   -1.8288 C   0  0  0  0  0  0  0  0  0  0  0  0
   -0.2058    0.1633   -3.1870 C   0  0  0  0  0  0  0  0  0  0  0  0
   -1.4664    0.0837   -3.1220 O   0  5  0  0  0  0  0  0  0  0  0  0
    0.5459    0.1497   -4.2004 O   0  0  0  0  0  0  0  0  0  0  0  0
    1.9288   -0.5463    1.4242 H   0  0  0  0  0  0  0  0  0  0  0  0
    1.1087    1.4015    0.6520 H   0  0  0  0  0  0  0  0  0  0  0  0
   -1.0537    1.4046   -0.7822 H   0  0  0  0  0  0  0  0  0  0  0  0
   -1.1236   -0.3336   -0.5696 H   0  0  0  0  0  0  0  0  0  0  0  0
    1.2137    1.1348   -1.8867 H   0  0  0  0  0  0  0  0  0  0  0  0
    1.0655   -0.6039   -1.6743 H   0  0  0  0  0  0  0  0  0  0  0  0
   -1.5973    0.0187    2.0335 N   0  0  0  0  0  0  0  0  0  0  0  0
   -2.6161    0.1174    3.0528 C   0  0  2  0  0  0  0  0  0  0  0  0
   -3.1831   -1.2765    3.2875 C   0  0  0  0  0  0  0  0  0  0  0  0
   -3.1133   -2.1780    2.4548 O   0  0  0  0  0  0  0  0  0  0  0  0
   -3.7132    1.0891    2.6463 C   0  0  0  0  0  0  0  0  0  0  0  0
   -1.6179   -0.7920    1.4220 H   0  0  0  0  0  0  0  0  0  0  0  0
   -2.1192    0.4684    3.9637 H   0  0  0  0  0  0  0  0  0  0  0  0
   -4.2225    0.7541    1.7354 H   0  0  0  0  0  0  0  0  0  0  0  0
   -4.4699    1.1844    3.4321 H   0  0  0  0  0  0  0  0  0  0  0  0
   -3.2993    2.0838    2.4490 H   0  0  0  0  0  0  0  0  0  0  0  0
   -3.8141   -1.3826    4.5191 N   0  0  0  0  0  0  0  0  0  0  0  0
   -4.4431   -2.6020    4.9703 C   0  0  0  0  0  0  0  0  0  0  0  0
   -3.8073   -0.5898    5.1540 H   0  0  0  0  0  0  0  0  0  0  0  0
   -5.5075   -2.5904    4.6930 H   0  0  0  0  0  0  0  0  0  0  0  0
   -3.9507   -3.4649    4.4981 H   0  0  0  0  0  0  0  0  0  0  0  0
   -4.3500   -2.6796    6.0635 H   0  0  0  0  0  0  0  0  0  0  0  0
  1  3  1  0  0  0  0
  1  7  1  0  0  0  0
  1  2  2  0  0  0  0
 33 34  1  0  0  0  0
 34 42  1  0  0  0  0
 34 35  2  0  0  0  0
  8  9  1  0  0  0  0
  9 17  1  0  0  0  0
  9 10  2  0  0  0  0
 18 19  1  0  0  0  0
 19 32  1  0  0  0  0
 19 20  2  0  0  0  0
 22 23  1  0  0  0  0
 23 24  1  0  0  0  0
 23 25  2  0  0  0  0
 33 36  1  0  0  0  0
  8 11  1  0  0  0  0
 42 43  1  0  0  0  0
 21 22  1  0  0  0  0
 18 21  1  0  0  0  0
 32 33  1  0  0  0  0
  7  8  1  0  0  0  0
 17 18  1  0  0  0  0
  3  4  1  0  0  0  0
  3  5  1  0  0  0  0
  3  6  1  0  0  0  0
 36 39  1  0  0  0  0
 36 40  1  0  0  0  0
 36 41  1  0  0  0  0
 11 14  1  0  0  0  0
 11 15  1  0  0  0  0
 11 16  1  0  0  0  0
 43 45  1  0  0  0  0
 43 46  1  0  0  0  0
 43 47  1  0  0  0  0
 22 30  1  0  0  0  0
 22 31  1  0  0  0  0
 21 28  1  0  0  0  0
 21 29  1  0  0  0  0
 33 38  1  0  0  0  0
  8 13  1  0  0  0  0
 18 27  1  0  0  0  0
 42 44  1  0  0  0  0
  7 12  1  0  0  0  0
 32 37  1  0  0  0  0
 17 26  1  0  0  0  0
M  CHG  1  24  -1
M  END
$$$$

  -OEChem-05262214473D

 47 46  0     1  0  0  0  0  0999 V2000
    0.5093   -4.7265    3.0306 C   0  0  0  0  0  0  0  0  0  0  0  0
    1.2735   -4.4402    3.9448 O   0  0  0  0  0  0  0  0  0  0  0  0
   -0.4465   -5.8608    3.1982 C   0  0  0  0  0  0  0  0  0  0  0  0
   -0.0219   -6.8213    2.8645 H   0  0  0  0  0  0  0  0  0  0  0  0
   -0.7314   -6.0185    4.2509 H   0  0  0  0  0  0  0  0  0  0  0  0
   -1.3983   -5.7596    2.6527 H   0  0  0  0  0  0  0  0  0  0  0  0
    0.4252   -4.0886    1.8040 N   0  0  0  0  0  0  0  0  0  0  0  0
    1.2532   -2.9707    1.4349 C   0  0  2  0  0  0  0  0  0  0  0  0
    0.3395   -1.8293    1.0083 C   0  0  0  0  0  0  0  0  0  0  0  0
   -0.8136   -2.0027    0.6194 O   0  0  0  0  0  0  0  0  0  0  0  0
    2.2176   -3.3411    0.3189 C   0  0  0  0  0  0  0  0  0  0  0  0
   -0.2574   -4.4279    1.1287 H   0  0  0  0  0  0  0  0  0  0  0  0
    1.8087   -2.6785    2.3327 H   0  0  0  0  0  0  0  0  0  0  0  0
    1.6793   -3.6366   -0.5890 H   0  0  0  0  0  0  0  0  0  0  0  0
    2.8662   -2.4980    0.0589 H   0  0  0  0  0  0  0  0  0  0  0  0
    2.8538   -4.1816    0.6166 H   0  0  0  0  0  0  0  0  0  0  0  0
    0.9758   -0.5952    1.0708 N   0  0  0  0  0  0  0  0  0  0  0  0
    0.3258    0.6374    0.7059 C   0  0  2  0  0  0  0  0  0  0  0  0
   -0.6361    0.9996    1.8325 C   0  0  0  0  0  0  0  0  0  0  0  0
   -0.7028    2.1262    2.3200 O   0  0  0  0  0  0  0  0  0  0  0  0
   -0.4300    0.5163   -0.6228 C   0  0  0  0  0  0  0  0  0  0  0  0
    0.4869    0.3158   -1.8288 C   0  0  0  0  0  0  0  0  0  0  0  0
   -0.2058    0.1633   -3.1870 C   0  0  0  0  0  0  0  0  0  0  0  0
   -1.4664    0.0837   -3.1220 O   0  5  0  0  0  0  0  0  0  0  0  0
    0.5459    0.1497   -4.2004 O   0  0  0  0  0  0  0  0  0  0  0  0
    1.9288   -0.5463    1.4242 H   0  0  0  0  0  0  0  0  0  0  0  0
    1.1087    1.4015    0.6520 H   0  0  0  0  0  0  0  0  0  0  0  0
   -1.0537    1.4046   -0.7822 H   0  0  0  0  0  0  0  0  0  0  0  0
   -1.1236   -0.3336   -0.5696 H   0  0  0  0  0  0  0  0  0  0  0  0
    1.2137    1.1348   -1.8867 H   0  0  0  0  0  0  0  0  0  0  0  0
    1.0655   -0.6039   -1.6743 H   0  0  0  0  0  0  0  0  0  0  0  0
   -1.3759   -0.0946    2.2590 N   0  0  0  0  0  0  0  0  0  0  0  0
   -2.3467   -0.0162    3.3258 C   0  0  2  0  0  0  0  0  0  0  0  0
   -2.6176   -1.4311    3.8200 C   0  0  0  0  0  0  0  0  0  0  0  0
   -2.4103   -2.4315    3.1365 O   0  0  0  0  0  0  0  0  0  0  0  0
   -3.6305    0.6513    2.8577 C   0  0  0  0  0  0  0  0  0  0  0  0
   -1.2648   -0.9866    1.7861 H   0  0  0  0  0  0  0  0  0  0  0  0
   -1.8873    0.5701    4.1290 H   0  0  0  0  0  0  0  0  0  0  0  0
   -4.1051    0.0781    2.0530 H   0  0  0  0  0  0  0  0  0  0  0  0
   -4.3545    0.7356    3.6748 H   0  0  0  0  0  0  0  0  0  0  0  0
   -3.4293    1.6577    2.4750 H   0  0  0  0  0  0  0  0  0  0  0  0
   -3.1587   -1.4428    5.0980 N   0  0  0  0  0  0  0  0  0  0  0  0
   -3.5149   -2.6637    5.7826 C   0  0  0  0  0  0  0  0  0  0  0  0
   -3.2787   -0.5668    5.5978 H   0  0  0  0  0  0  0  0  0  0  0  0
   -4.5724   -2.8975    5.5901 H   0  0  0  0  0  0  0  0  0  0  0  0
   -2.8847   -3.4871    5.4153 H   0  0  0  0  0  0  0  0  0  0  0  0
   -3.3585   -2.5365    6.8640 H   0  0  0  0  0  0  0  0  0  0  0  0
  1  3  1  0  0  0  0
  1  7  1  0  0  0  0
  1  2  2  0  0  0  0
 33 34  1  0  0  0  0
 34 42  1  0  0  0  0
 34 35  2  0  0  0  0
  8  9  1  0  0  0  0
  9 17  1  0  0  0  0
  9 10  2  0  0  0  0
 18 19  1  0  0  0  0
 19 32  1  0  0  0  0
 19 20  2  0  0  0  0
 22 23  1  0  0  0  0
 23 24  1  0  0  0  0
 23 25  2  0  0  0  0
 33 36  1  0  0  0  0
  8 11  1  0  0  0  0
 42 43  1  0  0  0  0
 21 22  1  0  0  0  0
 18 21  1  0  0  0  0
 32 33  1  0  0  0  0
  7  8  1  0  0  0  0
 17 18  1  0  0  0  0
  3  4  1  0  0  0  0
  3  5  1  0  0  0  0
  3  6  1  0  0  0  0
 36 39  1  0  0  0  0
 36 40  1  0  0  0  0
 36 41  1  0  0  0  0
 11 14  1  0  0  0  0
 11 15  1  0  0  0  0
 11 16  1  0  0  0  0
 43 45  1  0  0  0  0
 43 46  1  0  0  0  0
 43 47  1  0  0  0  0
 22 30  1  0  0  0  0
 22 31  1  0  0  0  0
 21 28  1  0  0  0  0
 21 29  1  0  0  0  0
 33 38  1  0  0  0  0
  8 13  1  0  0  0  0
 18 27  1  0  0  0  0
 42 44  1  0  0  0  0
  7 12  1  0  0  0  0
 32 37  1  0  0  0  0
 17 26  1  0  0  0  0
M  CHG  1  24  -1
M  END
$$$$

  -OEChem-05262214473D

 47 46  0     1  0  0  0  0  0999 V2000
    0.5093   -4.7265    3.0306 C   0  0  0  0  0  0  0  0  0  0  0  0
    1.2735   -4.4402    3.9448 O   0  0  0  0  0  0  0  0  0  0  0  0
   -0.4465   -5.8608    3.1982 C   0  0  0  0  0  0  0  0  0  0  0  0
   -0.0219   -6.8213    2.8645 H   0  0  0  0  0  0  0  0  0  0  0  0
   -0.7314   -6.0185    4.2509 H   0  0  0  0  0  0  0  0  0  0  0  0
   -1.3983   -5.7596    2.6527 H   0  0  0  0  0  0  0  0  0  0  0  0
    0.4252   -4.0886    1.8040 N   0  0  0  0  0  0  0  0  0  0  0  0
    1.2532   -2.9707    1.4349 C   0  0  2  0  0  0  0  0  0  0  0  0
    0.3395   -1.8293    1.0083 C   0  0  0  0  0  0  0  0  0  0  0  0
   -0.8136   -2.0027    0.6194 O   0  0  0  0  0  0  0  0  0  0  0  0
    2.2176   -3.3411    0.3189 C   0  0  0  0  0  0  0  0  0  0  0  0
   -0.2574   -4.4279    1.1287 H   0  0  0  0  0  0  0  0  0  0  0  0
    1.8087   -2.6785    2.3327 H   0  0  0  0  0  0  0  0  0  0  0  0
    1.6793   -3.6366   -0.5890 H   0  0  0  0  0  0  0  0  0  0  0  0
    2.8662   -2.4980    0.0589 H   0  0  0  0  0  0  0  0  0  0  0  0
    2.8538   -4.1816    0.6166 H   0  0  0  0  0  0  0  0  0  0  0  0
    0.9758   -0.5952    1.0708 N   0  0  0  0  0  0  0  0  0  0  0  0
    0.3258    0.6374    0.7059 C   0  0  2  0  0  0  0  0  0  0  0  0
   -0.6361    0.9996    1.8325 C   0  0  0  0  0  0  0  0  0  0  0  0
   -0.9003    2.1601    2.1404 O   0  0  0  0  0  0  0  0  0  0  0  0
   -0.4300    0.5163   -0.6228 C   0  0  0  0  0  0  0  0  0  0  0  0
    0.4869    0.3158   -1.8288 C   0  0  0  0  0  0  0  0  0  0  0  0
   -0.2058    0.1633   -3.1870 C   0  0  0  0  0  0  0  0  0  0  0  0
   -1.4664    0.0837   -3.1220 O   0  5  0  0  0  0  0  0  0  0  0  0
    0.5459    0.1497   -4.2004 O   0  0  0  0  0  0  0  0  0  0  0  0
    1.9288   -0.5463    1.4242 H   0  0  0  0  0  0  0  0  0  0  0  0
    1.1087    1.4015    0.6520 H   0  0  0  0  0  0  0  0  0  0  0  0
   -1.0537    1.4046   -0.7822 H   0  0  0  0  0  0  0  0  0  0  0  0
   -1.1236   -0.3336   -0.5696 H   0  0  0  0  0  0  0  0  0  0  0  0
    1.2137    1.1348   -1.8867 H   0  0  0  0  0  0  0  0  0  0  0  0
    1.0655   -0.6039   -1.6743 H   0  0  0  0  0  0  0  0  0  0  0  0
   -1.1264   -0.1249    2.4817 N   0  0  0  0  0  0  0  0  0  0  0  0
   -2.0441   -0.0492    3.5948 C   0  0  2  0  0  0  0  0  0  0  0  0
   -2.0092   -1.3854    4.3248 C   0  0  0  0  0  0  0  0  0  0  0  0
   -1.6409   -2.4308    3.7931 O   0  0  0  0  0  0  0  0  0  0  0  0
   -3.4539    0.2787    3.1283 C   0  0  0  0  0  0  0  0  0  0  0  0
   -0.8641   -1.0476    2.1478 H   0  0  0  0  0  0  0  0  0  0  0  0
   -1.6725    0.7397    4.2578 H   0  0  0  0  0  0  0  0  0  0  0  0
   -3.8430   -0.5005    2.4628 H   0  0  0  0  0  0  0  0  0  0  0  0
   -4.1424    0.3639    3.9755 H   0  0  0  0  0  0  0  0  0  0  0  0
   -3.4719    1.2254    2.5777 H   0  0  0  0  0  0  0  0  0  0  0  0
   -2.4785   -1.2812    5.6267 N   0  0  0  0  0  0  0  0  0  0  0  0
   -2.5565   -2.4132    6.5203 C   0  0  0  0  0  0  0  0  0  0  0  0
   -2.7453   -0.3711    5.9903 H   0  0  0  0  0  0  0  0  0  0  0  0
   -3.5552   -2.8688    6.4494 H   0  0  0  0  0  0  0  0  0  0  0  0
   -1.7944   -3.1550    6.2394 H   0  0  0  0  0  0  0  0  0  0  0  0
   -2.3790   -2.0780    7.5528 H   0  0  0  0  0  0  0  0  0  0  0  0
  1  3  1  0  0  0  0
  1  7  1  0  0  0  0
  1  2  2  0  0  0  0
 33 34  1  0  0  0  0
 34 42  1  0  0  0  0
 34 35  2  0  0  0  0
  8  9  1  0  0  0  0
  9 17  1  0  0  0  0
  9 10  2  0  0  0  0
 18 19  1  0  0  0  0
 19 32  1  0  0  0  0
 19 20  2  0  0  0  0
 22 23  1  0  0  0  0
 23 24  1  0  0  0  0
 23 25  2  0  0  0  0
 33 36  1  0  0  0  0
  8 11  1  0  0  0  0
 42 43  1  0  0  0  0
 21 22  1  0  0  0  0
 18 21  1  0  0  0  0
 32 33  1  0  0  0  0
  7  8  1  0  0  0  0
 17 18  1  0  0  0  0
  3  4  1  0  0  0  0
  3  5  1  0  0  0  0
  3  6  1  0  0  0  0
 36 39  1  0  0  0  0
 36 40  1  0  0  0  0
 36 41  1  0  0  0  0
 11 14  1  0  0  0  0
 11 15  1  0  0  0  0
 11 16  1  0  0  0  0
 43 45  1  0  0  0  0
 43 46  1  0  0  0  0
 43 47  1  0  0  0  0
 22 30  1  0  0  0  0
 22 31  1  0  0  0  0
 21 28  1  0  0  0  0
 21 29  1  0  0  0  0
 33 38  1  0  0  0  0
  8 13  1  0  0  0  0
 18 27  1  0  0  0  0
 42 44  1  0  0  0  0
  7 12  1  0  0  0  0
 32 37  1  0  0  0  0
 17 26  1  0  0  0  0
M  CHG  1  24  -1
M  END
$$$$

  -OEChem-05262214473D

 47 46  0     1  0  0  0  0  0999 V2000
    0.5093   -4.7265    3.0306 C   0  0  0  0  0  0  0  0  0  0  0  0
    1.2735   -4.4402    3.9448 O   0  0  0  0  0  0  0  0  0  0  0  0
   -0.4465   -5.8608    3.1982 C   0  0  0  0  0  0  0  0  0  0  0  0
   -0.0219   -6.8213    2.8645 H   0  0  0  0  0  0  0  0  0  0  0  0
   -0.7314   -6.0185    4.2509 H   0  0  0  0  0  0  0  0  0  0  0  0
   -1.3983   -5.7596    2.6527 H   0  0  0  0  0  0  0  0  0  0  0  0
    0.4252   -4.0886    1.8040 N   0  0  0  0  0  0  0  0  0  0  0  0
    1.2532   -2.9707    1.4349 C   0  0  2  0  0  0  0  0  0  0  0  0
    0.3395   -1.8293    1.0083 C   0  0  0  0  0  0  0  0  0  0  0  0
   -0.8136   -2.0027    0.6194 O   0  0  0  0  0  0  0  0  0  0  0  0
    2.2176   -3.3411    0.3189 C   0  0  0  0  0  0  0  0  0  0  0  0
   -0.2574   -4.4279    1.1287 H   0  0  0  0  0  0  0  0  0  0  0  0
    1.8087   -2.6785    2.3327 H   0  0  0  0  0  0  0  0  0  0  0  0
    1.6793   -3.6366   -0.5890 H   0  0  0  0  0  0  0  0  0  0  0  0
    2.8662   -2.4980    0.0589 H   0  0  0  0  0  0  0  0  0  0  0  0
    2.8538   -4.1816    0.6166 H   0  0  0  0  0  0  0  0  0  0  0  0
    0.9758   -0.5952    1.0708 N   0  0  0  0  0  0  0  0  0  0  0  0
    0.3258    0.6374    0.7059 C   0  0  2  0  0  0  0  0  0  0  0  0
   -0.6361    0.9996    1.8325 C   0  0  0  0  0  0  0  0  0  0  0  0
   -1.1087    2.1257    1.9736 O   0  0  0  0  0  0  0  0  0  0  0  0
   -0.4300    0.5163   -0.6228 C   0  0  0  0  0  0  0  0  0  0  0  0
    0.4869    0.3158   -1.8288 C   0  0  0  0  0  0  0  0  0  0  0  0
   -0.2058    0.1633   -3.1870 C   0  0  0  0  0  0  0  0  0  0  0  0
   -1.4664    0.0837   -3.1220 O   0  5  0  0  0  0  0  0  0  0  0  0
    0.5459    0.1497   -4.2004 O   0  0  0  0  0  0  0  0  0  0  0  0
    1.9288   -0.5463    1.4242 H   0  0  0  0  0  0  0  0  0  0  0  0
    1.1087    1.4015    0.6520 H   0  0  0  0  0  0  0  0  0  0  0  0
   -1.0537    1.4046   -0.7822 H   0  0  0  0  0  0  0  0  0  0  0  0
   -1.1236   -0.3336   -0.5696 H   0  0  0  0  0  0  0  0  0  0  0  0
    1.2137    1.1348   -1.8867 H   0  0  0  0  0  0  0  0  0  0  0  0
    1.0655   -0.6039   -1.6743 H   0  0  0  0  0  0  0  0  0  0  0  0
   -0.8660   -0.0702    2.6864 N   0  0  0  0  0  0  0  0  0  0  0  0
   -1.7289    0.0207    3.8413 C   0  0  2  0  0  0  0  0  0  0  0  0
   -1.3991   -1.1425    4.7675 C   0  0  0  0  0  0  0  0  0  0  0  0
   -0.8574   -2.1757    4.3800 O   0  0  0  0  0  0  0  0  0  0  0  0
   -3.1954   -0.0032    3.4396 C   0  0  0  0  0  0  0  0  0  0  0  0
   -0.4431   -0.9709    2.4825 H   0  0  0  0  0  0  0  0  0  0  0  0
   -1.4896    0.9656    4.3413 H   0  0  0  0  0  0  0  0  0  0  0  0
   -3.4540   -0.9424    2.9371 H   0  0  0  0  0  0  0  0  0  0  0  0
   -3.8479    0.0945    4.3135 H   0  0  0  0  0  0  0  0  0  0  0  0
   -3.4241    0.8165    2.7500 H   0  0  0  0  0  0  0  0  0  0  0  0
   -1.8199   -0.9087    6.0692 N   0  0  0  0  0  0  0  0  0  0  0  0
   -1.6333   -1.8676    7.1330 C   0  0  0  0  0  0  0  0  0  0  0  0
   -2.2433   -0.0159    6.3047 H   0  0  0  0  0  0  0  0  0  0  0  0
   -2.5253   -2.5064    7.2121 H   0  0  0  0  0  0  0  0  0  0  0  0
   -0.7540   -2.4913    6.9142 H   0  0  0  0  0  0  0  0  0  0  0  0
   -1.4782   -1.3354    8.0831 H   0  0  0  0  0  0  0  0  0  0  0  0
  1  3  1  0  0  0  0
  1  7  1  0  0  0  0
  1  2  2  0  0  0  0
 33 34  1  0  0  0  0
 34 42  1  0  0  0  0
 34 35  2  0  0  0  0
  8  9  1  0  0  0  0
  9 17  1  0  0  0  0
  9 10  2  0  0  0  0
 18 19  1  0  0  0  0
 19 32  1  0  0  0  0
 19 20  2  0  0  0  0
 22 23  1  0  0  0  0
 23 24  1  0  0  0  0
 23 25  2  0  0  0  0
 33 36  1  0  0  0  0
  8 11  1  0  0  0  0
 42 43  1  0  0  0  0
 21 22  1  0  0  0  0
 18 21  1  0  0  0  0
 32 33  1  0  0  0  0
  7  8  1  0  0  0  0
 17 18  1  0  0  0  0
  3  4  1  0  0  0  0
  3  5  1  0  0  0  0
  3  6  1  0  0  0  0
 36 39  1  0  0  0  0
 36 40  1  0  0  0  0
 36 41  1  0  0  0  0
 11 14  1  0  0  0  0
 11 15  1  0  0  0  0
 11 16  1  0  0  0  0
 43 45  1  0  0  0  0
 43 46  1  0  0  0  0
 43 47  1  0  0  0  0
 22 30  1  0  0  0  0
 22 31  1  0  0  0  0
 21 28  1  0  0  0  0
 21 29  1  0  0  0  0
 33 38  1  0  0  0  0
  8 13  1  0  0  0  0
 18 27  1  0  0  0  0
 42 44  1  0  0  0  0
  7 12  1  0  0  0  0
 32 37  1  0  0  0  0
 17 26  1  0  0  0  0
M  CHG  1  24  -1
M  END
$$$$

  -OEChem-05262214473D

 47 46  0     1  0  0  0  0  0999 V2000
    0.5093   -4.7265    3.0306 C   0  0  0  0  0  0  0  0  0  0  0  0
    1.2735   -4.4402    3.9448 O   0  0  0  0  0  0  0  0  0  0  0  0
   -0.4465   -5.8608    3.1982 C   0  0  0  0  0  0  0  0  0  0  0  0
   -0.0219   -6.8213    2.8645 H   0  0  0  0  0  0  0  0  0  0  0  0
   -0.7314   -6.0185    4.2509 H   0  0  0  0  0  0  0  0  0  0  0  0
   -1.3983   -5.7596    2.6527 H   0  0  0  0  0  0  0  0  0  0  0  0
    0.4252   -4.0886    1.8040 N   0  0  0  0  0  0  0  0  0  0  0  0
    1.2532   -2.9707    1.4349 C   0  0  2  0  0  0  0  0  0  0  0  0
    0.3395   -1.8293    1.0083 C   0  0  0  0  0  0  0  0  0  0  0  0
   -0.8136   -2.0027    0.6194 O   0  0  0  0  0  0  0  0  0  0  0  0
    2.2176   -3.3411    0.3189 C   0  0  0  0  0  0  0  0  0  0  0  0
   -0.2574   -4.4279    1.1287 H   0  0  0  0  0  0  0  0  0  0  0  0
    1.8087   -2.6785    2.3327 H   0  0  0  0  0  0  0  0  0  0  0  0
    1.6793   -3.6366   -0.5890 H   0  0  0  0  0  0  0  0  0  0  0  0
    2.8662   -2.4980    0.0589 H   0  0  0  0  0  0  0  0  0  0  0  0
    2.8538   -4.1816    0.6166 H   0  0  0  0  0  0  0  0  0  0  0  0
    0.9758   -0.5952    1.0708 N   0  0  0  0  0  0  0  0  0  0  0  0
    0.3258    0.6374    0.7059 C   0  0  2  0  0  0  0  0  0  0  0  0
   -0.6361    0.9996    1.8325 C   0  0  0  0  0  0  0  0  0  0  0  0
   -1.3136    2.0254    1.8309 O   0  0  0  0  0  0  0  0  0  0  0  0
   -0.4300    0.5163   -0.6228 C   0  0  0  0  0  0  0  0  0  0  0  0
    0.4869    0.3158   -1.8288 C   0  0  0  0  0  0  0  0  0  0  0  0
   -0.2058    0.1633   -3.1870 C   0  0  0  0  0  0  0  0  0  0  0  0
   -1.4664    0.0837   -3.1220 O   0  5  0  0  0  0  0  0  0  0  0  0
    0.5459    0.1497   -4.2004 O   0  0  0  0  0  0  0  0  0  0  0  0
    1.9288   -0.5463    1.4242 H   0  0  0  0  0  0  0  0  0  0  0  0
    1.1087    1.4015    0.6520 H   0  0  0  0  0  0  0  0  0  0  0  0
   -1.0537    1.4046   -0.7822 H   0  0  0  0  0  0  0  0  0  0  0  0
   -1.1236   -0.3336   -0.5696 H   0  0  0  0  0  0  0  0  0  0  0  0
    1.2137    1.1348   -1.8867 H   0  0  0  0  0  0  0  0  0  0  0  0
    1.0655   -0.6039   -1.6743 H   0  0  0  0  0  0  0  0  0  0  0  0
   -0.6123    0.0660    2.8592 N   0  0  0  0  0  0  0  0  0  0  0  0
   -1.4227    0.1888    4.0487 C   0  0  2  0  0  0  0  0  0  0  0  0
   -0.8291   -0.7189    5.1180 C   0  0  0  0  0  0  0  0  0  0  0  0
   -0.1134   -1.6837    4.8571 O   0  0  0  0  0  0  0  0  0  0  0  0
   -2.8728   -0.1753    3.7704 C   0  0  0  0  0  0  0  0  0  0  0  0
   -0.0306   -0.7616    2.7674 H   0  0  0  0  0  0  0  0  0  0  0  0
   -1.3510    1.2324    4.3739 H   0  0  0  0  0  0  0  0  0  0  0  0
   -2.9645   -1.2175    3.4434 H   0  0  0  0  0  0  0  0  0  0  0  0
   -3.4911   -0.0543    4.6660 H   0  0  0  0  0  0  0  0  0  0  0  0
   -3.2891    0.4588    2.9803 H   0  0  0  0  0  0  0  0  0  0  0  0
   -1.2278   -0.3507    6.3953 N   0  0  0  0  0  0  0  0  0  0  0  0
   -0.8083   -1.0640    7.5790 C   0  0  0  0  0  0  0  0  0  0  0  0
   -1.8070    0.4744    6.5195 H   0  0  0  0  0  0  0  0  0  0  0  0
   -1.5529   -1.8349    7.8263 H   0  0  0  0  0  0  0  0  0  0  0  0
    0.1654   -1.5410    7.3937 H   0  0  0  0  0  0  0  0  0  0  0  0
   -0.7174   -0.3593    8.4187 H   0  0  0  0  0  0  0  0  0  0  0  0
  1  3  1  0  0  0  0
  1  7  1  0  0  0  0
  1  2  2  0  0  0  0
 33 34  1  0  0  0  0
 34 42  1  0  0  0  0
 34 35  2  0  0  0  0
  8  9  1  0  0  0  0
  9 17  1  0  0  0  0
  9 10  2  0  0  0  0
 18 19  1  0  0  0  0
 19 32  1  0  0  0  0
 19 20  2  0  0  0  0
 22 23  1  0  0  0  0
 23 24  1  0  0  0  0
 23 25  2  0  0  0  0
 33 36  1  0  0  0  0
  8 11  1  0  0  0  0
 42 43  1  0  0  0  0
 21 22  1  0  0  0  0
 18 21  1  0  0  0  0
 32 33  1  0  0  0  0
  7  8  1  0  0  0  0
 17 18  1  0  0  0  0
  3  4  1  0  0  0  0
  3  5  1  0  0  0  0
  3  6  1  0  0  0  0
 36 39  1  0  0  0  0
 36 40  1  0  0  0  0
 36 41  1  0  0  0  0
 11 14  1  0  0  0  0
 11 15  1  0  0  0  0
 11 16  1  0  0  0  0
 43 45  1  0  0  0  0
 43 46  1  0  0  0  0
 43 47  1  0  0  0  0
 22 30  1  0  0  0  0
 22 31  1  0  0  0  0
 21 28  1  0  0  0  0
 21 29  1  0  0  0  0
 33 38  1  0  0  0  0
  8 13  1  0  0  0  0
 18 27  1  0  0  0  0
 42 44  1  0  0  0  0
  7 12  1  0  0  0  0
 32 37  1  0  0  0  0
 17 26  1  0  0  0  0
M  CHG  1  24  -1
M  END
$$$$

  -OEChem-05262214473D

 47 46  0     1  0  0  0  0  0999 V2000
    0.5093   -4.7265    3.0306 C   0  0  0  0  0  0  0  0  0  0  0  0
    1.2735   -4.4402    3.9448 O   0  0  0  0  0  0  0  0  0  0  0  0
   -0.4465   -5.8608    3.1982 C   0  0  0  0  0  0  0  0  0  0  0  0
   -0.0219   -6.8213    2.8645 H   0  0  0  0  0  0  0  0  0  0  0  0
   -0.7314   -6.0185    4.2509 H   0  0  0  0  0  0  0  0  0  0  0  0
   -1.3983   -5.7596    2.6527 H   0  0  0  0  0  0  0  0  0  0  0  0
    0.4252   -4.0886    1.8040 N   0  0  0  0  0  0  0  0  0  0  0  0
    1.2532   -2.9707    1.4349 C   0  0  2  0  0  0  0  0  0  0  0  0
    0.3395   -1.8293    1.0083 C   0  0  0  0  0  0  0  0  0  0  0  0
   -0.8136   -2.0027    0.6194 O   0  0  0  0  0  0  0  0  0  0  0  0
    2.2176   -3.3411    0.3189 C   0  0  0  0  0  0  0  0  0  0  0  0
   -0.2574   -4.4279    1.1287 H   0  0  0  0  0  0  0  0  0  0  0  0
    1.8087   -2.6785    2.3327 H   0  0  0  0  0  0  0  0  0  0  0  0
    1.6793   -3.6366   -0.5890 H   0  0  0  0  0  0  0  0  0  0  0  0
    2.8662   -2.4980    0.0589 H   0  0  0  0  0  0  0  0  0  0  0  0
    2.8538   -4.1816    0.6166 H   0  0  0  0  0  0  0  0  0  0  0  0
    0.9758   -0.5952    1.0708 N   0  0  0  0  0  0  0  0  0  0  0  0
    0.3258    0.6374    0.7059 C   0  0  2  0  0  0  0  0  0  0  0  0
   -0.6361    0.9996    1.8325 C   0  0  0  0  0  0  0  0  0  0  0  0
   -1.5011    1.8661    1.7220 O   0  0  0  0  0  0  0  0  0  0  0  0
   -0.4300    0.5163   -0.6228 C   0  0  0  0  0  0  0  0  0  0  0  0
    0.4869    0.3158   -1.8288 C   0  0  0  0  0  0  0  0  0  0  0  0
   -0.2058    0.1633   -3.1870 C   0  0  0  0  0  0  0  0  0  0  0  0
   -1.4664    0.0837   -3.1220 O   0  5  0  0  0  0  0  0  0  0  0  0
    0.5459    0.1497   -4.2004 O   0  0  0  0  0  0  0  0  0  0  0  0
    1.9288   -0.5463    1.4242 H   0  0  0  0  0  0  0  0  0  0  0  0
    1.1087    1.4015    0.6520 H   0  0  0  0  0  0  0  0  0  0  0  0
   -1.0537    1.4046   -0.7822 H   0  0  0  0  0  0  0  0  0  0  0  0
   -1.1236   -0.3336   -0.5696 H   0  0  0  0  0  0  0  0  0  0  0  0
    1.2137    1.1348   -1.8867 H   0  0  0  0  0  0  0  0  0  0  0  0
    1.0655   -0.6039   -1.6743 H   0  0  0  0  0  0  0  0  0  0  0  0
   -0.3827    0.2741    2.9883 N   0  0  0  0  0  0  0  0  0  0  0  0
   -1.1463    0.4435    4.2028 C   0  0  2  0  0  0  0  0  0  0  0  0
   -0.3379   -0.1436    5.3523 C   0  0  0  0  0  0  0  0  0  0  0  0
    0.5406   -0.9883    5.1918 O   0  0  0  0  0  0  0  0  0  0  0  0
   -2.5078   -0.2259    4.0982 C   0  0  0  0  0  0  0  0  0  0  0  0
    0.3453   -0.4341    2.9831 H   0  0  0  0  0  0  0  0  0  0  0  0
   -1.2661    1.5219    4.3533 H   0  0  0  0  0  0  0  0  0  0  0  0
   -2.4080   -1.3069    3.9473 H   0  0  0  0  0  0  0  0  0  0  0  0
   -3.0964   -0.0723    5.0087 H   0  0  0  0  0  0  0  0  0  0  0  0
   -3.0761    0.1767    3.2528 H   0  0  0  0  0  0  0  0  0  0  0  0
   -0.7425    0.3548    6.5828 N   0  0  0  0  0  0  0  0  0  0  0  0
   -0.1375   -0.0573    7.8279 C   0  0  0  0  0  0  0  0  0  0  0  0
   -1.4661    1.0666    6.6202 H   0  0  0  0  0  0  0  0  0  0  0  0
   -0.7043   -0.9001    8.2503 H   0  0  0  0  0  0  0  0  0  0  0  0
    0.9014   -0.3691    7.6451 H   0  0  0  0  0  0  0  0  0  0  0  0
   -0.1486    0.7838    8.5368 H   0  0  0  0  0  0  0  0  0  0  0  0
  1  3  1  0  0  0  0
  1  7  1  0  0  0  0
  1  2  2  0  0  0  0
 33 34  1  0  0  0  0
 34 42  1  0  0  0  0
 34 35  2  0  0  0  0
  8  9  1  0  0  0  0
  9 17  1  0  0  0  0
  9 10  2  0  0  0  0
 18 19  1  0  0  0  0
 19 32  1  0  0  0  0
 19 20  2  0  0  0  0
 22 23  1  0  0  0  0
 23 24  1  0  0  0  0
 23 25  2  0  0  0  0
 33 36  1  0  0  0  0
  8 11  1  0  0  0  0
 42 43  1  0  0  0  0
 21 22  1  0  0  0  0
 18 21  1  0  0  0  0
 32 33  1  0  0  0  0
  7  8  1  0  0  0  0
 17 18  1  0  0  0  0
  3  4  1  0  0  0  0
  3  5  1  0  0  0  0
  3  6  1  0  0  0  0
 36 39  1  0  0  0  0
 36 40  1  0  0  0  0
 36 41  1  0  0  0  0
 11 14  1  0  0  0  0
 11 15  1  0  0  0  0
 11 16  1  0  0  0  0
 43 45  1  0  0  0  0
 43 46  1  0  0  0  0
 43 47  1  0  0  0  0
 22 30  1  0  0  0  0
 22 31  1  0  0  0  0
 21 28  1  0  0  0  0
 21 29  1  0  0  0  0
 33 38  1  0  0  0  0
  8 13  1  0  0  0  0
 18 27  1  0  0  0  0
 42 44  1  0  0  0  0
  7 12  1  0  0  0  0
 32 37  1  0  0  0  0
 17 26  1  0  0  0  0
M  CHG  1  24  -1
M  END
$$$$

  -OEChem-05262214473D

 47 46  0     1  0  0  0  0  0999 V2000
    0.5093   -4.7265    3.0306 C   0  0  0  0  0  0  0  0  0  0  0  0
    1.2735   -4.4402    3.9448 O   0  0  0  0  0  0  0  0  0  0  0  0
   -0.4465   -5.8608    3.1982 C   0  0  0  0  0  0  0  0  0  0  0  0
   -0.0219   -6.8213    2.8645 H   0  0  0  0  0  0  0  0  0  0  0  0
   -0.7314   -6.0185    4.2509 H   0  0  0  0  0  0  0  0  0  0  0  0
   -1.3983   -5.7596    2.6527 H   0  0  0  0  0  0  0  0  0  0  0  0
    0.4252   -4.0886    1.8040 N   0  0  0  0  0  0  0  0  0  0  0  0
    1.2532   -2.9707    1.4349 C   0  0  2  0  0  0  0  0  0  0  0  0
    0.3395   -1.8293    1.0083 C   0  0  0  0  0  0  0  0  0  0  0  0
   -0.8136   -2.0027    0.6194 O   0  0  0  0  0  0  0  0  0  0  0  0
    2.2176   -3.3411    0.3189 C   0  0  0  0  0  0  0  0  0  0  0  0
   -0.2574   -4.4279    1.1287 H   0  0  0  0  0  0  0  0  0  0  0  0
    1.8087   -2.6785    2.3327 H   0  0  0  0  0  0  0  0  0  0  0  0
    1.6793   -3.6366   -0.5890 H   0  0  0  0  0  0  0  0  0  0  0  0
    2.8662   -2.4980    0.0589 H   0  0  0  0  0  0  0  0  0  0  0  0
    2.8538   -4.1816    0.6166 H   0  0  0  0  0  0  0  0  0  0  0  0
    0.9758   -0.5952    1.0708 N   0  0  0  0  0  0  0  0  0  0  0  0
    0.3258    0.6374    0.7059 C   0  0  2  0  0  0  0  0  0  0  0  0
   -0.6361    0.9996    1.8325 C   0  0  0  0  0  0  0  0  0  0  0  0
   -1.6585    1.6586    1.6544 O   0  0  0  0  0  0  0  0  0  0  0  0
   -0.4300    0.5163   -0.6228 C   0  0  0  0  0  0  0  0  0  0  0  0
    0.4869    0.3158   -1.8288 C   0  0  0  0  0  0  0  0  0  0  0  0
   -0.2058    0.1633   -3.1870 C   0  0  0  0  0  0  0  0  0  0  0  0
   -1.4664    0.0837   -3.1220 O   0  5  0  0  0  0  0  0  0  0  0  0
    0.5459    0.1497   -4.2004 O   0  0  0  0  0  0  0  0  0  0  0  0
    1.9288   -0.5463    1.4242 H   0  0  0  0  0  0  0  0  0  0  0  0
    1.1087    1.4015    0.6520 H   0  0  0  0  0  0  0  0  0  0  0  0
   -1.0537    1.4046   -0.7822 H   0  0  0  0  0  0  0  0  0  0  0  0
   -1.1236   -0.3336   -0.5696 H   0  0  0  0  0  0  0  0  0  0  0  0
    1.2137    1.1348   -1.8867 H   0  0  0  0  0  0  0  0  0  0  0  0
    1.0655   -0.6039   -1.6743 H   0  0  0  0  0  0  0  0  0  0  0  0
   -0.1928    0.5402    3.0649 N   0  0  0  0  0  0  0  0  0  0  0  0
   -0.9185    0.7675    4.2930 C   0  0  2  0  0  0  0  0  0  0  0  0
    0.0409    0.5442    5.4545 C   0  0  0  0  0  0  0  0  0  0  0  0
    1.0599   -0.1369    5.3614 O   0  0  0  0  0  0  0  0  0  0  0  0
   -2.1255   -0.1514    4.4007 C   0  0  0  0  0  0  0  0  0  0  0  0
    0.6591   -0.0107    3.1148 H   0  0  0  0  0  0  0  0  0  0  0  0
   -1.2408    1.8144    4.2808 H   0  0  0  0  0  0  0  0  0  0  0  0
   -1.8224   -1.2047    4.4143 H   0  0  0  0  0  0  0  0  0  0  0  0
   -2.6907    0.0418    5.3185 H   0  0  0  0  0  0  0  0  0  0  0  0
   -2.7997   -0.0106    3.5490 H   0  0  0  0  0  0  0  0  0  0  0  0
   -0.3970    1.1595    6.6189 N   0  0  0  0  0  0  0  0  0  0  0  0
    0.3331    1.0840    7.8627 C   0  0  0  0  0  0  0  0  0  0  0  0
   -1.2439    1.7201    6.5997 H   0  0  0  0  0  0  0  0  0  0  0  0
   -0.0373    0.2343    8.4550 H   0  0  0  0  0  0  0  0  0  0  0  0
    1.4036    0.9446    7.6515 H   0  0  0  0  0  0  0  0  0  0  0  0
    0.1895    2.0159    8.4293 H   0  0  0  0  0  0  0  0  0  0  0  0
  1  3  1  0  0  0  0
  1  7  1  0  0  0  0
  1  2  2  0  0  0  0
 33 34  1  0  0  0  0
 34 42  1  0  0  0  0
 34 35  2  0  0  0  0
  8  9  1  0  0  0  0
  9 17  1  0  0  0  0
  9 10  2  0  0  0  0
 18 19  1  0  0  0  0
 19 32  1  0  0  0  0
 19 20  2  0  0  0  0
 22 23  1  0  0  0  0
 23 24  1  0  0  0  0
 23 25  2  0  0  0  0
 33 36  1  0  0  0  0
  8 11  1  0  0  0  0
 42 43  1  0  0  0  0
 21 22  1  0  0  0  0
 18 21  1  0  0  0  0
 32 33  1  0  0  0  0
  7  8  1  0  0  0  0
 17 18  1  0  0  0  0
  3  4  1  0  0  0  0
  3  5  1  0  0  0  0
  3  6  1  0  0  0  0
 36 39  1  0  0  0  0
 36 40  1  0  0  0  0
 36 41  1  0  0  0  0
 11 14  1  0  0  0  0
 11 15  1  0  0  0  0
 11 16  1  0  0  0  0
 43 45  1  0  0  0  0
 43 46  1  0  0  0  0
 43 47  1  0  0  0  0
 22 30  1  0  0  0  0
 22 31  1  0  0  0  0
 21 28  1  0  0  0  0
 21 29  1  0  0  0  0
 33 38  1  0  0  0  0
  8 13  1  0  0  0  0
 18 27  1  0  0  0  0
 42 44  1  0  0  0  0
  7 12  1  0  0  0  0
 32 37  1  0  0  0  0
 17 26  1  0  0  0  0
M  CHG  1  24  -1
M  END
$$$$

  -OEChem-05262214473D

 47 46  0     1  0  0  0  0  0999 V2000
    0.5093   -4.7265    3.0306 C   0  0  0  0  0  0  0  0  0  0  0  0
    1.2735   -4.4402    3.9448 O   0  0  0  0  0  0  0  0  0  0  0  0
   -0.4465   -5.8608    3.1982 C   0  0  0  0  0  0  0  0  0  0  0  0
   -0.0219   -6.8213    2.8645 H   0  0  0  0  0  0  0  0  0  0  0  0
   -0.7314   -6.0185    4.2509 H   0  0  0  0  0  0  0  0  0  0  0  0
   -1.3983   -5.7596    2.6527 H   0  0  0  0  0  0  0  0  0  0  0  0
    0.4252   -4.0886    1.8040 N   0  0  0  0  0  0  0  0  0  0  0  0
    1.2532   -2.9707    1.4349 C   0  0  2  0  0  0  0  0  0  0  0  0
    0.3395   -1.8293    1.0083 C   0  0  0  0  0  0  0  0  0  0  0  0
   -0.8136   -2.0027    0.6194 O   0  0  0  0  0  0  0  0  0  0  0  0
    2.2176   -3.3411    0.3189 C   0  0  0  0  0  0  0  0  0  0  0  0
   -0.2574   -4.4279    1.1287 H   0  0  0  0  0  0  0  0  0  0  0  0
    1.8087   -2.6785    2.3327 H   0  0  0  0  0  0  0  0  0  0  0  0
    1.6793   -3.6366   -0.5890 H   0  0  0  0  0  0  0  0  0  0  0  0
    2.8662   -2.4980    0.0589 H   0  0  0  0  0  0  0  0  0  0  0  0
    2.8538   -4.1816    0.6166 H   0  0  0  0  0  0  0  0  0  0  0  0
    0.9758   -0.5952    1.0708 N   0  0  0  0  0  0  0  0  0  0  0  0
    0.3258    0.6374    0.7059 C   0  0  2  0  0  0  0  0  0  0  0  0
   -0.6361    0.9996    1.8325 C   0  0  0  0  0  0  0  0  0  0  0  0
   -1.7750    1.4170    1.6326 O   0  0  0  0  0  0  0  0  0  0  0  0
   -0.4300    0.5163   -0.6228 C   0  0  0  0  0  0  0  0  0  0  0  0
    0.4869    0.3158   -1.8288 C   0  0  0  0  0  0  0  0  0  0  0  0
   -0.2058    0.1633   -3.1870 C   0  0  0  0  0  0  0  0  0  0  0  0
   -1.4664    0.0837   -3.1220 O   0  5  0  0  0  0  0  0  0  0  0  0
    0.5459    0.1497   -4.2004 O   0  0  0  0  0  0  0  0  0  0  0  0
    1.9288   -0.5463    1.4242 H   0  0  0  0  0  0  0  0  0  0  0  0
    1.1087    1.4015    0.6520 H   0  0  0  0  0  0  0  0  0  0  0  0
   -1.0537    1.4046   -0.7822 H   0  0  0  0  0  0  0  0  0  0  0  0
   -1.1236   -0.3336   -0.5696 H   0  0  0  0  0  0  0  0  0  0  0  0
    1.2137    1.1348   -1.8867 H   0  0  0  0  0  0  0  0  0  0  0  0
    1.0655   -0.6039   -1.6743 H   0  0  0  0  0  0  0  0  0  0  0  0
   -0.0555    0.8460    3.0838 N   0  0  0  0  0  0  0  0  0  0  0  0
   -0.7550    1.1388    4.3133 C   0  0  2  0  0  0  0  0  0  0  0  0
    0.2816    1.2978    5.4177 C   0  0  0  0  0  0  0  0  0  0  0  0
    1.4092    0.8124    5.3543 O   0  0  0  0  0  0  0  0  0  0  0  0
   -1.7519    0.0430    4.6572 C   0  0  0  0  0  0  0  0  0  0  0  0
    0.8894    0.4799    3.1536 H   0  0  0  0  0  0  0  0  0  0  0  0
   -1.2767    2.0900    4.1616 H   0  0  0  0  0  0  0  0  0  0  0  0
   -1.2476   -0.9177    4.8128 H   0  0  0  0  0  0  0  0  0  0  0  0
   -2.3015    0.2802    5.5741 H   0  0  0  0  0  0  0  0  0  0  0  0
   -2.4787   -0.0903    3.8487 H   0  0  0  0  0  0  0  0  0  0  0  0
   -0.2151    2.0088    6.5012 N   0  0  0  0  0  0  0  0  0  0  0  0
    0.5717    2.2821    7.6812 C   0  0  0  0  0  0  0  0  0  0  0  0
   -1.1554    2.3906    6.4597 H   0  0  0  0  0  0  0  0  0  0  0  0
    0.4027    1.4910    8.4265 H   0  0  0  0  0  0  0  0  0  0  0  0
    1.6379    2.3107    7.4123 H   0  0  0  0  0  0  0  0  0  0  0  0
    0.2739    3.2532    8.1035 H   0  0  0  0  0  0  0  0  0  0  0  0
  1  3  1  0  0  0  0
  1  7  1  0  0  0  0
  1  2  2  0  0  0  0
 33 34  1  0  0  0  0
 34 42  1  0  0  0  0
 34 35  2  0  0  0  0
  8  9  1  0  0  0  0
  9 17  1  0  0  0  0
  9 10  2  0  0  0  0
 18 19  1  0  0  0  0
 19 32  1  0  0  0  0
 19 20  2  0  0  0  0
 22 23  1  0  0  0  0
 23 24  1  0  0  0  0
 23 25  2  0  0  0  0
 33 36  1  0  0  0  0
  8 11  1  0  0  0  0
 42 43  1  0  0  0  0
 21 22  1  0  0  0  0
 18 21  1  0  0  0  0
 32 33  1  0  0  0  0
  7  8  1  0  0  0  0
 17 18  1  0  0  0  0
  3  4  1  0  0  0  0
  3  5  1  0  0  0  0
  3  6  1  0  0  0  0
 36 39  1  0  0  0  0
 36 40  1  0  0  0  0
 36 41  1  0  0  0  0
 11 14  1  0  0  0  0
 11 15  1  0  0  0  0
 11 16  1  0  0  0  0
 43 45  1  0  0  0  0
 43 46  1  0  0  0  0
 43 47  1  0  0  0  0
 22 30  1  0  0  0  0
 22 31  1  0  0  0  0
 21 28  1  0  0  0  0
 21 29  1  0  0  0  0
 33 38  1  0  0  0  0
  8 13  1  0  0  0  0
 18 27  1  0  0  0  0
 42 44  1  0  0  0  0
  7 12  1  0  0  0  0
 32 37  1  0  0  0  0
 17 26  1  0  0  0  0
M  CHG  1  24  -1
M  END
$$$$

  -OEChem-05262214473D

 47 46  0     1  0  0  0  0  0999 V2000
    0.5093   -4.7265    3.0306 C   0  0  0  0  0  0  0  0  0  0  0  0
    1.2735   -4.4402    3.9448 O   0  0  0  0  0  0  0  0  0  0  0  0
   -0.4465   -5.8608    3.1982 C   0  0  0  0  0  0  0  0  0  0  0  0
   -0.0219   -6.8213    2.8645 H   0  0  0  0  0  0  0  0  0  0  0  0
   -0.7314   -6.0185    4.2509 H   0  0  0  0  0  0  0  0  0  0  0  0
   -1.3983   -5.7596    2.6527 H   0  0  0  0  0  0  0  0  0  0  0  0
    0.4252   -4.0886    1.8040 N   0  0  0  0  0  0  0  0  0  0  0  0
    1.2532   -2.9707    1.4349 C   0  0  2  0  0  0  0  0  0  0  0  0
    0.3395   -1.8293    1.0083 C   0  0  0  0  0  0  0  0  0  0  0  0
   -0.8136   -2.0027    0.6194 O   0  0  0  0  0  0  0  0  0  0  0  0
    2.2176   -3.3411    0.3189 C   0  0  0  0  0  0  0  0  0  0  0  0
   -0.2574   -4.4279    1.1287 H   0  0  0  0  0  0  0  0  0  0  0  0
    1.8087   -2.6785    2.3327 H   0  0  0  0  0  0  0  0  0  0  0  0
    1.6793   -3.6366   -0.5890 H   0  0  0  0  0  0  0  0  0  0  0  0
    2.8662   -2.4980    0.0589 H   0  0  0  0  0  0  0  0  0  0  0  0
    2.8538   -4.1816    0.6166 H   0  0  0  0  0  0  0  0  0  0  0  0
    0.9758   -0.5952    1.0708 N   0  0  0  0  0  0  0  0  0  0  0  0
    0.3258    0.6374    0.7059 C   0  0  2  0  0  0  0  0  0  0  0  0
   -0.6361    0.9996    1.8325 C   0  0  0  0  0  0  0  0  0  0  0  0
   -1.8427    1.1578    1.6582 O   0  0  0  0  0  0  0  0  0  0  0  0
   -0.4300    0.5163   -0.6228 C   0  0  0  0  0  0  0  0  0  0  0  0
    0.4869    0.3158   -1.8288 C   0  0  0  0  0  0  0  0  0  0  0  0
   -0.2058    0.1633   -3.1870 C   0  0  0  0  0  0  0  0  0  0  0  0
   -1.4664    0.0837   -3.1220 O   0  5  0  0  0  0  0  0  0  0  0  0
    0.5459    0.1497   -4.2004 O   0  0  0  0  0  0  0  0  0  0  0  0
    1.9288   -0.5463    1.4242 H   0  0  0  0  0  0  0  0  0  0  0  0
    1.1087    1.4015    0.6520 H   0  0  0  0  0  0  0  0  0  0  0  0
   -1.0537    1.4046   -0.7822 H   0  0  0  0  0  0  0  0  0  0  0  0
   -1.1236   -0.3336   -0.5696 H   0  0  0  0  0  0  0  0  0  0  0  0
    1.2137    1.1348   -1.8867 H   0  0  0  0  0  0  0  0  0  0  0  0
    1.0655   -0.6039   -1.6743 H   0  0  0  0  0  0  0  0  0  0  0  0
    0.0198    1.1708    3.0437 N   0  0  0  0  0  0  0  0  0  0  0  0
   -0.6667    1.5320    4.2622 C   0  0  2  0  0  0  0  0  0  0  0  0
    0.3677    2.0657    5.2444 C   0  0  0  0  0  0  0  0  0  0  0  0
    1.5646    1.7950    5.1710 O   0  0  0  0  0  0  0  0  0  0  0  0
   -1.4124    0.3441    4.8502 C   0  0  0  0  0  0  0  0  0  0  0  0
    1.0204    1.0040    3.0969 H   0  0  0  0  0  0  0  0  0  0  0  0
   -1.3713    2.3299    4.0036 H   0  0  0  0  0  0  0  0  0  0  0  0
   -0.7228   -0.4655    5.1155 H   0  0  0  0  0  0  0  0  0  0  0  0
   -1.9554    0.6265    5.7581 H   0  0  0  0  0  0  0  0  0  0  0  0
   -2.1350   -0.0570    4.1314 H   0  0  0  0  0  0  0  0  0  0  0  0
   -0.2089    2.8448    6.2376 N   0  0  0  0  0  0  0  0  0  0  0  0
    0.5619    3.4554    7.2955 C   0  0  0  0  0  0  0  0  0  0  0  0
   -1.2068    3.0322    6.2095 H   0  0  0  0  0  0  0  0  0  0  0  0
    0.5857    2.7844    8.1668 H   0  0  0  0  0  0  0  0  0  0  0  0
    1.5884    3.6359    6.9438 H   0  0  0  0  0  0  0  0  0  0  0  0
    0.0988    4.4113    7.5816 H   0  0  0  0  0  0  0  0  0  0  0  0
  1  3  1  0  0  0  0
  1  7  1  0  0  0  0
  1  2  2  0  0  0  0
 33 34  1  0  0  0  0
 34 42  1  0  0  0  0
 34 35  2  0  0  0  0
  8  9  1  0  0  0  0
  9 17  1  0  0  0  0
  9 10  2  0  0  0  0
 18 19  1  0  0  0  0
 19 32  1  0  0  0  0
 19 20  2  0  0  0  0
 22 23  1  0  0  0  0
 23 24  1  0  0  0  0
 23 25  2  0  0  0  0
 33 36  1  0  0  0  0
  8 11  1  0  0  0  0
 42 43  1  0  0  0  0
 21 22  1  0  0  0  0
 18 21  1  0  0  0  0
 32 33  1  0  0  0  0
  7  8  1  0  0  0  0
 17 18  1  0  0  0  0
  3  4  1  0  0  0  0
  3  5  1  0  0  0  0
  3  6  1  0  0  0  0
 36 39  1  0  0  0  0
 36 40  1  0  0  0  0
 36 41  1  0  0  0  0
 11 14  1  0  0  0  0
 11 15  1  0  0  0  0
 11 16  1  0  0  0  0
 43 45  1  0  0  0  0
 43 46  1  0  0  0  0
 43 47  1  0  0  0  0
 22 30  1  0  0  0  0
 22 31  1  0  0  0  0
 21 28  1  0  0  0  0
 21 29  1  0  0  0  0
 33 38  1  0  0  0  0
  8 13  1  0  0  0  0
 18 27  1  0  0  0  0
 42 44  1  0  0  0  0
  7 12  1  0  0  0  0
 32 37  1  0  0  0  0
 17 26  1  0  0  0  0
M  CHG  1  24  -1
M  END
$$$$

  -OEChem-05262214473D

 47 46  0     1  0  0  0  0  0999 V2000
    0.5093   -4.7265    3.0306 C   0  0  0  0  0  0  0  0  0  0  0  0
    1.2735   -4.4402    3.9448 O   0  0  0  0  0  0  0  0  0  0  0  0
   -0.4465   -5.8608    3.1982 C   0  0  0  0  0  0  0  0  0  0  0  0
   -0.0219   -6.8213    2.8645 H   0  0  0  0  0  0  0  0  0  0  0  0
   -0.7314   -6.0185    4.2509 H   0  0  0  0  0  0  0  0  0  0  0  0
   -1.3983   -5.7596    2.6527 H   0  0  0  0  0  0  0  0  0  0  0  0
    0.4252   -4.0886    1.8040 N   0  0  0  0  0  0  0  0  0  0  0  0
    1.2532   -2.9707    1.4349 C   0  0  2  0  0  0  0  0  0  0  0  0
    0.3395   -1.8293    1.0083 C   0  0  0  0  0  0  0  0  0  0  0  0
   -0.8136   -2.0027    0.6194 O   0  0  0  0  0  0  0  0  0  0  0  0
    2.2176   -3.3411    0.3189 C   0  0  0  0  0  0  0  0  0  0  0  0
   -0.2574   -4.4279    1.1287 H   0  0  0  0  0  0  0  0  0  0  0  0
    1.8087   -2.6785    2.3327 H   0  0  0  0  0  0  0  0  0  0  0  0
    1.6793   -3.6366   -0.5890 H   0  0  0  0  0  0  0  0  0  0  0  0
    2.8662   -2.4980    0.0589 H   0  0  0  0  0  0  0  0  0  0  0  0
    2.8538   -4.1816    0.6166 H   0  0  0  0  0  0  0  0  0  0  0  0
    0.9758   -0.5952    1.0708 N   0  0  0  0  0  0  0  0  0  0  0  0
    0.3258    0.6374    0.7059 C   0  0  2  0  0  0  0  0  0  0  0  0
   -0.6361    0.9996    1.8325 C   0  0  0  0  0  0  0  0  0  0  0  0
   -1.8569    0.8986    1.7293 O   0  0  0  0  0  0  0  0  0  0  0  0
   -0.4300    0.5163   -0.6228 C   0  0  0  0  0  0  0  0  0  0  0  0
    0.4869    0.3158   -1.8288 C   0  0  0  0  0  0  0  0  0  0  0  0
   -0.2058    0.1633   -3.1870 C   0  0  0  0  0  0  0  0  0  0  0  0
   -1.4664    0.0837   -3.1220 O   0  5  0  0  0  0  0  0  0  0  0  0
    0.5459    0.1497   -4.2004 O   0  0  0  0  0  0  0  0  0  0  0  0
    1.9288   -0.5463    1.4242 H   0  0  0  0  0  0  0  0  0  0  0  0
    1.1087    1.4015    0.6520 H   0  0  0  0  0  0  0  0  0  0  0  0
   -1.0537    1.4046   -0.7822 H   0  0  0  0  0  0  0  0  0  0  0  0
   -1.1236   -0.3336   -0.5696 H   0  0  0  0  0  0  0  0  0  0  0  0
    1.2137    1.1348   -1.8867 H   0  0  0  0  0  0  0  0  0  0  0  0
    1.0655   -0.6039   -1.6743 H   0  0  0  0  0  0  0  0  0  0  0  0
    0.0280    1.4923    2.9473 N   0  0  0  0  0  0  0  0  0  0  0  0
   -0.6598    1.9203    4.1433 C   0  0  2  0  0  0  0  0  0  0  0  0
    0.2935    2.7956    4.9462 C   0  0  0  0  0  0  0  0  0  0  0  0
    1.5155    2.7439    4.8240 O   0  0  0  0  0  0  0  0  0  0  0  0
   -1.1301    0.7314    4.9666 C   0  0  0  0  0  0  0  0  0  0  0  0
    1.0432    1.5261    2.9485 H   0  0  0  0  0  0  0  0  0  0  0  0
   -1.5184    2.5177    3.8177 H   0  0  0  0  0  0  0  0  0  0  0  0
   -0.2836    0.1210    5.3018 H   0  0  0  0  0  0  0  0  0  0  0  0
   -1.6761    1.0573    5.8581 H   0  0  0  0  0  0  0  0  0  0  0  0
   -1.7920    0.0871    4.3779 H   0  0  0  0  0  0  0  0  0  0  0  0
   -0.3790    3.6104    5.8462 N   0  0  0  0  0  0  0  0  0  0  0  0
    0.3044    4.5238    6.7321 C   0  0  0  0  0  0  0  0  0  0  0  0
   -1.3945    3.6013    5.8662 H   0  0  0  0  0  0  0  0  0  0  0  0
    0.4991    4.0262    7.6936 H   0  0  0  0  0  0  0  0  0  0  0  0
    1.2583    4.8301    6.2780 H   0  0  0  0  0  0  0  0  0  0  0  0
   -0.3238    5.4112    6.8992 H   0  0  0  0  0  0  0  0  0  0  0  0
  1  3  1  0  0  0  0
  1  7  1  0  0  0  0
  1  2  2  0  0  0  0
 33 34  1  0  0  0  0
 34 42  1  0  0  0  0
 34 35  2  0  0  0  0
  8  9  1  0  0  0  0
  9 17  1  0  0  0  0
  9 10  2  0  0  0  0
 18 19  1  0  0  0  0
 19 32  1  0  0  0  0
 19 20  2  0  0  0  0
 22 23  1  0  0  0  0
 23 24  1  0  0  0  0
 23 25  2  0  0  0  0
 33 36  1  0  0  0  0
  8 11  1  0  0  0  0
 42 43  1  0  0  0  0
 21 22  1  0  0  0  0
 18 21  1  0  0  0  0
 32 33  1  0  0  0  0
  7  8  1  0  0  0  0
 17 18  1  0  0  0  0
  3  4  1  0  0  0  0
  3  5  1  0  0  0  0
  3  6  1  0  0  0  0
 36 39  1  0  0  0  0
 36 40  1  0  0  0  0
 36 41  1  0  0  0  0
 11 14  1  0  0  0  0
 11 15  1  0  0  0  0
 11 16  1  0  0  0  0
 43 45  1  0  0  0  0
 43 46  1  0  0  0  0
 43 47  1  0  0  0  0
 22 30  1  0  0  0  0
 22 31  1  0  0  0  0
 21 28  1  0  0  0  0
 21 29  1  0  0  0  0
 33 38  1  0  0  0  0
  8 13  1  0  0  0  0
 18 27  1  0  0  0  0
 42 44  1  0  0  0  0
  7 12  1  0  0  0  0
 32 37  1  0  0  0  0
 17 26  1  0  0  0  0
M  CHG  1  24  -1
M  END
$$$$

  -OEChem-05262214473D

 47 46  0     1  0  0  0  0  0999 V2000
    0.5093   -4.7265    3.0306 C   0  0  0  0  0  0  0  0  0  0  0  0
    1.2735   -4.4402    3.9448 O   0  0  0  0  0  0  0  0  0  0  0  0
   -0.4465   -5.8608    3.1982 C   0  0  0  0  0  0  0  0  0  0  0  0
   -0.0219   -6.8213    2.8645 H   0  0  0  0  0  0  0  0  0  0  0  0
   -0.7314   -6.0185    4.2509 H   0  0  0  0  0  0  0  0  0  0  0  0
   -1.3983   -5.7596    2.6527 H   0  0  0  0  0  0  0  0  0  0  0  0
    0.4252   -4.0886    1.8040 N   0  0  0  0  0  0  0  0  0  0  0  0
    1.2532   -2.9707    1.4349 C   0  0  2  0  0  0  0  0  0  0  0  0
    0.3395   -1.8293    1.0083 C   0  0  0  0  0  0  0  0  0  0  0  0
   -0.8136   -2.0027    0.6194 O   0  0  0  0  0  0  0  0  0  0  0  0
    2.2176   -3.3411    0.3189 C   0  0  0  0  0  0  0  0  0  0  0  0
   -0.2574   -4.4279    1.1287 H   0  0  0  0  0  0  0  0  0  0  0  0
    1.8087   -2.6785    2.3327 H   0  0  0  0  0  0  0  0  0  0  0  0
    1.6793   -3.6366   -0.5890 H   0  0  0  0  0  0  0  0  0  0  0  0
    2.8662   -2.4980    0.0589 H   0  0  0  0  0  0  0  0  0  0  0  0
    2.8538   -4.1816    0.6166 H   0  0  0  0  0  0  0  0  0  0  0  0
    0.9758   -0.5952    1.0708 N   0  0  0  0  0  0  0  0  0  0  0  0
    0.3258    0.6374    0.7059 C   0  0  2  0  0  0  0  0  0  0  0  0
   -0.6361    0.9996    1.8325 C   0  0  0  0  0  0  0  0  0  0  0  0
   -1.8168    0.6572    1.8413 O   0  0  0  0  0  0  0  0  0  0  0  0
   -0.4300    0.5163   -0.6228 C   0  0  0  0  0  0  0  0  0  0  0  0
    0.4869    0.3158   -1.8288 C   0  0  0  0  0  0  0  0  0  0  0  0
   -0.2058    0.1633   -3.1870 C   0  0  0  0  0  0  0  0  0  0  0  0
   -1.4664    0.0837   -3.1220 O   0  5  0  0  0  0  0  0  0  0  0  0
    0.5459    0.1497   -4.2004 O   0  0  0  0  0  0  0  0  0  0  0  0
    1.9288   -0.5463    1.4242 H   0  0  0  0  0  0  0  0  0  0  0  0
    1.1087    1.4015    0.6520 H   0  0  0  0  0  0  0  0  0  0  0  0
   -1.0537    1.4046   -0.7822 H   0  0  0  0  0  0  0  0  0  0  0  0
   -1.1236   -0.3336   -0.5696 H   0  0  0  0  0  0  0  0  0  0  0  0
    1.2137    1.1348   -1.8867 H   0  0  0  0  0  0  0  0  0  0  0  0
    1.0655   -0.6039   -1.6743 H   0  0  0  0  0  0  0  0  0  0  0  0
   -0.0315    1.7887    2.8012 N   0  0  0  0  0  0  0  0  0  0  0  0
   -0.7347    2.2774    3.9645 C   0  0  2  0  0  0  0  0  0  0  0  0
    0.0638    3.4377    4.5437 C   0  0  0  0  0  0  0  0  0  0  0  0
    1.2654    3.5945    4.3370 O   0  0  0  0  0  0  0  0  0  0  0  0
   -0.9244    1.1785    4.9985 C   0  0  0  0  0  0  0  0  0  0  0  0
    0.9563    2.0105    2.7186 H   0  0  0  0  0  0  0  0  0  0  0  0
   -1.7078    2.6406    3.6165 H   0  0  0  0  0  0  0  0  0  0  0  0
    0.0398    0.8019    5.3590 H   0  0  0  0  0  0  0  0  0  0  0  0
   -1.4825    1.5431    5.8672 H   0  0  0  0  0  0  0  0  0  0  0  0
   -1.4731    0.3320    4.5715 H   0  0  0  0  0  0  0  0  0  0  0  0
   -0.7137    4.2535    5.3537 N   0  0  0  0  0  0  0  0  0  0  0  0
   -0.1833    5.4147    6.0293 C   0  0  0  0  0  0  0  0  0  0  0  0
   -1.7057    4.0591    5.4533 H   0  0  0  0  0  0  0  0  0  0  0  0
    0.1490    5.1320    7.0391 H   0  0  0  0  0  0  0  0  0  0  0  0
    0.6702    5.8118    5.4603 H   0  0  0  0  0  0  0  0  0  0  0  0
   -0.9652    6.1849    6.1029 H   0  0  0  0  0  0  0  0  0  0  0  0
  1  3  1  0  0  0  0
  1  7  1  0  0  0  0
  1  2  2  0  0  0  0
 33 34  1  0  0  0  0
 34 42  1  0  0  0  0
 34 35  2  0  0  0  0
  8  9  1  0  0  0  0
  9 17  1  0  0  0  0
  9 10  2  0  0  0  0
 18 19  1  0  0  0  0
 19 32  1  0  0  0  0
 19 20  2  0  0  0  0
 22 23  1  0  0  0  0
 23 24  1  0  0  0  0
 23 25  2  0  0  0  0
 33 36  1  0  0  0  0
  8 11  1  0  0  0  0
 42 43  1  0  0  0  0
 21 22  1  0  0  0  0
 18 21  1  0  0  0  0
 32 33  1  0  0  0  0
  7  8  1  0  0  0  0
 17 18  1  0  0  0  0
  3  4  1  0  0  0  0
  3  5  1  0  0  0  0
  3  6  1  0  0  0  0
 36 39  1  0  0  0  0
 36 40  1  0  0  0  0
 36 41  1  0  0  0  0
 11 14  1  0  0  0  0
 11 15  1  0  0  0  0
 11 16  1  0  0  0  0
 43 45  1  0  0  0  0
 43 46  1  0  0  0  0
 43 47  1  0  0  0  0
 22 30  1  0  0  0  0
 22 31  1  0  0  0  0
 21 28  1  0  0  0  0
 21 29  1  0  0  0  0
 33 38  1  0  0  0  0
  8 13  1  0  0  0  0
 18 27  1  0  0  0  0
 42 44  1  0  0  0  0
  7 12  1  0  0  0  0
 32 37  1  0  0  0  0
 17 26  1  0  0  0  0
M  CHG  1  24  -1
M  END
$$$$

  -OEChem-05262214473D

 47 46  0     1  0  0  0  0  0999 V2000
    0.5093   -4.7265    3.0306 C   0  0  0  0  0  0  0  0  0  0  0  0
    1.2735   -4.4402    3.9448 O   0  0  0  0  0  0  0  0  0  0  0  0
   -0.4465   -5.8608    3.1982 C   0  0  0  0  0  0  0  0  0  0  0  0
   -0.0219   -6.8213    2.8645 H   0  0  0  0  0  0  0  0  0  0  0  0
   -0.7314   -6.0185    4.2509 H   0  0  0  0  0  0  0  0  0  0  0  0
   -1.3983   -5.7596    2.6527 H   0  0  0  0  0  0  0  0  0  0  0  0
    0.4252   -4.0886    1.8040 N   0  0  0  0  0  0  0  0  0  0  0  0
    1.2532   -2.9707    1.4349 C   0  0  2  0  0  0  0  0  0  0  0  0
    0.3395   -1.8293    1.0083 C   0  0  0  0  0  0  0  0  0  0  0  0
   -0.8136   -2.0027    0.6194 O   0  0  0  0  0  0  0  0  0  0  0  0
    2.2176   -3.3411    0.3189 C   0  0  0  0  0  0  0  0  0  0  0  0
   -0.2574   -4.4279    1.1287 H   0  0  0  0  0  0  0  0  0  0  0  0
    1.8087   -2.6785    2.3327 H   0  0  0  0  0  0  0  0  0  0  0  0
    1.6793   -3.6366   -0.5890 H   0  0  0  0  0  0  0  0  0  0  0  0
    2.8662   -2.4980    0.0589 H   0  0  0  0  0  0  0  0  0  0  0  0
    2.8538   -4.1816    0.6166 H   0  0  0  0  0  0  0  0  0  0  0  0
    0.9758   -0.5952    1.0708 N   0  0  0  0  0  0  0  0  0  0  0  0
    0.3258    0.6374    0.7059 C   0  0  2  0  0  0  0  0  0  0  0  0
   -0.6361    0.9996    1.8325 C   0  0  0  0  0  0  0  0  0  0  0  0
   -1.7249    0.4500    1.9863 O   0  0  0  0  0  0  0  0  0  0  0  0
   -0.4300    0.5163   -0.6228 C   0  0  0  0  0  0  0  0  0  0  0  0
    0.4869    0.3158   -1.8288 C   0  0  0  0  0  0  0  0  0  0  0  0
   -0.2058    0.1633   -3.1870 C   0  0  0  0  0  0  0  0  0  0  0  0
   -1.4664    0.0837   -3.1220 O   0  5  0  0  0  0  0  0  0  0  0  0
    0.5459    0.1497   -4.2004 O   0  0  0  0  0  0  0  0  0  0  0  0
    1.9288   -0.5463    1.4242 H   0  0  0  0  0  0  0  0  0  0  0  0
    1.1087    1.4015    0.6520 H   0  0  0  0  0  0  0  0  0  0  0  0
   -1.0537    1.4046   -0.7822 H   0  0  0  0  0  0  0  0  0  0  0  0
   -1.1236   -0.3336   -0.5696 H   0  0  0  0  0  0  0  0  0  0  0  0
    1.2137    1.1348   -1.8867 H   0  0  0  0  0  0  0  0  0  0  0  0
    1.0655   -0.6039   -1.6743 H   0  0  0  0  0  0  0  0  0  0  0  0
   -0.1546    2.0397    2.6153 N   0  0  0  0  0  0  0  0  0  0  0  0
   -0.8862    2.5787    3.7382 C   0  0  2  0  0  0  0  0  0  0  0  0
   -0.3055    3.9484    4.0642 C   0  0  0  0  0  0  0  0  0  0  0  0
    0.8312    4.2887    3.7430 O   0  0  0  0  0  0  0  0  0  0  0  0
   -0.8092    1.6548    4.9437 C   0  0  0  0  0  0  0  0  0  0  0  0
    0.7655    2.4243    2.4227 H   0  0  0  0  0  0  0  0  0  0  0  0
   -1.9265    2.6903    3.4137 H   0  0  0  0  0  0  0  0  0  0  0  0
    0.2256    1.5309    5.2832 H   0  0  0  0  0  0  0  0  0  0  0  0
   -1.3878    2.0509    5.7848 H   0  0  0  0  0  0  0  0  0  0  0  0
   -1.1999    0.6612    4.6988 H   0  0  0  0  0  0  0  0  0  0  0  0
   -1.1903    4.7303    4.7934 N   0  0  0  0  0  0  0  0  0  0  0  0
   -0.8679    6.0671    5.2350 C   0  0  0  0  0  0  0  0  0  0  0  0
   -2.1192    4.3744    4.9989 H   0  0  0  0  0  0  0  0  0  0  0  0
   -0.4409    6.0263    6.2479 H   0  0  0  0  0  0  0  0  0  0  0  0
   -0.1358    6.5141    4.5463 H   0  0  0  0  0  0  0  0  0  0  0  0
   -1.7816    6.6796    5.2468 H   0  0  0  0  0  0  0  0  0  0  0  0
  1  3  1  0  0  0  0
  1  7  1  0  0  0  0
  1  2  2  0  0  0  0
 33 34  1  0  0  0  0
 34 42  1  0  0  0  0
 34 35  2  0  0  0  0
  8  9  1  0  0  0  0
  9 17  1  0  0  0  0
  9 10  2  0  0  0  0
 18 19  1  0  0  0  0
 19 32  1  0  0  0  0
 19 20  2  0  0  0  0
 22 23  1  0  0  0  0
 23 24  1  0  0  0  0
 23 25  2  0  0  0  0
 33 36  1  0  0  0  0
  8 11  1  0  0  0  0
 42 43  1  0  0  0  0
 21 22  1  0  0  0  0
 18 21  1  0  0  0  0
 32 33  1  0  0  0  0
  7  8  1  0  0  0  0
 17 18  1  0  0  0  0
  3  4  1  0  0  0  0
  3  5  1  0  0  0  0
  3  6  1  0  0  0  0
 36 39  1  0  0  0  0
 36 40  1  0  0  0  0
 36 41  1  0  0  0  0
 11 14  1  0  0  0  0
 11 15  1  0  0  0  0
 11 16  1  0  0  0  0
 43 45  1  0  0  0  0
 43 46  1  0  0  0  0
 43 47  1  0  0  0  0
 22 30  1  0  0  0  0
 22 31  1  0  0  0  0
 21 28  1  0  0  0  0
 21 29  1  0  0  0  0
 33 38  1  0  0  0  0
  8 13  1  0  0  0  0
 18 27  1  0  0  0  0
 42 44  1  0  0  0  0
  7 12  1  0  0  0  0
 32 37  1  0  0  0  0
 17 26  1  0  0  0  0
M  CHG  1  24  -1
M  END
$$$$

  -OEChem-05262214473D

 47 46  0     1  0  0  0  0  0999 V2000
    0.5093   -4.7265    3.0306 C   0  0  0  0  0  0  0  0  0  0  0  0
    1.2735   -4.4402    3.9448 O   0  0  0  0  0  0  0  0  0  0  0  0
   -0.4465   -5.8608    3.1982 C   0  0  0  0  0  0  0  0  0  0  0  0
   -0.0219   -6.8213    2.8645 H   0  0  0  0  0  0  0  0  0  0  0  0
   -0.7314   -6.0185    4.2509 H   0  0  0  0  0  0  0  0  0  0  0  0
   -1.3983   -5.7596    2.6527 H   0  0  0  0  0  0  0  0  0  0  0  0
    0.4252   -4.0886    1.8040 N   0  0  0  0  0  0  0  0  0  0  0  0
    1.2532   -2.9707    1.4349 C   0  0  2  0  0  0  0  0  0  0  0  0
    0.3395   -1.8293    1.0083 C   0  0  0  0  0  0  0  0  0  0  0  0
   -0.8136   -2.0027    0.6194 O   0  0  0  0  0  0  0  0  0  0  0  0
    2.2176   -3.3411    0.3189 C   0  0  0  0  0  0  0  0  0  0  0  0
   -0.2574   -4.4279    1.1287 H   0  0  0  0  0  0  0  0  0  0  0  0
    1.8087   -2.6785    2.3327 H   0  0  0  0  0  0  0  0  0  0  0  0
    1.6793   -3.6366   -0.5890 H   0  0  0  0  0  0  0  0  0  0  0  0
    2.8662   -2.4980    0.0589 H   0  0  0  0  0  0  0  0  0  0  0  0
    2.8538   -4.1816    0.6166 H   0  0  0  0  0  0  0  0  0  0  0  0
    0.9758   -0.5952    1.0708 N   0  0  0  0  0  0  0  0  0  0  0  0
    0.3258    0.6374    0.7059 C   0  0  2  0  0  0  0  0  0  0  0  0
   -0.6361    0.9996    1.8325 C   0  0  0  0  0  0  0  0  0  0  0  0
   -1.5877    0.2911    2.1546 O   0  0  0  0  0  0  0  0  0  0  0  0
   -0.4300    0.5163   -0.6228 C   0  0  0  0  0  0  0  0  0  0  0  0
    0.4869    0.3158   -1.8288 C   0  0  0  0  0  0  0  0  0  0  0  0
   -0.2058    0.1633   -3.1870 C   0  0  0  0  0  0  0  0  0  0  0  0
   -1.4664    0.0837   -3.1220 O   0  5  0  0  0  0  0  0  0  0  0  0
    0.5459    0.1497   -4.2004 O   0  0  0  0  0  0  0  0  0  0  0  0
    1.9288   -0.5463    1.4242 H   0  0  0  0  0  0  0  0  0  0  0  0
    1.1087    1.4015    0.6520 H   0  0  0  0  0  0  0  0  0  0  0  0
   -1.0537    1.4046   -0.7822 H   0  0  0  0  0  0  0  0  0  0  0  0
   -1.1236   -0.3336   -0.5696 H   0  0  0  0  0  0  0  0  0  0  0  0
    1.2137    1.1348   -1.8867 H   0  0  0  0  0  0  0  0  0  0  0  0
    1.0655   -0.6039   -1.6743 H   0  0  0  0  0  0  0  0  0  0  0  0
   -0.3330    2.2284    2.4024 N   0  0  0  0  0  0  0  0  0  0  0  0
   -1.1042    2.8039    3.4798 C   0  0  2  0  0  0  0  0  0  0  0  0
   -0.7894    4.2928    3.5403 C   0  0  0  0  0  0  0  0  0  0  0  0
    0.2426    4.7793    3.0827 O   0  0  0  0  0  0  0  0  0  0  0  0
   -0.7924    2.1280    4.8059 C   0  0  0  0  0  0  0  0  0  0  0  0
    0.4840    2.7392    2.0811 H   0  0  0  0  0  0  0  0  0  0  0  0
   -2.1599    2.6634    3.2232 H   0  0  0  0  0  0  0  0  0  0  0  0
    0.2610    2.2581    5.0796 H   0  0  0  0  0  0  0  0  0  0  0  0
   -1.3985    2.5460    5.6164 H   0  0  0  0  0  0  0  0  0  0  0  0
   -0.9912    1.0522    4.7513 H   0  0  0  0  0  0  0  0  0  0  0  0
   -1.7763    5.0083    4.2038 N   0  0  0  0  0  0  0  0  0  0  0  0
   -1.7028    6.4369    4.4033 C   0  0  0  0  0  0  0  0  0  0  0  0
   -2.6069    4.5257    4.5339 H   0  0  0  0  0  0  0  0  0  0  0  0
   -1.2303    6.6482    5.3739 H   0  0  0  0  0  0  0  0  0  0  0  0
   -1.1048    6.8891    3.5984 H   0  0  0  0  0  0  0  0  0  0  0  0
   -2.7174    6.8616    4.3893 H   0  0  0  0  0  0  0  0  0  0  0  0
  1  3  1  0  0  0  0
  1  7  1  0  0  0  0
  1  2  2  0  0  0  0
 33 34  1  0  0  0  0
 34 42  1  0  0  0  0
 34 35  2  0  0  0  0
  8  9  1  0  0  0  0
  9 17  1  0  0  0  0
  9 10  2  0  0  0  0
 18 19  1  0  0  0  0
 19 32  1  0  0  0  0
 19 20  2  0  0  0  0
 22 23  1  0  0  0  0
 23 24  1  0  0  0  0
 23 25  2  0  0  0  0
 33 36  1  0  0  0  0
  8 11  1  0  0  0  0
 42 43  1  0  0  0  0
 21 22  1  0  0  0  0
 18 21  1  0  0  0  0
 32 33  1  0  0  0  0
  7  8  1  0  0  0  0
 17 18  1  0  0  0  0
  3  4  1  0  0  0  0
  3  5  1  0  0  0  0
  3  6  1  0  0  0  0
 36 39  1  0  0  0  0
 36 40  1  0  0  0  0
 36 41  1  0  0  0  0
 11 14  1  0  0  0  0
 11 15  1  0  0  0  0
 11 16  1  0  0  0  0
 43 45  1  0  0  0  0
 43 46  1  0  0  0  0
 43 47  1  0  0  0  0
 22 30  1  0  0  0  0
 22 31  1  0  0  0  0
 21 28  1  0  0  0  0
 21 29  1  0  0  0  0
 33 38  1  0  0  0  0
  8 13  1  0  0  0  0
 18 27  1  0  0  0  0
 42 44  1  0  0  0  0
  7 12  1  0  0  0  0
 32 37  1  0  0  0  0
 17 26  1  0  0  0  0
M  CHG  1  24  -1
M  END
$$$$

  -OEChem-05262214473D

 47 46  0     1  0  0  0  0  0999 V2000
    0.5093   -4.7265    3.0306 C   0  0  0  0  0  0  0  0  0  0  0  0
    1.2735   -4.4402    3.9448 O   0  0  0  0  0  0  0  0  0  0  0  0
   -0.4465   -5.8608    3.1982 C   0  0  0  0  0  0  0  0  0  0  0  0
   -0.0219   -6.8213    2.8645 H   0  0  0  0  0  0  0  0  0  0  0  0
   -0.7314   -6.0185    4.2509 H   0  0  0  0  0  0  0  0  0  0  0  0
   -1.3983   -5.7596    2.6527 H   0  0  0  0  0  0  0  0  0  0  0  0
    0.4252   -4.0886    1.8040 N   0  0  0  0  0  0  0  0  0  0  0  0
    1.2532   -2.9707    1.4349 C   0  0  2  0  0  0  0  0  0  0  0  0
    0.3395   -1.8293    1.0083 C   0  0  0  0  0  0  0  0  0  0  0  0
   -0.8136   -2.0027    0.6194 O   0  0  0  0  0  0  0  0  0  0  0  0
    2.2176   -3.3411    0.3189 C   0  0  0  0  0  0  0  0  0  0  0  0
   -0.2574   -4.4279    1.1287 H   0  0  0  0  0  0  0  0  0  0  0  0
    1.8087   -2.6785    2.3327 H   0  0  0  0  0  0  0  0  0  0  0  0
    1.6793   -3.6366   -0.5890 H   0  0  0  0  0  0  0  0  0  0  0  0
    2.8662   -2.4980    0.0589 H   0  0  0  0  0  0  0  0  0  0  0  0
    2.8538   -4.1816    0.6166 H   0  0  0  0  0  0  0  0  0  0  0  0
    0.9758   -0.5952    1.0708 N   0  0  0  0  0  0  0  0  0  0  0  0
    0.3258    0.6374    0.7059 C   0  0  2  0  0  0  0  0  0  0  0  0
   -0.6361    0.9996    1.8325 C   0  0  0  0  0  0  0  0  0  0  0  0
   -1.4143    0.1913    2.3347 O   0  0  0  0  0  0  0  0  0  0  0  0
   -0.4300    0.5163   -0.6228 C   0  0  0  0  0  0  0  0  0  0  0  0
    0.4869    0.3158   -1.8288 C   0  0  0  0  0  0  0  0  0  0  0  0
   -0.2058    0.1633   -3.1870 C   0  0  0  0  0  0  0  0  0  0  0  0
   -1.4664    0.0837   -3.1220 O   0  5  0  0  0  0  0  0  0  0  0  0
    0.5459    0.1497   -4.2004 O   0  0  0  0  0  0  0  0  0  0  0  0
    1.9288   -0.5463    1.4242 H   0  0  0  0  0  0  0  0  0  0  0  0
    1.1087    1.4015    0.6520 H   0  0  0  0  0  0  0  0  0  0  0  0
   -1.0537    1.4046   -0.7822 H   0  0  0  0  0  0  0  0  0  0  0  0
   -1.1236   -0.3336   -0.5696 H   0  0  0  0  0  0  0  0  0  0  0  0
    1.2137    1.1348   -1.8867 H   0  0  0  0  0  0  0  0  0  0  0  0
    1.0655   -0.6039   -1.6743 H   0  0  0  0  0  0  0  0  0  0  0  0
   -0.5544    2.3417    2.1769 N   0  0  0  0  0  0  0  0  0  0  0  0
   -1.3736    2.9375    3.2067 C   0  0  2  0  0  0  0  0  0  0  0  0
   -1.3548    4.4474    3.0079 C   0  0  0  0  0  0  0  0  0  0  0  0
   -0.4604    5.0329    2.4010 O   0  0  0  0  0  0  0  0  0  0  0  0
   -0.8751    2.5658    4.5945 C   0  0  0  0  0  0  0  0  0  0  0  0
    0.1309    2.9338    1.7170 H   0  0  0  0  0  0  0  0  0  0  0  0
   -2.3918    2.5616    3.0579 H   0  0  0  0  0  0  0  0  0  0  0  0
    0.1436    2.9340    4.7620 H   0  0  0  0  0  0  0  0  0  0  0  0
   -1.5138    2.9947    5.3737 H   0  0  0  0  0  0  0  0  0  0  0  0
   -0.8611    1.4784    4.7253 H   0  0  0  0  0  0  0  0  0  0  0  0
   -2.4317    5.0685    3.6249 N   0  0  0  0  0  0  0  0  0  0  0  0
   -2.6310    6.4986    3.5910 C   0  0  0  0  0  0  0  0  0  0  0  0
   -3.1355    4.5027    4.0900 H   0  0  0  0  0  0  0  0  0  0  0  0
   -2.1655    6.9553    4.4768 H   0  0  0  0  0  0  0  0  0  0  0  0
   -2.1708    6.9113    2.6811 H   0  0  0  0  0  0  0  0  0  0  0  0
   -3.7088    6.7184    3.5889 H   0  0  0  0  0  0  0  0  0  0  0  0
  1  3  1  0  0  0  0
  1  7  1  0  0  0  0
  1  2  2  0  0  0  0
 33 34  1  0  0  0  0
 34 42  1  0  0  0  0
 34 35  2  0  0  0  0
  8  9  1  0  0  0  0
  9 17  1  0  0  0  0
  9 10  2  0  0  0  0
 18 19  1  0  0  0  0
 19 32  1  0  0  0  0
 19 20  2  0  0  0  0
 22 23  1  0  0  0  0
 23 24  1  0  0  0  0
 23 25  2  0  0  0  0
 33 36  1  0  0  0  0
  8 11  1  0  0  0  0
 42 43  1  0  0  0  0
 21 22  1  0  0  0  0
 18 21  1  0  0  0  0
 32 33  1  0  0  0  0
  7  8  1  0  0  0  0
 17 18  1  0  0  0  0
  3  4  1  0  0  0  0
  3  5  1  0  0  0  0
  3  6  1  0  0  0  0
 36 39  1  0  0  0  0
 36 40  1  0  0  0  0
 36 41  1  0  0  0  0
 11 14  1  0  0  0  0
 11 15  1  0  0  0  0
 11 16  1  0  0  0  0
 43 45  1  0  0  0  0
 43 46  1  0  0  0  0
 43 47  1  0  0  0  0
 22 30  1  0  0  0  0
 22 31  1  0  0  0  0
 21 28  1  0  0  0  0
 21 29  1  0  0  0  0
 33 38  1  0  0  0  0
  8 13  1  0  0  0  0
 18 27  1  0  0  0  0
 42 44  1  0  0  0  0
  7 12  1  0  0  0  0
 32 37  1  0  0  0  0
 17 26  1  0  0  0  0
M  CHG  1  24  -1
M  END
$$$$

  -OEChem-05262214473D

 47 46  0     1  0  0  0  0  0999 V2000
    0.5093   -4.7265    3.0306 C   0  0  0  0  0  0  0  0  0  0  0  0
    1.2735   -4.4402    3.9448 O   0  0  0  0  0  0  0  0  0  0  0  0
   -0.4465   -5.8608    3.1982 C   0  0  0  0  0  0  0  0  0  0  0  0
   -0.0219   -6.8213    2.8645 H   0  0  0  0  0  0  0  0  0  0  0  0
   -0.7314   -6.0185    4.2509 H   0  0  0  0  0  0  0  0  0  0  0  0
   -1.3983   -5.7596    2.6527 H   0  0  0  0  0  0  0  0  0  0  0  0
    0.4252   -4.0886    1.8040 N   0  0  0  0  0  0  0  0  0  0  0  0
    1.2532   -2.9707    1.4349 C   0  0  2  0  0  0  0  0  0  0  0  0
    0.3395   -1.8293    1.0083 C   0  0  0  0  0  0  0  0  0  0  0  0
   -0.8136   -2.0027    0.6194 O   0  0  0  0  0  0  0  0  0  0  0  0
    2.2176   -3.3411    0.3189 C   0  0  0  0  0  0  0  0  0  0  0  0
   -0.2574   -4.4279    1.1287 H   0  0  0  0  0  0  0  0  0  0  0  0
    1.8087   -2.6785    2.3327 H   0  0  0  0  0  0  0  0  0  0  0  0
    1.6793   -3.6366   -0.5890 H   0  0  0  0  0  0  0  0  0  0  0  0
    2.8662   -2.4980    0.0589 H   0  0  0  0  0  0  0  0  0  0  0  0
    2.8538   -4.1816    0.6166 H   0  0  0  0  0  0  0  0  0  0  0  0
    0.9758   -0.5952    1.0708 N   0  0  0  0  0  0  0  0  0  0  0  0
    0.3258    0.6374    0.7059 C   0  0  2  0  0  0  0  0  0  0  0  0
   -0.6361    0.9996    1.8325 C   0  0  0  0  0  0  0  0  0  0  0  0
   -1.2168    0.1574    2.5142 O   0  0  0  0  0  0  0  0  0  0  0  0
   -0.4300    0.5163   -0.6228 C   0  0  0  0  0  0  0  0  0  0  0  0
    0.4869    0.3158   -1.8288 C   0  0  0  0  0  0  0  0  0  0  0  0
   -0.2058    0.1633   -3.1870 C   0  0  0  0  0  0  0  0  0  0  0  0
   -1.4664    0.0837   -3.1220 O   0  5  0  0  0  0  0  0  0  0  0  0
    0.5459    0.1497   -4.2004 O   0  0  0  0  0  0  0  0  0  0  0  0
    1.9288   -0.5463    1.4242 H   0  0  0  0  0  0  0  0  0  0  0  0
    1.1087    1.4015    0.6520 H   0  0  0  0  0  0  0  0  0  0  0  0
   -1.0537    1.4046   -0.7822 H   0  0  0  0  0  0  0  0  0  0  0  0
   -1.1236   -0.3336   -0.5696 H   0  0  0  0  0  0  0  0  0  0  0  0
    1.2137    1.1348   -1.8867 H   0  0  0  0  0  0  0  0  0  0  0  0
    1.0655   -0.6039   -1.6743 H   0  0  0  0  0  0  0  0  0  0  0  0
   -0.8038    2.3720    1.9542 N   0  0  0  0  0  0  0  0  0  0  0  0
   -1.6763    2.9705    2.9378 C   0  0  2  0  0  0  0  0  0  0  0  0
   -1.9633    4.4017    2.5031 C   0  0  0  0  0  0  0  0  0  0  0  0
   -1.2299    5.0321    1.7443 O   0  0  0  0  0  0  0  0  0  0  0  0
   -1.0517    2.9384    4.3240 C   0  0  0  0  0  0  0  0  0  0  0  0
   -0.2698    2.9948    1.3553 H   0  0  0  0  0  0  0  0  0  0  0  0
   -2.6065    2.3921    2.9291 H   0  0  0  0  0  0  0  0  0  0  0  0
   -0.1185    3.5127    4.3522 H   0  0  0  0  0  0  0  0  0  0  0  0
   -1.7260    3.3665    5.0730 H   0  0  0  0  0  0  0  0  0  0  0  0
   -0.8186    1.9106    4.6226 H   0  0  0  0  0  0  0  0  0  0  0  0
   -3.1119    4.9068    3.0962 N   0  0  0  0  0  0  0  0  0  0  0  0
   -3.5894    6.2481    2.8533 C   0  0  0  0  0  0  0  0  0  0  0  0
   -3.6689    4.3070    3.6975 H   0  0  0  0  0  0  0  0  0  0  0  0
   -3.1827    6.9267    3.6176 H   0  0  0  0  0  0  0  0  0  0  0  0
   -3.2612    6.5792    1.8570 H   0  0  0  0  0  0  0  0  0  0  0  0
   -4.6883    6.2600    2.9001 H   0  0  0  0  0  0  0  0  0  0  0  0
  1  3  1  0  0  0  0
  1  7  1  0  0  0  0
  1  2  2  0  0  0  0
 33 34  1  0  0  0  0
 34 42  1  0  0  0  0
 34 35  2  0  0  0  0
  8  9  1  0  0  0  0
  9 17  1  0  0  0  0
  9 10  2  0  0  0  0
 18 19  1  0  0  0  0
 19 32  1  0  0  0  0
 19 20  2  0  0  0  0
 22 23  1  0  0  0  0
 23 24  1  0  0  0  0
 23 25  2  0  0  0  0
 33 36  1  0  0  0  0
  8 11  1  0  0  0  0
 42 43  1  0  0  0  0
 21 22  1  0  0  0  0
 18 21  1  0  0  0  0
 32 33  1  0  0  0  0
  7  8  1  0  0  0  0
 17 18  1  0  0  0  0
  3  4  1  0  0  0  0
  3  5  1  0  0  0  0
  3  6  1  0  0  0  0
 36 39  1  0  0  0  0
 36 40  1  0  0  0  0
 36 41  1  0  0  0  0
 11 14  1  0  0  0  0
 11 15  1  0  0  0  0
 11 16  1  0  0  0  0
 43 45  1  0  0  0  0
 43 46  1  0  0  0  0
 43 47  1  0  0  0  0
 22 30  1  0  0  0  0
 22 31  1  0  0  0  0
 21 28  1  0  0  0  0
 21 29  1  0  0  0  0
 33 38  1  0  0  0  0
  8 13  1  0  0  0  0
 18 27  1  0  0  0  0
 42 44  1  0  0  0  0
  7 12  1  0  0  0  0
 32 37  1  0  0  0  0
 17 26  1  0  0  0  0
M  CHG  1  24  -1
M  END
$$$$

  -OEChem-05262214473D

 47 46  0     1  0  0  0  0  0999 V2000
    0.5093   -4.7265    3.0306 C   0  0  0  0  0  0  0  0  0  0  0  0
    1.2735   -4.4402    3.9448 O   0  0  0  0  0  0  0  0  0  0  0  0
   -0.4465   -5.8608    3.1982 C   0  0  0  0  0  0  0  0  0  0  0  0
   -0.0219   -6.8213    2.8645 H   0  0  0  0  0  0  0  0  0  0  0  0
   -0.7314   -6.0185    4.2509 H   0  0  0  0  0  0  0  0  0  0  0  0
   -1.3983   -5.7596    2.6527 H   0  0  0  0  0  0  0  0  0  0  0  0
    0.4252   -4.0886    1.8040 N   0  0  0  0  0  0  0  0  0  0  0  0
    1.2532   -2.9707    1.4349 C   0  0  2  0  0  0  0  0  0  0  0  0
    0.3395   -1.8293    1.0083 C   0  0  0  0  0  0  0  0  0  0  0  0
   -0.8136   -2.0027    0.6194 O   0  0  0  0  0  0  0  0  0  0  0  0
    2.2176   -3.3411    0.3189 C   0  0  0  0  0  0  0  0  0  0  0  0
   -0.2574   -4.4279    1.1287 H   0  0  0  0  0  0  0  0  0  0  0  0
    1.8087   -2.6785    2.3327 H   0  0  0  0  0  0  0  0  0  0  0  0
    1.6793   -3.6366   -0.5890 H   0  0  0  0  0  0  0  0  0  0  0  0
    2.8662   -2.4980    0.0589 H   0  0  0  0  0  0  0  0  0  0  0  0
    2.8538   -4.1816    0.6166 H   0  0  0  0  0  0  0  0  0  0  0  0
    0.9758   -0.5952    1.0708 N   0  0  0  0  0  0  0  0  0  0  0  0
    0.3258    0.6374    0.7059 C   0  0  2  0  0  0  0  0  0  0  0  0
   -0.6361    0.9996    1.8325 C   0  0  0  0  0  0  0  0  0  0  0  0
   -1.0084    0.1918    2.6811 O   0  0  0  0  0  0  0  0  0  0  0  0
   -0.4300    0.5163   -0.6228 C   0  0  0  0  0  0  0  0  0  0  0  0
    0.4869    0.3158   -1.8288 C   0  0  0  0  0  0  0  0  0  0  0  0
   -0.2058    0.1633   -3.1870 C   0  0  0  0  0  0  0  0  0  0  0  0
   -1.4664    0.0837   -3.1220 O   0  5  0  0  0  0  0  0  0  0  0  0
    0.5459    0.1497   -4.2004 O   0  0  0  0  0  0  0  0  0  0  0  0
    1.9288   -0.5463    1.4242 H   0  0  0  0  0  0  0  0  0  0  0  0
    1.1087    1.4015    0.6520 H   0  0  0  0  0  0  0  0  0  0  0  0
   -1.0537    1.4046   -0.7822 H   0  0  0  0  0  0  0  0  0  0  0  0
   -1.1236   -0.3336   -0.5696 H   0  0  0  0  0  0  0  0  0  0  0  0
    1.2137    1.1348   -1.8867 H   0  0  0  0  0  0  0  0  0  0  0  0
    1.0655   -0.6039   -1.6743 H   0  0  0  0  0  0  0  0  0  0  0  0
   -1.0643    2.3173    1.7494 N   0  0  0  0  0  0  0  0  0  0  0  0
   -1.9914    2.9006    2.6912 C   0  0  2  0  0  0  0  0  0  0  0  0
   -2.5733    4.1588    2.0604 C   0  0  0  0  0  0  0  0  0  0  0  0
   -2.0133    4.7770    1.1574 O   0  0  0  0  0  0  0  0  0  0  0  0
   -1.3101    3.2203    4.0127 C   0  0  0  0  0  0  0  0  0  0  0  0
   -0.6908    2.9181    1.0206 H   0  0  0  0  0  0  0  0  0  0  0  0
   -2.7894    2.1662    2.8456 H   0  0  0  0  0  0  0  0  0  0  0  0
   -0.5075    3.9546    3.8779 H   0  0  0  0  0  0  0  0  0  0  0  0
   -2.0205    3.6359    4.7349 H   0  0  0  0  0  0  0  0  0  0  0  0
   -0.8664    2.3195    4.4503 H   0  0  0  0  0  0  0  0  0  0  0  0
   -3.7704    4.5343    2.6537 N   0  0  0  0  0  0  0  0  0  0  0  0
   -4.5126    5.7025    2.2406 C   0  0  0  0  0  0  0  0  0  0  0  0
   -4.1709    3.9519    3.3831 H   0  0  0  0  0  0  0  0  0  0  0  0
   -4.2125    6.5643    2.8549 H   0  0  0  0  0  0  0  0  0  0  0  0
   -4.3015    5.9155    1.1823 H   0  0  0  0  0  0  0  0  0  0  0  0
   -5.5892    5.5174    2.3698 H   0  0  0  0  0  0  0  0  0  0  0  0
  1  3  1  0  0  0  0
  1  7  1  0  0  0  0
  1  2  2  0  0  0  0
 33 34  1  0  0  0  0
 34 42  1  0  0  0  0
 34 35  2  0  0  0  0
  8  9  1  0  0  0  0
  9 17  1  0  0  0  0
  9 10  2  0  0  0  0
 18 19  1  0  0  0  0
 19 32  1  0  0  0  0
 19 20  2  0  0  0  0
 22 23  1  0  0  0  0
 23 24  1  0  0  0  0
 23 25  2  0  0  0  0
 33 36  1  0  0  0  0
  8 11  1  0  0  0  0
 42 43  1  0  0  0  0
 21 22  1  0  0  0  0
 18 21  1  0  0  0  0
 32 33  1  0  0  0  0
  7  8  1  0  0  0  0
 17 18  1  0  0  0  0
  3  4  1  0  0  0  0
  3  5  1  0  0  0  0
  3  6  1  0  0  0  0
 36 39  1  0  0  0  0
 36 40  1  0  0  0  0
 36 41  1  0  0  0  0
 11 14  1  0  0  0  0
 11 15  1  0  0  0  0
 11 16  1  0  0  0  0
 43 45  1  0  0  0  0
 43 46  1  0  0  0  0
 43 47  1  0  0  0  0
 22 30  1  0  0  0  0
 22 31  1  0  0  0  0
 21 28  1  0  0  0  0
 21 29  1  0  0  0  0
 33 38  1  0  0  0  0
  8 13  1  0  0  0  0
 18 27  1  0  0  0  0
 42 44  1  0  0  0  0
  7 12  1  0  0  0  0
 32 37  1  0  0  0  0
 17 26  1  0  0  0  0
M  CHG  1  24  -1
M  END
$$$$

  -OEChem-05262214473D

 47 46  0     1  0  0  0  0  0999 V2000
    0.5093   -4.7265    3.0306 C   0  0  0  0  0  0  0  0  0  0  0  0
    1.2735   -4.4402    3.9448 O   0  0  0  0  0  0  0  0  0  0  0  0
   -0.4465   -5.8608    3.1982 C   0  0  0  0  0  0  0  0  0  0  0  0
   -0.0219   -6.8213    2.8645 H   0  0  0  0  0  0  0  0  0  0  0  0
   -0.7314   -6.0185    4.2509 H   0  0  0  0  0  0  0  0  0  0  0  0
   -1.3983   -5.7596    2.6527 H   0  0  0  0  0  0  0  0  0  0  0  0
    0.4252   -4.0886    1.8040 N   0  0  0  0  0  0  0  0  0  0  0  0
    1.2532   -2.9707    1.4349 C   0  0  2  0  0  0  0  0  0  0  0  0
    0.3395   -1.8293    1.0083 C   0  0  0  0  0  0  0  0  0  0  0  0
   -0.8136   -2.0027    0.6194 O   0  0  0  0  0  0  0  0  0  0  0  0
    2.2176   -3.3411    0.3189 C   0  0  0  0  0  0  0  0  0  0  0  0
   -0.2574   -4.4279    1.1287 H   0  0  0  0  0  0  0  0  0  0  0  0
    1.8087   -2.6785    2.3327 H   0  0  0  0  0  0  0  0  0  0  0  0
    1.6793   -3.6366   -0.5890 H   0  0  0  0  0  0  0  0  0  0  0  0
    2.8662   -2.4980    0.0589 H   0  0  0  0  0  0  0  0  0  0  0  0
    2.8538   -4.1816    0.6166 H   0  0  0  0  0  0  0  0  0  0  0  0
    0.9758   -0.5952    1.0708 N   0  0  0  0  0  0  0  0  0  0  0  0
    0.3258    0.6374    0.7059 C   0  0  2  0  0  0  0  0  0  0  0  0
   -0.3371    1.1953    1.9609 C   0  0  0  0  0  0  0  0  0  0  0  0
   -0.3137    0.6158    3.0448 O   0  0  0  0  0  0  0  0  0  0  0  0
   -0.7152    0.4315   -0.4010 C   0  0  0  0  0  0  0  0  0  0  0  0
   -0.1056    0.0287   -1.7431 C   0  0  0  0  0  0  0  0  0  0  0  0
   -1.0935   -0.2165   -2.8884 C   0  0  0  0  0  0  0  0  0  0  0  0
   -2.3094   -0.1890   -2.5413 O   0  5  0  0  0  0  0  0  0  0  0  0
   -0.5913   -0.4000   -4.0313 O   0  0  0  0  0  0  0  0  0  0  0  0
    1.9288   -0.5463    1.4242 H   0  0  0  0  0  0  0  0  0  0  0  0
    1.1154    1.3270    0.3885 H   0  0  0  0  0  0  0  0  0  0  0  0
   -1.3114    1.3434   -0.5299 H   0  0  0  0  0  0  0  0  0  0  0  0
   -1.4226   -0.3502   -0.0930 H   0  0  0  0  0  0  0  0  0  0  0  0
    0.6314    0.7767   -2.0590 H   0  0  0  0  0  0  0  0  0  0  0  0
    0.4440   -0.9112   -1.6052 H   0  0  0  0  0  0  0  0  0  0  0  0
   -0.9962    2.3918    1.7147 N   0  0  0  0  0  0  0  0  0  0  0  0
   -1.7160    3.1145    2.7376 C   0  0  2  0  0  0  0  0  0  0  0  0
   -2.6606    4.0899    2.0479 C   0  0  0  0  0  0  0  0  0  0  0  0
   -2.4883    4.4917    0.8990 O   0  0  0  0  0  0  0  0  0  0  0  0
   -0.7646    3.8471    3.6709 C   0  0  0  0  0  0  0  0  0  0  0  0
   -0.9492    2.8057    0.7884 H   0  0  0  0  0  0  0  0  0  0  0  0
   -2.2987    2.3746    3.2970 H   0  0  0  0  0  0  0  0  0  0  0  0
   -0.1721    4.5927    3.1283 H   0  0  0  0  0  0  0  0  0  0  0  0
   -1.3104    4.3710    4.4625 H   0  0  0  0  0  0  0  0  0  0  0  0
   -0.0665    3.1476    4.1434 H   0  0  0  0  0  0  0  0  0  0  0  0
   -3.6949    4.4924    2.8812 N   0  0  0  0  0  0  0  0  0  0  0  0
   -4.7152    5.4250    2.4628 C   0  0  0  0  0  0  0  0  0  0  0  0
   -3.7704    4.0935    3.8123 H   0  0  0  0  0  0  0  0  0  0  0  0
   -4.4141    6.4466    2.7379 H   0  0  0  0  0  0  0  0  0  0  0  0
   -4.8443    5.3621    1.3722 H   0  0  0  0  0  0  0  0  0  0  0  0
   -5.6648    5.1765    2.9594 H   0  0  0  0  0  0  0  0  0  0  0  0
  1  3  1  0  0  0  0
  1  7  1  0  0  0  0
  1  2  2  0  0  0  0
 33 34  1  0  0  0  0
 34 42  1  0  0  0  0
 34 35  2  0  0  0  0
  8  9  1  0  0  0  0
  9 17  1  0  0  0  0
  9 10  2  0  0  0  0
 18 19  1  0  0  0  0
 19 32  1  0  0  0  0
 19 20  2  0  0  0  0
 22 23  1  0  0  0  0
 23 24  1  0  0  0  0
 23 25  2  0  0  0  0
 33 36  1  0  0  0  0
  8 11  1  0  0  0  0
 42 43  1  0  0  0  0
 21 22  1  0  0  0  0
 18 21  1  0  0  0  0
 32 33  1  0  0  0  0
  7  8  1  0  0  0  0
 17 18  1  0  0  0  0
  3  4  1  0  0  0  0
  3  5  1  0  0  0  0
  3  6  1  0  0  0  0
 36 39  1  0  0  0  0
 36 40  1  0  0  0  0
 36 41  1  0  0  0  0
 11 14  1  0  0  0  0
 11 15  1  0  0  0  0
 11 16  1  0  0  0  0
 43 45  1  0  0  0  0
 43 46  1  0  0  0  0
 43 47  1  0  0  0  0
 22 30  1  0  0  0  0
 22 31  1  0  0  0  0
 21 28  1  0  0  0  0
 21 29  1  0  0  0  0
 33 38  1  0  0  0  0
  8 13  1  0  0  0  0
 18 27  1  0  0  0  0
 42 44  1  0  0  0  0
  7 12  1  0  0  0  0
 32 37  1  0  0  0  0
 17 26  1  0  0  0  0
M  CHG  1  24  -1
M  END
$$$$

  -OEChem-05262214473D

 47 46  0     1  0  0  0  0  0999 V2000
    0.5093   -4.7265    3.0306 C   0  0  0  0  0  0  0  0  0  0  0  0
    1.2735   -4.4402    3.9448 O   0  0  0  0  0  0  0  0  0  0  0  0
   -0.4465   -5.8608    3.1982 C   0  0  0  0  0  0  0  0  0  0  0  0
   -0.0219   -6.8213    2.8645 H   0  0  0  0  0  0  0  0  0  0  0  0
   -0.7314   -6.0185    4.2509 H   0  0  0  0  0  0  0  0  0  0  0  0
   -1.3983   -5.7596    2.6527 H   0  0  0  0  0  0  0  0  0  0  0  0
    0.4252   -4.0886    1.8040 N   0  0  0  0  0  0  0  0  0  0  0  0
    1.2532   -2.9707    1.4349 C   0  0  2  0  0  0  0  0  0  0  0  0
    0.3395   -1.8293    1.0083 C   0  0  0  0  0  0  0  0  0  0  0  0
   -0.8136   -2.0027    0.6194 O   0  0  0  0  0  0  0  0  0  0  0  0
    2.2176   -3.3411    0.3189 C   0  0  0  0  0  0  0  0  0  0  0  0
   -0.2574   -4.4279    1.1287 H   0  0  0  0  0  0  0  0  0  0  0  0
    1.8087   -2.6785    2.3327 H   0  0  0  0  0  0  0  0  0  0  0  0
    1.6793   -3.6366   -0.5890 H   0  0  0  0  0  0  0  0  0  0  0  0
    2.8662   -2.4980    0.0589 H   0  0  0  0  0  0  0  0  0  0  0  0
    2.8538   -4.1816    0.6166 H   0  0  0  0  0  0  0  0  0  0  0  0
    0.9758   -0.5952    1.0708 N   0  0  0  0  0  0  0  0  0  0  0  0
    0.3258    0.6374    0.7059 C   0  0  2  0  0  0  0  0  0  0  0  0
   -0.3371    1.1953    1.9609 C   0  0  0  0  0  0  0  0  0  0  0  0
   -0.0983    0.7709    3.0896 O   0  0  0  0  0  0  0  0  0  0  0  0
   -0.7152    0.4315   -0.4010 C   0  0  0  0  0  0  0  0  0  0  0  0
   -0.1056    0.0287   -1.7431 C   0  0  0  0  0  0  0  0  0  0  0  0
   -1.0935   -0.2165   -2.8884 C   0  0  0  0  0  0  0  0  0  0  0  0
   -2.3094   -0.1890   -2.5413 O   0  5  0  0  0  0  0  0  0  0  0  0
   -0.5913   -0.4000   -4.0313 O   0  0  0  0  0  0  0  0  0  0  0  0
    1.9288   -0.5463    1.4242 H   0  0  0  0  0  0  0  0  0  0  0  0
    1.1154    1.3270    0.3885 H   0  0  0  0  0  0  0  0  0  0  0  0
   -1.3114    1.3434   -0.5299 H   0  0  0  0  0  0  0  0  0  0  0  0
   -1.4226   -0.3502   -0.0930 H   0  0  0  0  0  0  0  0  0  0  0  0
    0.6314    0.7767   -2.0590 H   0  0  0  0  0  0  0  0  0  0  0  0
    0.4440   -0.9112   -1.6052 H   0  0  0  0  0  0  0  0  0  0  0  0
   -1.2596    2.1894    1.6656 N   0  0  0  0  0  0  0  0  0  0  0  0
   -2.0329    2.8670    2.6803 C   0  0  2  0  0  0  0  0  0  0  0  0
   -3.2214    3.5329    1.9993 C   0  0  0  0  0  0  0  0  0  0  0  0
   -3.2364    3.8175    0.8036 O   0  0  0  0  0  0  0  0  0  0  0  0
   -1.1909    3.8900    3.4267 C   0  0  0  0  0  0  0  0  0  0  0  0
   -1.3808    2.4871    0.7021 H   0  0  0  0  0  0  0  0  0  0  0  0
   -2.3918    2.0966    3.3714 H   0  0  0  0  0  0  0  0  0  0  0  0
   -0.8223    4.6700    2.7504 H   0  0  0  0  0  0  0  0  0  0  0  0
   -1.7707    4.3824    4.2143 H   0  0  0  0  0  0  0  0  0  0  0  0
   -0.3203    3.4141    3.8909 H   0  0  0  0  0  0  0  0  0  0  0  0
   -4.2463    3.8111    2.8929 N   0  0  0  0  0  0  0  0  0  0  0  0
   -5.4766    4.4530    2.4928 C   0  0  0  0  0  0  0  0  0  0  0  0
   -4.1558    3.5226    3.8626 H   0  0  0  0  0  0  0  0  0  0  0  0
   -5.3842    5.5407    2.6282 H   0  0  0  0  0  0  0  0  0  0  0  0
   -5.6784    4.2313    1.4344 H   0  0  0  0  0  0  0  0  0  0  0  0
   -6.3047    4.0757    3.1108 H   0  0  0  0  0  0  0  0  0  0  0  0
  1  3  1  0  0  0  0
  1  7  1  0  0  0  0
  1  2  2  0  0  0  0
 33 34  1  0  0  0  0
 34 42  1  0  0  0  0
 34 35  2  0  0  0  0
  8  9  1  0  0  0  0
  9 17  1  0  0  0  0
  9 10  2  0  0  0  0
 18 19  1  0  0  0  0
 19 32  1  0  0  0  0
 19 20  2  0  0  0  0
 22 23  1  0  0  0  0
 23 24  1  0  0  0  0
 23 25  2  0  0  0  0
 33 36  1  0  0  0  0
  8 11  1  0  0  0  0
 42 43  1  0  0  0  0
 21 22  1  0  0  0  0
 18 21  1  0  0  0  0
 32 33  1  0  0  0  0
  7  8  1  0  0  0  0
 17 18  1  0  0  0  0
  3  4  1  0  0  0  0
  3  5  1  0  0  0  0
  3  6  1  0  0  0  0
 36 39  1  0  0  0  0
 36 40  1  0  0  0  0
 36 41  1  0  0  0  0
 11 14  1  0  0  0  0
 11 15  1  0  0  0  0
 11 16  1  0  0  0  0
 43 45  1  0  0  0  0
 43 46  1  0  0  0  0
 43 47  1  0  0  0  0
 22 30  1  0  0  0  0
 22 31  1  0  0  0  0
 21 28  1  0  0  0  0
 21 29  1  0  0  0  0
 33 38  1  0  0  0  0
  8 13  1  0  0  0  0
 18 27  1  0  0  0  0
 42 44  1  0  0  0  0
  7 12  1  0  0  0  0
 32 37  1  0  0  0  0
 17 26  1  0  0  0  0
M  CHG  1  24  -1
M  END
$$$$

  -OEChem-05262214473D

 47 46  0     1  0  0  0  0  0999 V2000
    0.5093   -4.7265    3.0306 C   0  0  0  0  0  0  0  0  0  0  0  0
    1.2735   -4.4402    3.9448 O   0  0  0  0  0  0  0  0  0  0  0  0
   -0.4465   -5.8608    3.1982 C   0  0  0  0  0  0  0  0  0  0  0  0
   -0.0219   -6.8213    2.8645 H   0  0  0  0  0  0  0  0  0  0  0  0
   -0.7314   -6.0185    4.2509 H   0  0  0  0  0  0  0  0  0  0  0  0
   -1.3983   -5.7596    2.6527 H   0  0  0  0  0  0  0  0  0  0  0  0
    0.4252   -4.0886    1.8040 N   0  0  0  0  0  0  0  0  0  0  0  0
    1.2532   -2.9707    1.4349 C   0  0  2  0  0  0  0  0  0  0  0  0
    0.3395   -1.8293    1.0083 C   0  0  0  0  0  0  0  0  0  0  0  0
   -0.8136   -2.0027    0.6194 O   0  0  0  0  0  0  0  0  0  0  0  0
    2.2176   -3.3411    0.3189 C   0  0  0  0  0  0  0  0  0  0  0  0
   -0.2574   -4.4279    1.1287 H   0  0  0  0  0  0  0  0  0  0  0  0
    1.8087   -2.6785    2.3327 H   0  0  0  0  0  0  0  0  0  0  0  0
    1.6793   -3.6366   -0.5890 H   0  0  0  0  0  0  0  0  0  0  0  0
    2.8662   -2.4980    0.0589 H   0  0  0  0  0  0  0  0  0  0  0  0
    2.8538   -4.1816    0.6166 H   0  0  0  0  0  0  0  0  0  0  0  0
    0.9758   -0.5952    1.0708 N   0  0  0  0  0  0  0  0  0  0  0  0
    0.3258    0.6374    0.7059 C   0  0  2  0  0  0  0  0  0  0  0  0
   -0.3371    1.1953    1.9609 C   0  0  0  0  0  0  0  0  0  0  0  0
    0.0809    0.9715    3.0951 O   0  0  0  0  0  0  0  0  0  0  0  0
   -0.7152    0.4315   -0.4010 C   0  0  0  0  0  0  0  0  0  0  0  0
   -0.1056    0.0287   -1.7431 C   0  0  0  0  0  0  0  0  0  0  0  0
   -1.0935   -0.2165   -2.8884 C   0  0  0  0  0  0  0  0  0  0  0  0
   -2.3094   -0.1890   -2.5413 O   0  5  0  0  0  0  0  0  0  0  0  0
   -0.5913   -0.4000   -4.0313 O   0  0  0  0  0  0  0  0  0  0  0  0
    1.9288   -0.5463    1.4242 H   0  0  0  0  0  0  0  0  0  0  0  0
    1.1154    1.3270    0.3885 H   0  0  0  0  0  0  0  0  0  0  0  0
   -1.3114    1.3434   -0.5299 H   0  0  0  0  0  0  0  0  0  0  0  0
   -1.4226   -0.3502   -0.0930 H   0  0  0  0  0  0  0  0  0  0  0  0
    0.6314    0.7767   -2.0590 H   0  0  0  0  0  0  0  0  0  0  0  0
    0.4440   -0.9112   -1.6052 H   0  0  0  0  0  0  0  0  0  0  0  0
   -1.4756    1.9324    1.6658 N   0  0  0  0  0  0  0  0  0  0  0  0
   -2.2918    2.5540    2.6827 C   0  0  2  0  0  0  0  0  0  0  0  0
   -3.6491    2.8699    2.0682 C   0  0  0  0  0  0  0  0  0  0  0  0
   -3.8245    2.9963    0.8581 O   0  0  0  0  0  0  0  0  0  0  0  0
   -1.6349    3.8132    3.2263 C   0  0  0  0  0  0  0  0  0  0  0  0
   -1.7379    2.0779    0.6954 H   0  0  0  0  0  0  0  0  0  0  0  0
   -2.4155    1.8167    3.4834 H   0  0  0  0  0  0  0  0  0  0  0  0
   -1.5027    4.5636    2.4384 H   0  0  0  0  0  0  0  0  0  0  0  0
   -2.2412    4.2674    4.0169 H   0  0  0  0  0  0  0  0  0  0  0  0
   -0.6462    3.5890    3.6410 H   0  0  0  0  0  0  0  0  0  0  0  0
   -4.6326    3.0369    3.0330 N   0  0  0  0  0  0  0  0  0  0  0  0
   -6.0022    3.3554    2.7032 C   0  0  0  0  0  0  0  0  0  0  0  0
   -4.4016    2.8948    4.0119 H   0  0  0  0  0  0  0  0  0  0  0  0
   -6.1387    4.4468    2.7161 H   0  0  0  0  0  0  0  0  0  0  0  0
   -6.2373    2.9684    1.7007 H   0  0  0  0  0  0  0  0  0  0  0  0
   -6.6740    2.8932    3.4415 H   0  0  0  0  0  0  0  0  0  0  0  0
  1  3  1  0  0  0  0
  1  7  1  0  0  0  0
  1  2  2  0  0  0  0
 33 34  1  0  0  0  0
 34 42  1  0  0  0  0
 34 35  2  0  0  0  0
  8  9  1  0  0  0  0
  9 17  1  0  0  0  0
  9 10  2  0  0  0  0
 18 19  1  0  0  0  0
 19 32  1  0  0  0  0
 19 20  2  0  0  0  0
 22 23  1  0  0  0  0
 23 24  1  0  0  0  0
 23 25  2  0  0  0  0
 33 36  1  0  0  0  0
  8 11  1  0  0  0  0
 42 43  1  0  0  0  0
 21 22  1  0  0  0  0
 18 21  1  0  0  0  0
 32 33  1  0  0  0  0
  7  8  1  0  0  0  0
 17 18  1  0  0  0  0
  3  4  1  0  0  0  0
  3  5  1  0  0  0  0
  3  6  1  0  0  0  0
 36 39  1  0  0  0  0
 36 40  1  0  0  0  0
 36 41  1  0  0  0  0
 11 14  1  0  0  0  0
 11 15  1  0  0  0  0
 11 16  1  0  0  0  0
 43 45  1  0  0  0  0
 43 46  1  0  0  0  0
 43 47  1  0  0  0  0
 22 30  1  0  0  0  0
 22 31  1  0  0  0  0
 21 28  1  0  0  0  0
 21 29  1  0  0  0  0
 33 38  1  0  0  0  0
  8 13  1  0  0  0  0
 18 27  1  0  0  0  0
 42 44  1  0  0  0  0
  7 12  1  0  0  0  0
 32 37  1  0  0  0  0
 17 26  1  0  0  0  0
M  CHG  1  24  -1
M  END
$$$$

  -OEChem-05262214473D

 47 46  0     1  0  0  0  0  0999 V2000
    0.5093   -4.7265    3.0306 C   0  0  0  0  0  0  0  0  0  0  0  0
    1.2735   -4.4402    3.9448 O   0  0  0  0  0  0  0  0  0  0  0  0
   -0.4465   -5.8608    3.1982 C   0  0  0  0  0  0  0  0  0  0  0  0
   -0.0219   -6.8213    2.8645 H   0  0  0  0  0  0  0  0  0  0  0  0
   -0.7314   -6.0185    4.2509 H   0  0  0  0  0  0  0  0  0  0  0  0
   -1.3983   -5.7596    2.6527 H   0  0  0  0  0  0  0  0  0  0  0  0
    0.4252   -4.0886    1.8040 N   0  0  0  0  0  0  0  0  0  0  0  0
    1.2532   -2.9707    1.4349 C   0  0  2  0  0  0  0  0  0  0  0  0
    0.3395   -1.8293    1.0083 C   0  0  0  0  0  0  0  0  0  0  0  0
   -0.8136   -2.0027    0.6194 O   0  0  0  0  0  0  0  0  0  0  0  0
    2.2176   -3.3411    0.3189 C   0  0  0  0  0  0  0  0  0  0  0  0
   -0.2574   -4.4279    1.1287 H   0  0  0  0  0  0  0  0  0  0  0  0
    1.8087   -2.6785    2.3327 H   0  0  0  0  0  0  0  0  0  0  0  0
    1.6793   -3.6366   -0.5890 H   0  0  0  0  0  0  0  0  0  0  0  0
    2.8662   -2.4980    0.0589 H   0  0  0  0  0  0  0  0  0  0  0  0
    2.8538   -4.1816    0.6166 H   0  0  0  0  0  0  0  0  0  0  0  0
    0.9758   -0.5952    1.0708 N   0  0  0  0  0  0  0  0  0  0  0  0
    0.3258    0.6374    0.7059 C   0  0  2  0  0  0  0  0  0  0  0  0
   -0.3371    1.1953    1.9609 C   0  0  0  0  0  0  0  0  0  0  0  0
    0.2118    1.2041    3.0608 O   0  0  0  0  0  0  0  0  0  0  0  0
   -0.7152    0.4315   -0.4010 C   0  0  0  0  0  0  0  0  0  0  0  0
   -0.1056    0.0287   -1.7431 C   0  0  0  0  0  0  0  0  0  0  0  0
   -1.0935   -0.2165   -2.8884 C   0  0  0  0  0  0  0  0  0  0  0  0
   -2.3094   -0.1890   -2.5413 O   0  5  0  0  0  0  0  0  0  0  0  0
   -0.5913   -0.4000   -4.0313 O   0  0  0  0  0  0  0  0  0  0  0  0
    1.9288   -0.5463    1.4242 H   0  0  0  0  0  0  0  0  0  0  0  0
    1.1154    1.3270    0.3885 H   0  0  0  0  0  0  0  0  0  0  0  0
   -1.3114    1.3434   -0.5299 H   0  0  0  0  0  0  0  0  0  0  0  0
   -1.4226   -0.3502   -0.0930 H   0  0  0  0  0  0  0  0  0  0  0  0
    0.6314    0.7767   -2.0590 H   0  0  0  0  0  0  0  0  0  0  0  0
    0.4440   -0.9112   -1.6052 H   0  0  0  0  0  0  0  0  0  0  0  0
   -1.6295    1.6381    1.7154 N   0  0  0  0  0  0  0  0  0  0  0  0
   -2.4750    2.1968    2.7448 C   0  0  2  0  0  0  0  0  0  0  0  0
   -3.9144    2.1462    2.2498 C   0  0  0  0  0  0  0  0  0  0  0  0
   -4.2124    2.0839    1.0588 O   0  0  0  0  0  0  0  0  0  0  0  0
   -2.0664    3.6219    3.0834 C   0  0  0  0  0  0  0  0  0  0  0  0
   -1.9964    1.6057    0.7688 H   0  0  0  0  0  0  0  0  0  0  0  0
   -2.3682    1.5538    3.6252 H   0  0  0  0  0  0  0  0  0  0  0  0
   -2.1667    4.2809    2.2133 H   0  0  0  0  0  0  0  0  0  0  0  0
   -2.6899    4.0339    3.8837 H   0  0  0  0  0  0  0  0  0  0  0  0
   -1.0218    3.6605    3.4108 H   0  0  0  0  0  0  0  0  0  0  0  0
   -4.8277    2.2225    3.2921 N   0  0  0  0  0  0  0  0  0  0  0  0
   -6.2562    2.2069    3.0797 C   0  0  0  0  0  0  0  0  0  0  0  0
   -4.4912    2.2527    4.2500 H   0  0  0  0  0  0  0  0  0  0  0  0
   -6.6262    3.2393    2.9954 H   0  0  0  0  0  0  0  0  0  0  0  0
   -6.4830    1.6594    2.1529 H   0  0  0  0  0  0  0  0  0  0  0  0
   -6.7476    1.7095    3.9289 H   0  0  0  0  0  0  0  0  0  0  0  0
  1  3  1  0  0  0  0
  1  7  1  0  0  0  0
  1  2  2  0  0  0  0
 33 34  1  0  0  0  0
 34 42  1  0  0  0  0
 34 35  2  0  0  0  0
  8  9  1  0  0  0  0
  9 17  1  0  0  0  0
  9 10  2  0  0  0  0
 18 19  1  0  0  0  0
 19 32  1  0  0  0  0
 19 20  2  0  0  0  0
 22 23  1  0  0  0  0
 23 24  1  0  0  0  0
 23 25  2  0  0  0  0
 33 36  1  0  0  0  0
  8 11  1  0  0  0  0
 42 43  1  0  0  0  0
 21 22  1  0  0  0  0
 18 21  1  0  0  0  0
 32 33  1  0  0  0  0
  7  8  1  0  0  0  0
 17 18  1  0  0  0  0
  3  4  1  0  0  0  0
  3  5  1  0  0  0  0
  3  6  1  0  0  0  0
 36 39  1  0  0  0  0
 36 40  1  0  0  0  0
 36 41  1  0  0  0  0
 11 14  1  0  0  0  0
 11 15  1  0  0  0  0
 11 16  1  0  0  0  0
 43 45  1  0  0  0  0
 43 46  1  0  0  0  0
 43 47  1  0  0  0  0
 22 30  1  0  0  0  0
 22 31  1  0  0  0  0
 21 28  1  0  0  0  0
 21 29  1  0  0  0  0
 33 38  1  0  0  0  0
  8 13  1  0  0  0  0
 18 27  1  0  0  0  0
 42 44  1  0  0  0  0
  7 12  1  0  0  0  0
 32 37  1  0  0  0  0
 17 26  1  0  0  0  0
M  CHG  1  24  -1
M  END
$$$$

  -OEChem-05262214473D

 47 46  0     1  0  0  0  0  0999 V2000
    0.5093   -4.7265    3.0306 C   0  0  0  0  0  0  0  0  0  0  0  0
    1.2735   -4.4402    3.9448 O   0  0  0  0  0  0  0  0  0  0  0  0
   -0.4465   -5.8608    3.1982 C   0  0  0  0  0  0  0  0  0  0  0  0
   -0.0219   -6.8213    2.8645 H   0  0  0  0  0  0  0  0  0  0  0  0
   -0.7314   -6.0185    4.2509 H   0  0  0  0  0  0  0  0  0  0  0  0
   -1.3983   -5.7596    2.6527 H   0  0  0  0  0  0  0  0  0  0  0  0
    0.4252   -4.0886    1.8040 N   0  0  0  0  0  0  0  0  0  0  0  0
    1.2532   -2.9707    1.4349 C   0  0  2  0  0  0  0  0  0  0  0  0
    0.3395   -1.8293    1.0083 C   0  0  0  0  0  0  0  0  0  0  0  0
   -0.8136   -2.0027    0.6194 O   0  0  0  0  0  0  0  0  0  0  0  0
    2.2176   -3.3411    0.3189 C   0  0  0  0  0  0  0  0  0  0  0  0
   -0.2574   -4.4279    1.1287 H   0  0  0  0  0  0  0  0  0  0  0  0
    1.8087   -2.6785    2.3327 H   0  0  0  0  0  0  0  0  0  0  0  0
    1.6793   -3.6366   -0.5890 H   0  0  0  0  0  0  0  0  0  0  0  0
    2.8662   -2.4980    0.0589 H   0  0  0  0  0  0  0  0  0  0  0  0
    2.8538   -4.1816    0.6166 H   0  0  0  0  0  0  0  0  0  0  0  0
    0.9758   -0.5952    1.0708 N   0  0  0  0  0  0  0  0  0  0  0  0
    0.3258    0.6374    0.7059 C   0  0  2  0  0  0  0  0  0  0  0  0
   -0.3371    1.1953    1.9609 C   0  0  0  0  0  0  0  0  0  0  0  0
    0.2855    1.4528    2.9892 O   0  0  0  0  0  0  0  0  0  0  0  0
   -0.7152    0.4315   -0.4010 C   0  0  0  0  0  0  0  0  0  0  0  0
   -0.1056    0.0287   -1.7431 C   0  0  0  0  0  0  0  0  0  0  0  0
   -1.0935   -0.2165   -2.8884 C   0  0  0  0  0  0  0  0  0  0  0  0
   -2.3094   -0.1890   -2.5413 O   0  5  0  0  0  0  0  0  0  0  0  0
   -0.5913   -0.4000   -4.0313 O   0  0  0  0  0  0  0  0  0  0  0  0
    1.9288   -0.5463    1.4242 H   0  0  0  0  0  0  0  0  0  0  0  0
    1.1154    1.3270    0.3885 H   0  0  0  0  0  0  0  0  0  0  0  0
   -1.3114    1.3434   -0.5299 H   0  0  0  0  0  0  0  0  0  0  0  0
   -1.4226   -0.3502   -0.0930 H   0  0  0  0  0  0  0  0  0  0  0  0
    0.6314    0.7767   -2.0590 H   0  0  0  0  0  0  0  0  0  0  0  0
    0.4440   -0.9112   -1.6052 H   0  0  0  0  0  0  0  0  0  0  0  0
   -1.7107    1.3266    1.8109 N   0  0  0  0  0  0  0  0  0  0  0  0
   -2.5700    1.8197    2.8622 C   0  0  2  0  0  0  0  0  0  0  0  0
   -3.9994    1.4111    2.5317 C   0  0  0  0  0  0  0  0  0  0  0  0
   -4.3738    1.1425    1.3921 O   0  0  0  0  0  0  0  0  0  0  0  0
   -2.4559    3.3292    3.0078 C   0  0  0  0  0  0  0  0  0  0  0  0
   -2.1385    1.1028    0.9173 H   0  0  0  0  0  0  0  0  0  0  0  0
   -2.2530    1.3260    3.7874 H   0  0  0  0  0  0  0  0  0  0  0  0
   -2.7692    3.8411    2.0906 H   0  0  0  0  0  0  0  0  0  0  0  0
   -3.0862    3.6978    3.8238 H   0  0  0  0  0  0  0  0  0  0  0  0
   -1.4216    3.6236    3.2160 H   0  0  0  0  0  0  0  0  0  0  0  0
   -4.8181    1.4235    3.6523 N   0  0  0  0  0  0  0  0  0  0  0  0
   -6.2212    1.0857    3.5966 C   0  0  0  0  0  0  0  0  0  0  0  0
   -4.4185    1.6403    4.5607 H   0  0  0  0  0  0  0  0  0  0  0  0
   -6.8135    2.0006    3.4473 H   0  0  0  0  0  0  0  0  0  0  0  0
   -6.3986    0.3936    2.7602 H   0  0  0  0  0  0  0  0  0  0  0  0
   -6.5203    0.6053    4.5398 H   0  0  0  0  0  0  0  0  0  0  0  0
  1  3  1  0  0  0  0
  1  7  1  0  0  0  0
  1  2  2  0  0  0  0
 33 34  1  0  0  0  0
 34 42  1  0  0  0  0
 34 35  2  0  0  0  0
  8  9  1  0  0  0  0
  9 17  1  0  0  0  0
  9 10  2  0  0  0  0
 18 19  1  0  0  0  0
 19 32  1  0  0  0  0
 19 20  2  0  0  0  0
 22 23  1  0  0  0  0
 23 24  1  0  0  0  0
 23 25  2  0  0  0  0
 33 36  1  0  0  0  0
  8 11  1  0  0  0  0
 42 43  1  0  0  0  0
 21 22  1  0  0  0  0
 18 21  1  0  0  0  0
 32 33  1  0  0  0  0
  7  8  1  0  0  0  0
 17 18  1  0  0  0  0
  3  4  1  0  0  0  0
  3  5  1  0  0  0  0
  3  6  1  0  0  0  0
 36 39  1  0  0  0  0
 36 40  1  0  0  0  0
 36 41  1  0  0  0  0
 11 14  1  0  0  0  0
 11 15  1  0  0  0  0
 11 16  1  0  0  0  0
 43 45  1  0  0  0  0
 43 46  1  0  0  0  0
 43 47  1  0  0  0  0
 22 30  1  0  0  0  0
 22 31  1  0  0  0  0
 21 28  1  0  0  0  0
 21 29  1  0  0  0  0
 33 38  1  0  0  0  0
  8 13  1  0  0  0  0
 18 27  1  0  0  0  0
 42 44  1  0  0  0  0
  7 12  1  0  0  0  0
 32 37  1  0  0  0  0
 17 26  1  0  0  0  0
M  CHG  1  24  -1
M  END
$$$$

  -OEChem-05262214473D

 47 46  0     1  0  0  0  0  0999 V2000
    0.5093   -4.7265    3.0306 C   0  0  0  0  0  0  0  0  0  0  0  0
    1.2735   -4.4402    3.9448 O   0  0  0  0  0  0  0  0  0  0  0  0
   -0.4465   -5.8608    3.1982 C   0  0  0  0  0  0  0  0  0  0  0  0
   -0.0219   -6.8213    2.8645 H   0  0  0  0  0  0  0  0  0  0  0  0
   -0.7314   -6.0185    4.2509 H   0  0  0  0  0  0  0  0  0  0  0  0
   -1.3983   -5.7596    2.6527 H   0  0  0  0  0  0  0  0  0  0  0  0
    0.4252   -4.0886    1.8040 N   0  0  0  0  0  0  0  0  0  0  0  0
    1.2532   -2.9707    1.4349 C   0  0  2  0  0  0  0  0  0  0  0  0
    0.3395   -1.8293    1.0083 C   0  0  0  0  0  0  0  0  0  0  0  0
   -0.8136   -2.0027    0.6194 O   0  0  0  0  0  0  0  0  0  0  0  0
    2.2176   -3.3411    0.3189 C   0  0  0  0  0  0  0  0  0  0  0  0
   -0.2574   -4.4279    1.1287 H   0  0  0  0  0  0  0  0  0  0  0  0
    1.8087   -2.6785    2.3327 H   0  0  0  0  0  0  0  0  0  0  0  0
    1.6793   -3.6366   -0.5890 H   0  0  0  0  0  0  0  0  0  0  0  0
    2.8662   -2.4980    0.0589 H   0  0  0  0  0  0  0  0  0  0  0  0
    2.8538   -4.1816    0.6166 H   0  0  0  0  0  0  0  0  0  0  0  0
    0.9758   -0.5952    1.0708 N   0  0  0  0  0  0  0  0  0  0  0  0
    0.3258    0.6374    0.7059 C   0  0  2  0  0  0  0  0  0  0  0  0
   -0.3371    1.1953    1.9609 C   0  0  0  0  0  0  0  0  0  0  0  0
    0.2969    1.7007    2.8850 O   0  0  0  0  0  0  0  0  0  0  0  0
   -0.7152    0.4315   -0.4010 C   0  0  0  0  0  0  0  0  0  0  0  0
   -0.1056    0.0287   -1.7431 C   0  0  0  0  0  0  0  0  0  0  0  0
   -1.0935   -0.2165   -2.8884 C   0  0  0  0  0  0  0  0  0  0  0  0
   -2.3094   -0.1890   -2.5413 O   0  5  0  0  0  0  0  0  0  0  0  0
   -0.5913   -0.4000   -4.0313 O   0  0  0  0  0  0  0  0  0  0  0  0
    1.9288   -0.5463    1.4242 H   0  0  0  0  0  0  0  0  0  0  0  0
    1.1154    1.3270    0.3885 H   0  0  0  0  0  0  0  0  0  0  0  0
   -1.3114    1.3434   -0.5299 H   0  0  0  0  0  0  0  0  0  0  0  0
   -1.4226   -0.3502   -0.0930 H   0  0  0  0  0  0  0  0  0  0  0  0
    0.6314    0.7767   -2.0590 H   0  0  0  0  0  0  0  0  0  0  0  0
    0.4440   -0.9112   -1.6052 H   0  0  0  0  0  0  0  0  0  0  0  0
   -1.7138    1.0192    1.9460 N   0  0  0  0  0  0  0  0  0  0  0  0
   -2.5702    1.4484    3.0271 C   0  0  2  0  0  0  0  0  0  0  0  0
   -3.8982    0.7146    2.8948 C   0  0  0  0  0  0  0  0  0  0  0  0
   -4.2976    0.2364    1.8352 O   0  0  0  0  0  0  0  0  0  0  0  0
   -2.7770    2.9549    3.0046 C   0  0  0  0  0  0  0  0  0  0  0  0
   -2.1546    0.6035    1.1308 H   0  0  0  0  0  0  0  0  0  0  0  0
   -2.0779    1.1487    3.9587 H   0  0  0  0  0  0  0  0  0  0  0  0
   -3.2692    3.2741    2.0786 H   0  0  0  0  0  0  0  0  0  0  0  0
   -3.4031    3.2820    3.8413 H   0  0  0  0  0  0  0  0  0  0  0  0
   -1.8185    3.4809    3.0698 H   0  0  0  0  0  0  0  0  0  0  0  0
   -4.6045    0.6943    4.0893 N   0  0  0  0  0  0  0  0  0  0  0  0
   -5.8997    0.0684    4.2187 C   0  0  0  0  0  0  0  0  0  0  0  0
   -4.1884    1.0991    4.9229 H   0  0  0  0  0  0  0  0  0  0  0  0
   -6.6877    0.8150    4.0408 H   0  0  0  0  0  0  0  0  0  0  0  0
   -5.9901   -0.7428    3.4813 H   0  0  0  0  0  0  0  0  0  0  0  0
   -6.0078   -0.3441    5.2327 H   0  0  0  0  0  0  0  0  0  0  0  0
  1  3  1  0  0  0  0
  1  7  1  0  0  0  0
  1  2  2  0  0  0  0
 33 34  1  0  0  0  0
 34 42  1  0  0  0  0
 34 35  2  0  0  0  0
  8  9  1  0  0  0  0
  9 17  1  0  0  0  0
  9 10  2  0  0  0  0
 18 19  1  0  0  0  0
 19 32  1  0  0  0  0
 19 20  2  0  0  0  0
 22 23  1  0  0  0  0
 23 24  1  0  0  0  0
 23 25  2  0  0  0  0
 33 36  1  0  0  0  0
  8 11  1  0  0  0  0
 42 43  1  0  0  0  0
 21 22  1  0  0  0  0
 18 21  1  0  0  0  0
 32 33  1  0  0  0  0
  7  8  1  0  0  0  0
 17 18  1  0  0  0  0
  3  4  1  0  0  0  0
  3  5  1  0  0  0  0
  3  6  1  0  0  0  0
 36 39  1  0  0  0  0
 36 40  1  0  0  0  0
 36 41  1  0  0  0  0
 11 14  1  0  0  0  0
 11 15  1  0  0  0  0
 11 16  1  0  0  0  0
 43 45  1  0  0  0  0
 43 46  1  0  0  0  0
 43 47  1  0  0  0  0
 22 30  1  0  0  0  0
 22 31  1  0  0  0  0
 21 28  1  0  0  0  0
 21 29  1  0  0  0  0
 33 38  1  0  0  0  0
  8 13  1  0  0  0  0
 18 27  1  0  0  0  0
 42 44  1  0  0  0  0
  7 12  1  0  0  0  0
 32 37  1  0  0  0  0
 17 26  1  0  0  0  0
M  CHG  1  24  -1
M  END
$$$$

  -OEChem-05262214473D

 47 46  0     1  0  0  0  0  0999 V2000
    0.5093   -4.7265    3.0306 C   0  0  0  0  0  0  0  0  0  0  0  0
    1.2735   -4.4402    3.9448 O   0  0  0  0  0  0  0  0  0  0  0  0
   -0.4465   -5.8608    3.1982 C   0  0  0  0  0  0  0  0  0  0  0  0
   -0.0219   -6.8213    2.8645 H   0  0  0  0  0  0  0  0  0  0  0  0
   -0.7314   -6.0185    4.2509 H   0  0  0  0  0  0  0  0  0  0  0  0
   -1.3983   -5.7596    2.6527 H   0  0  0  0  0  0  0  0  0  0  0  0
    0.4252   -4.0886    1.8040 N   0  0  0  0  0  0  0  0  0  0  0  0
    1.2532   -2.9707    1.4349 C   0  0  2  0  0  0  0  0  0  0  0  0
    0.3395   -1.8293    1.0083 C   0  0  0  0  0  0  0  0  0  0  0  0
   -0.8136   -2.0027    0.6194 O   0  0  0  0  0  0  0  0  0  0  0  0
    2.2176   -3.3411    0.3189 C   0  0  0  0  0  0  0  0  0  0  0  0
   -0.2574   -4.4279    1.1287 H   0  0  0  0  0  0  0  0  0  0  0  0
    1.8087   -2.6785    2.3327 H   0  0  0  0  0  0  0  0  0  0  0  0
    1.6793   -3.6366   -0.5890 H   0  0  0  0  0  0  0  0  0  0  0  0
    2.8662   -2.4980    0.0589 H   0  0  0  0  0  0  0  0  0  0  0  0
    2.8538   -4.1816    0.6166 H   0  0  0  0  0  0  0  0  0  0  0  0
    0.9758   -0.5952    1.0708 N   0  0  0  0  0  0  0  0  0  0  0  0
    0.3258    0.6374    0.7059 C   0  0  2  0  0  0  0  0  0  0  0  0
   -0.3371    1.1953    1.9609 C   0  0  0  0  0  0  0  0  0  0  0  0
    0.2452    1.9308    2.7554 O   0  0  0  0  0  0  0  0  0  0  0  0
   -0.7152    0.4315   -0.4010 C   0  0  0  0  0  0  0  0  0  0  0  0
   -0.1056    0.0287   -1.7431 C   0  0  0  0  0  0  0  0  0  0  0  0
   -1.0935   -0.2165   -2.8884 C   0  0  0  0  0  0  0  0  0  0  0  0
   -2.3094   -0.1890   -2.5413 O   0  5  0  0  0  0  0  0  0  0  0  0
   -0.5913   -0.4000   -4.0313 O   0  0  0  0  0  0  0  0  0  0  0  0
    1.9288   -0.5463    1.4242 H   0  0  0  0  0  0  0  0  0  0  0  0
    1.1154    1.3270    0.3885 H   0  0  0  0  0  0  0  0  0  0  0  0
   -1.3114    1.3434   -0.5299 H   0  0  0  0  0  0  0  0  0  0  0  0
   -1.4226   -0.3502   -0.0930 H   0  0  0  0  0  0  0  0  0  0  0  0
    0.6314    0.7767   -2.0590 H   0  0  0  0  0  0  0  0  0  0  0  0
    0.4440   -0.9112   -1.6052 H   0  0  0  0  0  0  0  0  0  0  0  0
   -1.6385    0.7368    2.1113 N   0  0  0  0  0  0  0  0  0  0  0  0
   -2.4758    1.1083    3.2282 C   0  0  2  0  0  0  0  0  0  0  0  0
   -3.6178    0.1043    3.3143 C   0  0  0  0  0  0  0  0  0  0  0  0
   -3.9891   -0.5729    2.3580 O   0  0  0  0  0  0  0  0  0  0  0  0
   -3.0078    2.5246    3.0740 C   0  0  0  0  0  0  0  0  0  0  0  0
   -2.0436    0.1418    1.3947 H   0  0  0  0  0  0  0  0  0  0  0  0
   -1.8548    1.0340    4.1276 H   0  0  0  0  0  0  0  0  0  0  0  0
   -3.6324    2.6186    2.1782 H   0  0  0  0  0  0  0  0  0  0  0  0
   -3.6190    2.8149    3.9350 H   0  0  0  0  0  0  0  0  0  0  0  0
   -2.1852    3.2421    2.9823 H   0  0  0  0  0  0  0  0  0  0  0  0
   -4.2016    0.0846    4.5733 N   0  0  0  0  0  0  0  0  0  0  0  0
   -5.3136   -0.7758    4.9036 C   0  0  0  0  0  0  0  0  0  0  0  0
   -3.8166    0.6662    5.3117 H   0  0  0  0  0  0  0  0  0  0  0  0
   -6.2576   -0.2367    4.7356 H   0  0  0  0  0  0  0  0  0  0  0  0
   -5.2851   -1.6723    4.2669 H   0  0  0  0  0  0  0  0  0  0  0  0
   -5.2449   -1.0741    5.9602 H   0  0  0  0  0  0  0  0  0  0  0  0
  1  3  1  0  0  0  0
  1  7  1  0  0  0  0
  1  2  2  0  0  0  0
 33 34  1  0  0  0  0
 34 42  1  0  0  0  0
 34 35  2  0  0  0  0
  8  9  1  0  0  0  0
  9 17  1  0  0  0  0
  9 10  2  0  0  0  0
 18 19  1  0  0  0  0
 19 32  1  0  0  0  0
 19 20  2  0  0  0  0
 22 23  1  0  0  0  0
 23 24  1  0  0  0  0
 23 25  2  0  0  0  0
 33 36  1  0  0  0  0
  8 11  1  0  0  0  0
 42 43  1  0  0  0  0
 21 22  1  0  0  0  0
 18 21  1  0  0  0  0
 32 33  1  0  0  0  0
  7  8  1  0  0  0  0
 17 18  1  0  0  0  0
  3  4  1  0  0  0  0
  3  5  1  0  0  0  0
  3  6  1  0  0  0  0
 36 39  1  0  0  0  0
 36 40  1  0  0  0  0
 36 41  1  0  0  0  0
 11 14  1  0  0  0  0
 11 15  1  0  0  0  0
 11 16  1  0  0  0  0
 43 45  1  0  0  0  0
 43 46  1  0  0  0  0
 43 47  1  0  0  0  0
 22 30  1  0  0  0  0
 22 31  1  0  0  0  0
 21 28  1  0  0  0  0
 21 29  1  0  0  0  0
 33 38  1  0  0  0  0
  8 13  1  0  0  0  0
 18 27  1  0  0  0  0
 42 44  1  0  0  0  0
  7 12  1  0  0  0  0
 32 37  1  0  0  0  0
 17 26  1  0  0  0  0
M  CHG  1  24  -1
M  END
$$$$

  -OEChem-05262214473D

 47 46  0     1  0  0  0  0  0999 V2000
    0.5093   -4.7265    3.0306 C   0  0  0  0  0  0  0  0  0  0  0  0
    1.2735   -4.4402    3.9448 O   0  0  0  0  0  0  0  0  0  0  0  0
   -0.4465   -5.8608    3.1982 C   0  0  0  0  0  0  0  0  0  0  0  0
   -0.0219   -6.8213    2.8645 H   0  0  0  0  0  0  0  0  0  0  0  0
   -0.7314   -6.0185    4.2509 H   0  0  0  0  0  0  0  0  0  0  0  0
   -1.3983   -5.7596    2.6527 H   0  0  0  0  0  0  0  0  0  0  0  0
    0.4252   -4.0886    1.8040 N   0  0  0  0  0  0  0  0  0  0  0  0
    1.2532   -2.9707    1.4349 C   0  0  2  0  0  0  0  0  0  0  0  0
    0.3395   -1.8293    1.0083 C   0  0  0  0  0  0  0  0  0  0  0  0
   -0.8136   -2.0027    0.6194 O   0  0  0  0  0  0  0  0  0  0  0  0
    2.2176   -3.3411    0.3189 C   0  0  0  0  0  0  0  0  0  0  0  0
   -0.2574   -4.4279    1.1287 H   0  0  0  0  0  0  0  0  0  0  0  0
    1.8087   -2.6785    2.3327 H   0  0  0  0  0  0  0  0  0  0  0  0
    1.6793   -3.6366   -0.5890 H   0  0  0  0  0  0  0  0  0  0  0  0
    2.8662   -2.4980    0.0589 H   0  0  0  0  0  0  0  0  0  0  0  0
    2.8538   -4.1816    0.6166 H   0  0  0  0  0  0  0  0  0  0  0  0
    0.9758   -0.5952    1.0708 N   0  0  0  0  0  0  0  0  0  0  0  0
    0.3258    0.6374    0.7059 C   0  0  2  0  0  0  0  0  0  0  0  0
   -0.3371    1.1953    1.9609 C   0  0  0  0  0  0  0  0  0  0  0  0
    0.1340    2.1275    2.6092 O   0  0  0  0  0  0  0  0  0  0  0  0
   -0.7152    0.4315   -0.4010 C   0  0  0  0  0  0  0  0  0  0  0  0
   -0.1056    0.0287   -1.7431 C   0  0  0  0  0  0  0  0  0  0  0  0
   -1.0935   -0.2165   -2.8884 C   0  0  0  0  0  0  0  0  0  0  0  0
   -2.3094   -0.1890   -2.5413 O   0  5  0  0  0  0  0  0  0  0  0  0
   -0.5913   -0.4000   -4.0313 O   0  0  0  0  0  0  0  0  0  0  0  0
    1.9288   -0.5463    1.4242 H   0  0  0  0  0  0  0  0  0  0  0  0
    1.1154    1.3270    0.3885 H   0  0  0  0  0  0  0  0  0  0  0  0
   -1.3114    1.3434   -0.5299 H   0  0  0  0  0  0  0  0  0  0  0  0
   -1.4226   -0.3502   -0.0930 H   0  0  0  0  0  0  0  0  0  0  0  0
    0.6314    0.7767   -2.0590 H   0  0  0  0  0  0  0  0  0  0  0  0
    0.4440   -0.9112   -1.6052 H   0  0  0  0  0  0  0  0  0  0  0  0
   -1.4900    0.4987    2.2956 N   0  0  0  0  0  0  0  0  0  0  0  0
   -2.2932    0.8226    3.4518 C   0  0  2  0  0  0  0  0  0  0  0  0
   -3.1771   -0.3783    3.7616 C   0  0  0  0  0  0  0  0  0  0  0  0
   -3.4692   -1.2300    2.9247 O   0  0  0  0  0  0  0  0  0  0  0  0
   -3.1325    2.0677    3.2113 C   0  0  0  0  0  0  0  0  0  0  0  0
   -1.8131   -0.2508    1.6910 H   0  0  0  0  0  0  0  0  0  0  0  0
   -1.5988    0.9897    4.2824 H   0  0  0  0  0  0  0  0  0  0  0  0
   -3.8343    1.9193    2.3825 H   0  0  0  0  0  0  0  0  0  0  0  0
   -3.7191    2.3282    4.0984 H   0  0  0  0  0  0  0  0  0  0  0  0
   -2.4969    2.9235    2.9593 H   0  0  0  0  0  0  0  0  0  0  0  0
   -3.6367   -0.3640    5.0711 N   0  0  0  0  0  0  0  0  0  0  0  0
   -4.5027   -1.3893    5.6047 C   0  0  0  0  0  0  0  0  0  0  0  0
   -3.3284    0.3709    5.7009 H   0  0  0  0  0  0  0  0  0  0  0  0
   -5.5523   -1.0827    5.4843 H   0  0  0  0  0  0  0  0  0  0  0  0
   -4.3318   -2.3316    5.0636 H   0  0  0  0  0  0  0  0  0  0  0  0
   -4.2837   -1.5349    6.6728 H   0  0  0  0  0  0  0  0  0  0  0  0
  1  3  1  0  0  0  0
  1  7  1  0  0  0  0
  1  2  2  0  0  0  0
 33 34  1  0  0  0  0
 34 42  1  0  0  0  0
 34 35  2  0  0  0  0
  8  9  1  0  0  0  0
  9 17  1  0  0  0  0
  9 10  2  0  0  0  0
 18 19  1  0  0  0  0
 19 32  1  0  0  0  0
 19 20  2  0  0  0  0
 22 23  1  0  0  0  0
 23 24  1  0  0  0  0
 23 25  2  0  0  0  0
 33 36  1  0  0  0  0
  8 11  1  0  0  0  0
 42 43  1  0  0  0  0
 21 22  1  0  0  0  0
 18 21  1  0  0  0  0
 32 33  1  0  0  0  0
  7  8  1  0  0  0  0
 17 18  1  0  0  0  0
  3  4  1  0  0  0  0
  3  5  1  0  0  0  0
  3  6  1  0  0  0  0
 36 39  1  0  0  0  0
 36 40  1  0  0  0  0
 36 41  1  0  0  0  0
 11 14  1  0  0  0  0
 11 15  1  0  0  0  0
 11 16  1  0  0  0  0
 43 45  1  0  0  0  0
 43 46  1  0  0  0  0
 43 47  1  0  0  0  0
 22 30  1  0  0  0  0
 22 31  1  0  0  0  0
 21 28  1  0  0  0  0
 21 29  1  0  0  0  0
 33 38  1  0  0  0  0
  8 13  1  0  0  0  0
 18 27  1  0  0  0  0
 42 44  1  0  0  0  0
  7 12  1  0  0  0  0
 32 37  1  0  0  0  0
 17 26  1  0  0  0  0
M  CHG  1  24  -1
M  END
$$$$

  -OEChem-05262214473D

 47 46  0     1  0  0  0  0  0999 V2000
    0.5093   -4.7265    3.0306 C   0  0  0  0  0  0  0  0  0  0  0  0
    1.2735   -4.4402    3.9448 O   0  0  0  0  0  0  0  0  0  0  0  0
   -0.4465   -5.8608    3.1982 C   0  0  0  0  0  0  0  0  0  0  0  0
   -0.0219   -6.8213    2.8645 H   0  0  0  0  0  0  0  0  0  0  0  0
   -0.7314   -6.0185    4.2509 H   0  0  0  0  0  0  0  0  0  0  0  0
   -1.3983   -5.7596    2.6527 H   0  0  0  0  0  0  0  0  0  0  0  0
    0.4252   -4.0886    1.8040 N   0  0  0  0  0  0  0  0  0  0  0  0
    1.2532   -2.9707    1.4349 C   0  0  2  0  0  0  0  0  0  0  0  0
    0.3395   -1.8293    1.0083 C   0  0  0  0  0  0  0  0  0  0  0  0
   -0.8136   -2.0027    0.6194 O   0  0  0  0  0  0  0  0  0  0  0  0
    2.2176   -3.3411    0.3189 C   0  0  0  0  0  0  0  0  0  0  0  0
   -0.2574   -4.4279    1.1287 H   0  0  0  0  0  0  0  0  0  0  0  0
    1.8087   -2.6785    2.3327 H   0  0  0  0  0  0  0  0  0  0  0  0
    1.6793   -3.6366   -0.5890 H   0  0  0  0  0  0  0  0  0  0  0  0
    2.8662   -2.4980    0.0589 H   0  0  0  0  0  0  0  0  0  0  0  0
    2.8538   -4.1816    0.6166 H   0  0  0  0  0  0  0  0  0  0  0  0
    0.9758   -0.5952    1.0708 N   0  0  0  0  0  0  0  0  0  0  0  0
    0.3258    0.6374    0.7059 C   0  0  2  0  0  0  0  0  0  0  0  0
   -0.3371    1.1953    1.9609 C   0  0  0  0  0  0  0  0  0  0  0  0
   -0.0291    2.2774    2.4564 O   0  0  0  0  0  0  0  0  0  0  0  0
   -0.7152    0.4315   -0.4010 C   0  0  0  0  0  0  0  0  0  0  0  0
   -0.1056    0.0287   -1.7431 C   0  0  0  0  0  0  0  0  0  0  0  0
   -1.0935   -0.2165   -2.8884 C   0  0  0  0  0  0  0  0  0  0  0  0
   -2.3094   -0.1890   -2.5413 O   0  5  0  0  0  0  0  0  0  0  0  0
   -0.5913   -0.4000   -4.0313 O   0  0  0  0  0  0  0  0  0  0  0  0
    1.9288   -0.5463    1.4242 H   0  0  0  0  0  0  0  0  0  0  0  0
    1.1154    1.3270    0.3885 H   0  0  0  0  0  0  0  0  0  0  0  0
   -1.3114    1.3434   -0.5299 H   0  0  0  0  0  0  0  0  0  0  0  0
   -1.4226   -0.3502   -0.0930 H   0  0  0  0  0  0  0  0  0  0  0  0
    0.6314    0.7767   -2.0590 H   0  0  0  0  0  0  0  0  0  0  0  0
    0.4440   -0.9112   -1.6052 H   0  0  0  0  0  0  0  0  0  0  0  0
   -1.2784    0.3211    2.4863 N   0  0  0  0  0  0  0  0  0  0  0  0
   -2.0347    0.6106    3.6825 C   0  0  2  0  0  0  0  0  0  0  0  0
   -2.6064   -0.7003    4.2063 C   0  0  0  0  0  0  0  0  0  0  0  0
   -2.7735   -1.6902    3.4969 O   0  0  0  0  0  0  0  0  0  0  0  0
   -3.1426    1.6152    3.4071 C   0  0  0  0  0  0  0  0  0  0  0  0
   -1.4787   -0.5476    1.9996 H   0  0  0  0  0  0  0  0  0  0  0  0
   -1.3275    1.0189    4.4128 H   0  0  0  0  0  0  0  0  0  0  0  0
   -3.8610    1.2237    2.6776 H   0  0  0  0  0  0  0  0  0  0  0  0
   -3.6967    1.8552    4.3206 H   0  0  0  0  0  0  0  0  0  0  0  0
   -2.7323    2.5467    3.0025 H   0  0  0  0  0  0  0  0  0  0  0  0
   -2.9483   -0.6211    5.5490 N   0  0  0  0  0  0  0  0  0  0  0  0
   -3.5225   -1.7304    6.2741 C   0  0  0  0  0  0  0  0  0  0  0  0
   -2.7571    0.2335    6.0637 H   0  0  0  0  0  0  0  0  0  0  0  0
   -4.6199   -1.6654    6.2358 H   0  0  0  0  0  0  0  0  0  0  0  0
   -3.1951   -2.6758    5.8170 H   0  0  0  0  0  0  0  0  0  0  0  0
   -3.1896   -1.6950    7.3219 H   0  0  0  0  0  0  0  0  0  0  0  0
  1  3  1  0  0  0  0
  1  7  1  0  0  0  0
  1  2  2  0  0  0  0
 33 34  1  0  0  0  0
 34 42  1  0  0  0  0
 34 35  2  0  0  0  0
  8  9  1  0  0  0  0
  9 17  1  0  0  0  0
  9 10  2  0  0  0  0
 18 19  1  0  0  0  0
 19 32  1  0  0  0  0
 19 20  2  0  0  0  0
 22 23  1  0  0  0  0
 23 24  1  0  0  0  0
 23 25  2  0  0  0  0
 33 36  1  0  0  0  0
  8 11  1  0  0  0  0
 42 43  1  0  0  0  0
 21 22  1  0  0  0  0
 18 21  1  0  0  0  0
 32 33  1  0  0  0  0
  7  8  1  0  0  0  0
 17 18  1  0  0  0  0
  3  4  1  0  0  0  0
  3  5  1  0  0  0  0
  3  6  1  0  0  0  0
 36 39  1  0  0  0  0
 36 40  1  0  0  0  0
 36 41  1  0  0  0  0
 11 14  1  0  0  0  0
 11 15  1  0  0  0  0
 11 16  1  0  0  0  0
 43 45  1  0  0  0  0
 43 46  1  0  0  0  0
 43 47  1  0  0  0  0
 22 30  1  0  0  0  0
 22 31  1  0  0  0  0
 21 28  1  0  0  0  0
 21 29  1  0  0  0  0
 33 38  1  0  0  0  0
  8 13  1  0  0  0  0
 18 27  1  0  0  0  0
 42 44  1  0  0  0  0
  7 12  1  0  0  0  0
 32 37  1  0  0  0  0
 17 26  1  0  0  0  0
M  CHG  1  24  -1
M  END
$$$$

  -OEChem-05262214473D

 47 46  0     1  0  0  0  0  0999 V2000
    0.5093   -4.7265    3.0306 C   0  0  0  0  0  0  0  0  0  0  0  0
    1.2735   -4.4402    3.9448 O   0  0  0  0  0  0  0  0  0  0  0  0
   -0.4465   -5.8608    3.1982 C   0  0  0  0  0  0  0  0  0  0  0  0
   -0.0219   -6.8213    2.8645 H   0  0  0  0  0  0  0  0  0  0  0  0
   -0.7314   -6.0185    4.2509 H   0  0  0  0  0  0  0  0  0  0  0  0
   -1.3983   -5.7596    2.6527 H   0  0  0  0  0  0  0  0  0  0  0  0
    0.4252   -4.0886    1.8040 N   0  0  0  0  0  0  0  0  0  0  0  0
    1.2532   -2.9707    1.4349 C   0  0  2  0  0  0  0  0  0  0  0  0
    0.3395   -1.8293    1.0083 C   0  0  0  0  0  0  0  0  0  0  0  0
   -0.8136   -2.0027    0.6194 O   0  0  0  0  0  0  0  0  0  0  0  0
    2.2176   -3.3411    0.3189 C   0  0  0  0  0  0  0  0  0  0  0  0
   -0.2574   -4.4279    1.1287 H   0  0  0  0  0  0  0  0  0  0  0  0
    1.8087   -2.6785    2.3327 H   0  0  0  0  0  0  0  0  0  0  0  0
    1.6793   -3.6366   -0.5890 H   0  0  0  0  0  0  0  0  0  0  0  0
    2.8662   -2.4980    0.0589 H   0  0  0  0  0  0  0  0  0  0  0  0
    2.8538   -4.1816    0.6166 H   0  0  0  0  0  0  0  0  0  0  0  0
    0.9758   -0.5952    1.0708 N   0  0  0  0  0  0  0  0  0  0  0  0
    0.3258    0.6374    0.7059 C   0  0  2  0  0  0  0  0  0  0  0  0
   -0.3371    1.1953    1.9609 C   0  0  0  0  0  0  0  0  0  0  0  0
   -0.2331    2.3702    2.3074 O   0  0  0  0  0  0  0  0  0  0  0  0
   -0.7152    0.4315   -0.4010 C   0  0  0  0  0  0  0  0  0  0  0  0
   -0.1056    0.0287   -1.7431 C   0  0  0  0  0  0  0  0  0  0  0  0
   -1.0935   -0.2165   -2.8884 C   0  0  0  0  0  0  0  0  0  0  0  0
   -2.3094   -0.1890   -2.5413 O   0  5  0  0  0  0  0  0  0  0  0  0
   -0.5913   -0.4000   -4.0313 O   0  0  0  0  0  0  0  0  0  0  0  0
    1.9288   -0.5463    1.4242 H   0  0  0  0  0  0  0  0  0  0  0  0
    1.1154    1.3270    0.3885 H   0  0  0  0  0  0  0  0  0  0  0  0
   -1.3114    1.3434   -0.5299 H   0  0  0  0  0  0  0  0  0  0  0  0
   -1.4226   -0.3502   -0.0930 H   0  0  0  0  0  0  0  0  0  0  0  0
    0.6314    0.7767   -2.0590 H   0  0  0  0  0  0  0  0  0  0  0  0
    0.4440   -0.9112   -1.6052 H   0  0  0  0  0  0  0  0  0  0  0  0
   -1.0181    0.2160    2.6706 N   0  0  0  0  0  0  0  0  0  0  0  0
   -1.7180    0.4868    3.9048 C   0  0  2  0  0  0  0  0  0  0  0  0
   -1.9444   -0.8397    4.6179 C   0  0  0  0  0  0  0  0  0  0  0  0
   -1.9492   -1.9222    4.0354 O   0  0  0  0  0  0  0  0  0  0  0  0
   -3.0375    1.1980    3.6481 C   0  0  0  0  0  0  0  0  0  0  0  0
   -1.0633   -0.7284    2.2994 H   0  0  0  0  0  0  0  0  0  0  0  0
   -1.0593    1.1195    4.5097 H   0  0  0  0  0  0  0  0  0  0  0  0
   -3.7107    0.5795    3.0435 H   0  0  0  0  0  0  0  0  0  0  0  0
   -3.5533    1.4281    4.5862 H   0  0  0  0  0  0  0  0  0  0  0  0
   -2.8753    2.1376    3.1089 H   0  0  0  0  0  0  0  0  0  0  0  0
   -2.1834   -0.6690    5.9744 N   0  0  0  0  0  0  0  0  0  0  0  0
   -2.4396   -1.7757    6.8663 C   0  0  0  0  0  0  0  0  0  0  0  0
   -2.1416    0.2632    6.3756 H   0  0  0  0  0  0  0  0  0  0  0  0
   -3.5240   -1.9452    6.9390 H   0  0  0  0  0  0  0  0  0  0  0  0
   -1.9525   -2.6814    6.4759 H   0  0  0  0  0  0  0  0  0  0  0  0
   -2.0371   -1.5437    7.8633 H   0  0  0  0  0  0  0  0  0  0  0  0
  1  3  1  0  0  0  0
  1  7  1  0  0  0  0
  1  2  2  0  0  0  0
 33 34  1  0  0  0  0
 34 42  1  0  0  0  0
 34 35  2  0  0  0  0
  8  9  1  0  0  0  0
  9 17  1  0  0  0  0
  9 10  2  0  0  0  0
 18 19  1  0  0  0  0
 19 32  1  0  0  0  0
 19 20  2  0  0  0  0
 22 23  1  0  0  0  0
 23 24  1  0  0  0  0
 23 25  2  0  0  0  0
 33 36  1  0  0  0  0
  8 11  1  0  0  0  0
 42 43  1  0  0  0  0
 21 22  1  0  0  0  0
 18 21  1  0  0  0  0
 32 33  1  0  0  0  0
  7  8  1  0  0  0  0
 17 18  1  0  0  0  0
  3  4  1  0  0  0  0
  3  5  1  0  0  0  0
  3  6  1  0  0  0  0
 36 39  1  0  0  0  0
 36 40  1  0  0  0  0
 36 41  1  0  0  0  0
 11 14  1  0  0  0  0
 11 15  1  0  0  0  0
 11 16  1  0  0  0  0
 43 45  1  0  0  0  0
 43 46  1  0  0  0  0
 43 47  1  0  0  0  0
 22 30  1  0  0  0  0
 22 31  1  0  0  0  0
 21 28  1  0  0  0  0
 21 29  1  0  0  0  0
 33 38  1  0  0  0  0
  8 13  1  0  0  0  0
 18 27  1  0  0  0  0
 42 44  1  0  0  0  0
  7 12  1  0  0  0  0
 32 37  1  0  0  0  0
 17 26  1  0  0  0  0
M  CHG  1  24  -1
M  END
$$$$

  -OEChem-05262214473D

 47 46  0     1  0  0  0  0  0999 V2000
    0.5093   -4.7265    3.0306 C   0  0  0  0  0  0  0  0  0  0  0  0
    1.2735   -4.4402    3.9448 O   0  0  0  0  0  0  0  0  0  0  0  0
   -0.4465   -5.8608    3.1982 C   0  0  0  0  0  0  0  0  0  0  0  0
   -0.0219   -6.8213    2.8645 H   0  0  0  0  0  0  0  0  0  0  0  0
   -0.7314   -6.0185    4.2509 H   0  0  0  0  0  0  0  0  0  0  0  0
   -1.3983   -5.7596    2.6527 H   0  0  0  0  0  0  0  0  0  0  0  0
    0.4252   -4.0886    1.8040 N   0  0  0  0  0  0  0  0  0  0  0  0
    1.2532   -2.9707    1.4349 C   0  0  2  0  0  0  0  0  0  0  0  0
    0.3395   -1.8293    1.0083 C   0  0  0  0  0  0  0  0  0  0  0  0
   -0.8136   -2.0027    0.6194 O   0  0  0  0  0  0  0  0  0  0  0  0
    2.2176   -3.3411    0.3189 C   0  0  0  0  0  0  0  0  0  0  0  0
   -0.2574   -4.4279    1.1287 H   0  0  0  0  0  0  0  0  0  0  0  0
    1.8087   -2.6785    2.3327 H   0  0  0  0  0  0  0  0  0  0  0  0
    1.6793   -3.6366   -0.5890 H   0  0  0  0  0  0  0  0  0  0  0  0
    2.8662   -2.4980    0.0589 H   0  0  0  0  0  0  0  0  0  0  0  0
    2.8538   -4.1816    0.6166 H   0  0  0  0  0  0  0  0  0  0  0  0
    0.9758   -0.5952    1.0708 N   0  0  0  0  0  0  0  0  0  0  0  0
    0.3258    0.6374    0.7059 C   0  0  2  0  0  0  0  0  0  0  0  0
   -0.3371    1.1953    1.9609 C   0  0  0  0  0  0  0  0  0  0  0  0
   -0.4639    2.3997    2.1723 O   0  0  0  0  0  0  0  0  0  0  0  0
   -0.7152    0.4315   -0.4010 C   0  0  0  0  0  0  0  0  0  0  0  0
   -0.1056    0.0287   -1.7431 C   0  0  0  0  0  0  0  0  0  0  0  0
   -1.0935   -0.2165   -2.8884 C   0  0  0  0  0  0  0  0  0  0  0  0
   -2.3094   -0.1890   -2.5413 O   0  5  0  0  0  0  0  0  0  0  0  0
   -0.5913   -0.4000   -4.0313 O   0  0  0  0  0  0  0  0  0  0  0  0
    1.9288   -0.5463    1.4242 H   0  0  0  0  0  0  0  0  0  0  0  0
    1.1154    1.3270    0.3885 H   0  0  0  0  0  0  0  0  0  0  0  0
   -1.3114    1.3434   -0.5299 H   0  0  0  0  0  0  0  0  0  0  0  0
   -1.4226   -0.3502   -0.0930 H   0  0  0  0  0  0  0  0  0  0  0  0
    0.6314    0.7767   -2.0590 H   0  0  0  0  0  0  0  0  0  0  0  0
    0.4440   -0.9112   -1.6052 H   0  0  0  0  0  0  0  0  0  0  0  0
   -0.7268    0.1907    2.8357 N   0  0  0  0  0  0  0  0  0  0  0  0
   -1.3647    0.4597    4.1035 C   0  0  2  0  0  0  0  0  0  0  0  0
   -1.2363   -0.7871    4.9686 C   0  0  0  0  0  0  0  0  0  0  0  0
   -1.0526   -1.9101    4.5036 O   0  0  0  0  0  0  0  0  0  0  0  0
   -2.8242    0.8446    3.9179 C   0  0  0  0  0  0  0  0  0  0  0  0
   -0.5952   -0.7808    2.5699 H   0  0  0  0  0  0  0  0  0  0  0  0
   -0.8125    1.2847    4.5666 H   0  0  0  0  0  0  0  0  0  0  0  0
   -3.3936    0.0303    3.4551 H   0  0  0  0  0  0  0  0  0  0  0  0
   -3.2986    1.0759    4.8773 H   0  0  0  0  0  0  0  0  0  0  0  0
   -2.9162    1.7238    3.2712 H   0  0  0  0  0  0  0  0  0  0  0  0
   -1.3940   -0.5045    6.3182 N   0  0  0  0  0  0  0  0  0  0  0  0
   -1.3279   -1.5222    7.3408 C   0  0  0  0  0  0  0  0  0  0  0  0
   -1.5239    0.4581    6.6152 H   0  0  0  0  0  0  0  0  0  0  0  0
   -2.3393   -1.9029    7.5460 H   0  0  0  0  0  0  0  0  0  0  0  0
   -0.6886   -2.3480    6.9952 H   0  0  0  0  0  0  0  0  0  0  0  0
   -0.9049   -1.0911    8.2602 H   0  0  0  0  0  0  0  0  0  0  0  0
  1  3  1  0  0  0  0
  1  7  1  0  0  0  0
  1  2  2  0  0  0  0
 33 34  1  0  0  0  0
 34 42  1  0  0  0  0
 34 35  2  0  0  0  0
  8  9  1  0  0  0  0
  9 17  1  0  0  0  0
  9 10  2  0  0  0  0
 18 19  1  0  0  0  0
 19 32  1  0  0  0  0
 19 20  2  0  0  0  0
 22 23  1  0  0  0  0
 23 24  1  0  0  0  0
 23 25  2  0  0  0  0
 33 36  1  0  0  0  0
  8 11  1  0  0  0  0
 42 43  1  0  0  0  0
 21 22  1  0  0  0  0
 18 21  1  0  0  0  0
 32 33  1  0  0  0  0
  7  8  1  0  0  0  0
 17 18  1  0  0  0  0
  3  4  1  0  0  0  0
  3  5  1  0  0  0  0
  3  6  1  0  0  0  0
 36 39  1  0  0  0  0
 36 40  1  0  0  0  0
 36 41  1  0  0  0  0
 11 14  1  0  0  0  0
 11 15  1  0  0  0  0
 11 16  1  0  0  0  0
 43 45  1  0  0  0  0
 43 46  1  0  0  0  0
 43 47  1  0  0  0  0
 22 30  1  0  0  0  0
 22 31  1  0  0  0  0
 21 28  1  0  0  0  0
 21 29  1  0  0  0  0
 33 38  1  0  0  0  0
  8 13  1  0  0  0  0
 18 27  1  0  0  0  0
 42 44  1  0  0  0  0
  7 12  1  0  0  0  0
 32 37  1  0  0  0  0
 17 26  1  0  0  0  0
M  CHG  1  24  -1
M  END
$$$$

  -OEChem-05262214473D

 47 46  0     1  0  0  0  0  0999 V2000
    0.5093   -4.7265    3.0306 C   0  0  0  0  0  0  0  0  0  0  0  0
    1.2735   -4.4402    3.9448 O   0  0  0  0  0  0  0  0  0  0  0  0
   -0.4465   -5.8608    3.1982 C   0  0  0  0  0  0  0  0  0  0  0  0
   -0.0219   -6.8213    2.8645 H   0  0  0  0  0  0  0  0  0  0  0  0
   -0.7314   -6.0185    4.2509 H   0  0  0  0  0  0  0  0  0  0  0  0
   -1.3983   -5.7596    2.6527 H   0  0  0  0  0  0  0  0  0  0  0  0
    0.4252   -4.0886    1.8040 N   0  0  0  0  0  0  0  0  0  0  0  0
    1.2532   -2.9707    1.4349 C   0  0  2  0  0  0  0  0  0  0  0  0
    0.3395   -1.8293    1.0083 C   0  0  0  0  0  0  0  0  0  0  0  0
   -0.8136   -2.0027    0.6194 O   0  0  0  0  0  0  0  0  0  0  0  0
    2.2176   -3.3411    0.3189 C   0  0  0  0  0  0  0  0  0  0  0  0
   -0.2574   -4.4279    1.1287 H   0  0  0  0  0  0  0  0  0  0  0  0
    1.8087   -2.6785    2.3327 H   0  0  0  0  0  0  0  0  0  0  0  0
    1.6793   -3.6366   -0.5890 H   0  0  0  0  0  0  0  0  0  0  0  0
    2.8662   -2.4980    0.0589 H   0  0  0  0  0  0  0  0  0  0  0  0
    2.8538   -4.1816    0.6166 H   0  0  0  0  0  0  0  0  0  0  0  0
    0.9758   -0.5952    1.0708 N   0  0  0  0  0  0  0  0  0  0  0  0
    0.3258    0.6374    0.7059 C   0  0  2  0  0  0  0  0  0  0  0  0
   -0.3371    1.1953    1.9609 C   0  0  0  0  0  0  0  0  0  0  0  0
   -0.7060    2.3638    2.0604 O   0  0  0  0  0  0  0  0  0  0  0  0
   -0.7152    0.4315   -0.4010 C   0  0  0  0  0  0  0  0  0  0  0  0
   -0.1056    0.0287   -1.7431 C   0  0  0  0  0  0  0  0  0  0  0  0
   -1.0935   -0.2165   -2.8884 C   0  0  0  0  0  0  0  0  0  0  0  0
   -2.3094   -0.1890   -2.5413 O   0  5  0  0  0  0  0  0  0  0  0  0
   -0.5913   -0.4000   -4.0313 O   0  0  0  0  0  0  0  0  0  0  0  0
    1.9288   -0.5463    1.4242 H   0  0  0  0  0  0  0  0  0  0  0  0
    1.1154    1.3270    0.3885 H   0  0  0  0  0  0  0  0  0  0  0  0
   -1.3114    1.3434   -0.5299 H   0  0  0  0  0  0  0  0  0  0  0  0
   -1.4226   -0.3502   -0.0930 H   0  0  0  0  0  0  0  0  0  0  0  0
    0.6314    0.7767   -2.0590 H   0  0  0  0  0  0  0  0  0  0  0  0
    0.4440   -0.9112   -1.6052 H   0  0  0  0  0  0  0  0  0  0  0  0
   -0.4244    0.2468    2.9704 N   0  0  0  0  0  0  0  0  0  0  0  0
   -0.9989    0.5312    4.2650 C   0  0  2  0  0  0  0  0  0  0  0  0
   -0.5303   -0.5460    5.2343 C   0  0  0  0  0  0  0  0  0  0  0  0
   -0.1448   -1.6548    4.8696 O   0  0  0  0  0  0  0  0  0  0  0  0
   -2.5174    0.5789    4.1981 C   0  0  0  0  0  0  0  0  0  0  0  0
   -0.1062   -0.7013    2.7929 H   0  0  0  0  0  0  0  0  0  0  0  0
   -0.6039    1.5033    4.5796 H   0  0  0  0  0  0  0  0  0  0  0  0
   -2.9314   -0.3863    3.8845 H   0  0  0  0  0  0  0  0  0  0  0  0
   -2.9501    0.8227    5.1740 H   0  0  0  0  0  0  0  0  0  0  0  0
   -2.8523    1.3338    3.4784 H   0  0  0  0  0  0  0  0  0  0  0  0
   -0.6341   -0.1388    6.5570 N   0  0  0  0  0  0  0  0  0  0  0  0
   -0.2631   -0.9873    7.6653 C   0  0  0  0  0  0  0  0  0  0  0  0
   -0.9461    0.8049    6.7663 H   0  0  0  0  0  0  0  0  0  0  0  0
   -1.1465   -1.5414    8.0153 H   0  0  0  0  0  0  0  0  0  0  0  0
    0.5104   -1.6984    7.3397 H   0  0  0  0  0  0  0  0  0  0  0  0
    0.1299   -0.3682    8.4853 H   0  0  0  0  0  0  0  0  0  0  0  0
  1  3  1  0  0  0  0
  1  7  1  0  0  0  0
  1  2  2  0  0  0  0
 33 34  1  0  0  0  0
 34 42  1  0  0  0  0
 34 35  2  0  0  0  0
  8  9  1  0  0  0  0
  9 17  1  0  0  0  0
  9 10  2  0  0  0  0
 18 19  1  0  0  0  0
 19 32  1  0  0  0  0
 19 20  2  0  0  0  0
 22 23  1  0  0  0  0
 23 24  1  0  0  0  0
 23 25  2  0  0  0  0
 33 36  1  0  0  0  0
  8 11  1  0  0  0  0
 42 43  1  0  0  0  0
 21 22  1  0  0  0  0
 18 21  1  0  0  0  0
 32 33  1  0  0  0  0
  7  8  1  0  0  0  0
 17 18  1  0  0  0  0
  3  4  1  0  0  0  0
  3  5  1  0  0  0  0
  3  6  1  0  0  0  0
 36 39  1  0  0  0  0
 36 40  1  0  0  0  0
 36 41  1  0  0  0  0
 11 14  1  0  0  0  0
 11 15  1  0  0  0  0
 11 16  1  0  0  0  0
 43 45  1  0  0  0  0
 43 46  1  0  0  0  0
 43 47  1  0  0  0  0
 22 30  1  0  0  0  0
 22 31  1  0  0  0  0
 21 28  1  0  0  0  0
 21 29  1  0  0  0  0
 33 38  1  0  0  0  0
  8 13  1  0  0  0  0
 18 27  1  0  0  0  0
 42 44  1  0  0  0  0
  7 12  1  0  0  0  0
 32 37  1  0  0  0  0
 17 26  1  0  0  0  0
M  CHG  1  24  -1
M  END
$$$$

  -OEChem-05262214473D

 47 46  0     1  0  0  0  0  0999 V2000
    0.5093   -4.7265    3.0306 C   0  0  0  0  0  0  0  0  0  0  0  0
    1.2735   -4.4402    3.9448 O   0  0  0  0  0  0  0  0  0  0  0  0
   -0.4465   -5.8608    3.1982 C   0  0  0  0  0  0  0  0  0  0  0  0
   -0.0219   -6.8213    2.8645 H   0  0  0  0  0  0  0  0  0  0  0  0
   -0.7314   -6.0185    4.2509 H   0  0  0  0  0  0  0  0  0  0  0  0
   -1.3983   -5.7596    2.6527 H   0  0  0  0  0  0  0  0  0  0  0  0
    0.4252   -4.0886    1.8040 N   0  0  0  0  0  0  0  0  0  0  0  0
    1.2532   -2.9707    1.4349 C   0  0  2  0  0  0  0  0  0  0  0  0
    0.3395   -1.8293    1.0083 C   0  0  0  0  0  0  0  0  0  0  0  0
   -0.8136   -2.0027    0.6194 O   0  0  0  0  0  0  0  0  0  0  0  0
    2.2176   -3.3411    0.3189 C   0  0  0  0  0  0  0  0  0  0  0  0
   -0.2574   -4.4279    1.1287 H   0  0  0  0  0  0  0  0  0  0  0  0
    1.8087   -2.6785    2.3327 H   0  0  0  0  0  0  0  0  0  0  0  0
    1.6793   -3.6366   -0.5890 H   0  0  0  0  0  0  0  0  0  0  0  0
    2.8662   -2.4980    0.0589 H   0  0  0  0  0  0  0  0  0  0  0  0
    2.8538   -4.1816    0.6166 H   0  0  0  0  0  0  0  0  0  0  0  0
    0.9758   -0.5952    1.0708 N   0  0  0  0  0  0  0  0  0  0  0  0
    0.3258    0.6374    0.7059 C   0  0  2  0  0  0  0  0  0  0  0  0
   -0.3371    1.1953    1.9609 C   0  0  0  0  0  0  0  0  0  0  0  0
   -0.9428    2.2649    1.9793 O   0  0  0  0  0  0  0  0  0  0  0  0
   -0.7152    0.4315   -0.4010 C   0  0  0  0  0  0  0  0  0  0  0  0
   -0.1056    0.0287   -1.7431 C   0  0  0  0  0  0  0  0  0  0  0  0
   -1.0935   -0.2165   -2.8884 C   0  0  0  0  0  0  0  0  0  0  0  0
   -2.3094   -0.1890   -2.5413 O   0  5  0  0  0  0  0  0  0  0  0  0
   -0.5913   -0.4000   -4.0313 O   0  0  0  0  0  0  0  0  0  0  0  0
    1.9288   -0.5463    1.4242 H   0  0  0  0  0  0  0  0  0  0  0  0
    1.1154    1.3270    0.3885 H   0  0  0  0  0  0  0  0  0  0  0  0
   -1.3114    1.3434   -0.5299 H   0  0  0  0  0  0  0  0  0  0  0  0
   -1.4226   -0.3502   -0.0930 H   0  0  0  0  0  0  0  0  0  0  0  0
    0.6314    0.7767   -2.0590 H   0  0  0  0  0  0  0  0  0  0  0  0
    0.4440   -0.9112   -1.6052 H   0  0  0  0  0  0  0  0  0  0  0  0
   -0.1316    0.3806    3.0656 N   0  0  0  0  0  0  0  0  0  0  0  0
   -0.6454    0.6963    4.3783 C   0  0  2  0  0  0  0  0  0  0  0  0
    0.1254   -0.1329    5.3970 C   0  0  0  0  0  0  0  0  0  0  0  0
    0.7124   -1.1737    5.1085 O   0  0  0  0  0  0  0  0  0  0  0  0
   -2.1379    0.4192    4.4695 C   0  0  0  0  0  0  0  0  0  0  0  0
    0.3703   -0.4952    2.9529 H   0  0  0  0  0  0  0  0  0  0  0  0
   -0.4477    1.7603    4.5478 H   0  0  0  0  0  0  0  0  0  0  0  0
   -2.3555   -0.6420    4.3023 H   0  0  0  0  0  0  0  0  0  0  0  0
   -2.5314    0.6858    5.4560 H   0  0  0  0  0  0  0  0  0  0  0  0
   -2.6878    0.9939    3.7164 H   0  0  0  0  0  0  0  0  0  0  0  0
    0.0447    0.4032    6.6746 N   0  0  0  0  0  0  0  0  0  0  0  0
    0.6822   -0.2072    7.8178 C   0  0  0  0  0  0  0  0  0  0  0  0
   -0.4475    1.2799    6.8184 H   0  0  0  0  0  0  0  0  0  0  0  0
   -0.0269   -0.8854    8.3151 H   0  0  0  0  0  0  0  0  0  0  0  0
    1.5627   -0.7768    7.4858 H   0  0  0  0  0  0  0  0  0  0  0  0
    0.9967    0.5758    8.5235 H   0  0  0  0  0  0  0  0  0  0  0  0
  1  3  1  0  0  0  0
  1  7  1  0  0  0  0
  1  2  2  0  0  0  0
 33 34  1  0  0  0  0
 34 42  1  0  0  0  0
 34 35  2  0  0  0  0
  8  9  1  0  0  0  0
  9 17  1  0  0  0  0
  9 10  2  0  0  0  0
 18 19  1  0  0  0  0
 19 32  1  0  0  0  0
 19 20  2  0  0  0  0
 22 23  1  0  0  0  0
 23 24  1  0  0  0  0
 23 25  2  0  0  0  0
 33 36  1  0  0  0  0
  8 11  1  0  0  0  0
 42 43  1  0  0  0  0
 21 22  1  0  0  0  0
 18 21  1  0  0  0  0
 32 33  1  0  0  0  0
  7  8  1  0  0  0  0
 17 18  1  0  0  0  0
  3  4  1  0  0  0  0
  3  5  1  0  0  0  0
  3  6  1  0  0  0  0
 36 39  1  0  0  0  0
 36 40  1  0  0  0  0
 36 41  1  0  0  0  0
 11 14  1  0  0  0  0
 11 15  1  0  0  0  0
 11 16  1  0  0  0  0
 43 45  1  0  0  0  0
 43 46  1  0  0  0  0
 43 47  1  0  0  0  0
 22 30  1  0  0  0  0
 22 31  1  0  0  0  0
 21 28  1  0  0  0  0
 21 29  1  0  0  0  0
 33 38  1  0  0  0  0
  8 13  1  0  0  0  0
 18 27  1  0  0  0  0
 42 44  1  0  0  0  0
  7 12  1  0  0  0  0
 32 37  1  0  0  0  0
 17 26  1  0  0  0  0
M  CHG  1  24  -1
M  END
$$$$

  -OEChem-05262214473D

 47 46  0     1  0  0  0  0  0999 V2000
    0.5093   -4.7265    3.0306 C   0  0  0  0  0  0  0  0  0  0  0  0
    1.2735   -4.4402    3.9448 O   0  0  0  0  0  0  0  0  0  0  0  0
   -0.4465   -5.8608    3.1982 C   0  0  0  0  0  0  0  0  0  0  0  0
   -0.0219   -6.8213    2.8645 H   0  0  0  0  0  0  0  0  0  0  0  0
   -0.7314   -6.0185    4.2509 H   0  0  0  0  0  0  0  0  0  0  0  0
   -1.3983   -5.7596    2.6527 H   0  0  0  0  0  0  0  0  0  0  0  0
    0.4252   -4.0886    1.8040 N   0  0  0  0  0  0  0  0  0  0  0  0
    1.2532   -2.9707    1.4349 C   0  0  2  0  0  0  0  0  0  0  0  0
    0.3395   -1.8293    1.0083 C   0  0  0  0  0  0  0  0  0  0  0  0
   -0.8136   -2.0027    0.6194 O   0  0  0  0  0  0  0  0  0  0  0  0
    2.2176   -3.3411    0.3189 C   0  0  0  0  0  0  0  0  0  0  0  0
   -0.2574   -4.4279    1.1287 H   0  0  0  0  0  0  0  0  0  0  0  0
    1.8087   -2.6785    2.3327 H   0  0  0  0  0  0  0  0  0  0  0  0
    1.6793   -3.6366   -0.5890 H   0  0  0  0  0  0  0  0  0  0  0  0
    2.8662   -2.4980    0.0589 H   0  0  0  0  0  0  0  0  0  0  0  0
    2.8538   -4.1816    0.6166 H   0  0  0  0  0  0  0  0  0  0  0  0
    0.9758   -0.5952    1.0708 N   0  0  0  0  0  0  0  0  0  0  0  0
    0.3258    0.6374    0.7059 C   0  0  2  0  0  0  0  0  0  0  0  0
   -0.3371    1.1953    1.9609 C   0  0  0  0  0  0  0  0  0  0  0  0
   -1.1582    2.1099    1.9345 O   0  0  0  0  0  0  0  0  0  0  0  0
   -0.7152    0.4315   -0.4010 C   0  0  0  0  0  0  0  0  0  0  0  0
   -0.1056    0.0287   -1.7431 C   0  0  0  0  0  0  0  0  0  0  0  0
   -1.0935   -0.2165   -2.8884 C   0  0  0  0  0  0  0  0  0  0  0  0
   -2.3094   -0.1890   -2.5413 O   0  5  0  0  0  0  0  0  0  0  0  0
   -0.5913   -0.4000   -4.0313 O   0  0  0  0  0  0  0  0  0  0  0  0
    1.9288   -0.5463    1.4242 H   0  0  0  0  0  0  0  0  0  0  0  0
    1.1154    1.3270    0.3885 H   0  0  0  0  0  0  0  0  0  0  0  0
   -1.3114    1.3434   -0.5299 H   0  0  0  0  0  0  0  0  0  0  0  0
   -1.4226   -0.3502   -0.0930 H   0  0  0  0  0  0  0  0  0  0  0  0
    0.6314    0.7767   -2.0590 H   0  0  0  0  0  0  0  0  0  0  0  0
    0.4440   -0.9112   -1.6052 H   0  0  0  0  0  0  0  0  0  0  0  0
    0.1318    0.5830    3.1148 N   0  0  0  0  0  0  0  0  0  0  0  0
   -0.3285    0.9438    4.4356 C   0  0  2  0  0  0  0  0  0  0  0  0
    0.6862    0.4241    5.4455 C   0  0  0  0  0  0  0  0  0  0  0  0
    1.4605   -0.4996    5.2039 O   0  0  0  0  0  0  0  0  0  0  0  0
   -1.7117    0.3763    4.7138 C   0  0  0  0  0  0  0  0  0  0  0  0
    0.8018   -0.1767    3.0393 H   0  0  0  0  0  0  0  0  0  0  0  0
   -0.3546    2.0383    4.4734 H   0  0  0  0  0  0  0  0  0  0  0  0
   -1.7053   -0.7193    4.6801 H   0  0  0  0  0  0  0  0  0  0  0  0
   -2.0711    0.6744    5.7042 H   0  0  0  0  0  0  0  0  0  0  0  0
   -2.4340    0.7274    3.9689 H   0  0  0  0  0  0  0  0  0  0  0  0
    0.5961    1.0845    6.6629 N   0  0  0  0  0  0  0  0  0  0  0  0
    1.4436    0.7648    7.7879 C   0  0  0  0  0  0  0  0  0  0  0  0
   -0.0622    1.8508    6.7681 H   0  0  0  0  0  0  0  0  0  0  0  0
    0.9432    0.0205    8.4247 H   0  0  0  0  0  0  0  0  0  0  0  0
    2.3968    0.3540    7.4236 H   0  0  0  0  0  0  0  0  0  0  0  0
    1.6367    1.6766    8.3721 H   0  0  0  0  0  0  0  0  0  0  0  0
  1  3  1  0  0  0  0
  1  7  1  0  0  0  0
  1  2  2  0  0  0  0
 33 34  1  0  0  0  0
 34 42  1  0  0  0  0
 34 35  2  0  0  0  0
  8  9  1  0  0  0  0
  9 17  1  0  0  0  0
  9 10  2  0  0  0  0
 18 19  1  0  0  0  0
 19 32  1  0  0  0  0
 19 20  2  0  0  0  0
 22 23  1  0  0  0  0
 23 24  1  0  0  0  0
 23 25  2  0  0  0  0
 33 36  1  0  0  0  0
  8 11  1  0  0  0  0
 42 43  1  0  0  0  0
 21 22  1  0  0  0  0
 18 21  1  0  0  0  0
 32 33  1  0  0  0  0
  7  8  1  0  0  0  0
 17 18  1  0  0  0  0
  3  4  1  0  0  0  0
  3  5  1  0  0  0  0
  3  6  1  0  0  0  0
 36 39  1  0  0  0  0
 36 40  1  0  0  0  0
 36 41  1  0  0  0  0
 11 14  1  0  0  0  0
 11 15  1  0  0  0  0
 11 16  1  0  0  0  0
 43 45  1  0  0  0  0
 43 46  1  0  0  0  0
 43 47  1  0  0  0  0
 22 30  1  0  0  0  0
 22 31  1  0  0  0  0
 21 28  1  0  0  0  0
 21 29  1  0  0  0  0
 33 38  1  0  0  0  0
  8 13  1  0  0  0  0
 18 27  1  0  0  0  0
 42 44  1  0  0  0  0
  7 12  1  0  0  0  0
 32 37  1  0  0  0  0
 17 26  1  0  0  0  0
M  CHG  1  24  -1
M  END
$$$$

  -OEChem-05262214473D

 47 46  0     1  0  0  0  0  0999 V2000
    0.5093   -4.7265    3.0306 C   0  0  0  0  0  0  0  0  0  0  0  0
    1.2735   -4.4402    3.9448 O   0  0  0  0  0  0  0  0  0  0  0  0
   -0.4465   -5.8608    3.1982 C   0  0  0  0  0  0  0  0  0  0  0  0
   -0.0219   -6.8213    2.8645 H   0  0  0  0  0  0  0  0  0  0  0  0
   -0.7314   -6.0185    4.2509 H   0  0  0  0  0  0  0  0  0  0  0  0
   -1.3983   -5.7596    2.6527 H   0  0  0  0  0  0  0  0  0  0  0  0
    0.4252   -4.0886    1.8040 N   0  0  0  0  0  0  0  0  0  0  0  0
    1.2532   -2.9707    1.4349 C   0  0  2  0  0  0  0  0  0  0  0  0
    0.3395   -1.8293    1.0083 C   0  0  0  0  0  0  0  0  0  0  0  0
   -0.8136   -2.0027    0.6194 O   0  0  0  0  0  0  0  0  0  0  0  0
    2.2176   -3.3411    0.3189 C   0  0  0  0  0  0  0  0  0  0  0  0
   -0.2574   -4.4279    1.1287 H   0  0  0  0  0  0  0  0  0  0  0  0
    1.8087   -2.6785    2.3327 H   0  0  0  0  0  0  0  0  0  0  0  0
    1.6793   -3.6366   -0.5890 H   0  0  0  0  0  0  0  0  0  0  0  0
    2.8662   -2.4980    0.0589 H   0  0  0  0  0  0  0  0  0  0  0  0
    2.8538   -4.1816    0.6166 H   0  0  0  0  0  0  0  0  0  0  0  0
    0.9758   -0.5952    1.0708 N   0  0  0  0  0  0  0  0  0  0  0  0
    0.3258    0.6374    0.7059 C   0  0  2  0  0  0  0  0  0  0  0  0
   -0.3371    1.1953    1.9609 C   0  0  0  0  0  0  0  0  0  0  0  0
   -1.3374    1.9092    1.9290 O   0  0  0  0  0  0  0  0  0  0  0  0
   -0.7152    0.4315   -0.4010 C   0  0  0  0  0  0  0  0  0  0  0  0
   -0.1056    0.0287   -1.7431 C   0  0  0  0  0  0  0  0  0  0  0  0
   -1.0935   -0.2165   -2.8884 C   0  0  0  0  0  0  0  0  0  0  0  0
   -2.3094   -0.1890   -2.5413 O   0  5  0  0  0  0  0  0  0  0  0  0
   -0.5913   -0.4000   -4.0313 O   0  0  0  0  0  0  0  0  0  0  0  0
    1.9288   -0.5463    1.4242 H   0  0  0  0  0  0  0  0  0  0  0  0
    1.1154    1.3270    0.3885 H   0  0  0  0  0  0  0  0  0  0  0  0
   -1.3114    1.3434   -0.5299 H   0  0  0  0  0  0  0  0  0  0  0  0
   -1.4226   -0.3502   -0.0930 H   0  0  0  0  0  0  0  0  0  0  0  0
    0.6314    0.7767   -2.0590 H   0  0  0  0  0  0  0  0  0  0  0  0
    0.4440   -0.9112   -1.6052 H   0  0  0  0  0  0  0  0  0  0  0  0
    0.3478    0.8400    3.1146 N   0  0  0  0  0  0  0  0  0  0  0  0
   -0.0696    1.2568    4.4332 C   0  0  2  0  0  0  0  0  0  0  0  0
    1.1139    1.0871    5.3767 C   0  0  0  0  0  0  0  0  0  0  0  0
    2.0486    0.3217    5.1494 O   0  0  0  0  0  0  0  0  0  0  0  0
   -1.2677    0.4531    4.9141 C   0  0  0  0  0  0  0  0  0  0  0  0
    1.1590    0.2326    3.0459 H   0  0  0  0  0  0  0  0  0  0  0  0
   -0.3309    2.3182    4.3615 H   0  0  0  0  0  0  0  0  0  0  0  0
   -1.0250   -0.6130    4.9922 H   0  0  0  0  0  0  0  0  0  0  0  0
   -1.6006    0.7894    5.9016 H   0  0  0  0  0  0  0  0  0  0  0  0
   -2.1082    0.5525    4.2188 H   0  0  0  0  0  0  0  0  0  0  0  0
    0.9825    1.8587    6.5228 N   0  0  0  0  0  0  0  0  0  0  0  0
    1.9692    1.8624    7.5775 C   0  0  0  0  0  0  0  0  0  0  0  0
    0.1837    2.4787    6.6188 H   0  0  0  0  0  0  0  0  0  0  0  0
    1.6977    1.1144    8.3369 H   0  0  0  0  0  0  0  0  0  0  0  0
    2.9557    1.6169    7.1573 H   0  0  0  0  0  0  0  0  0  0  0  0
    2.0060    2.8591    8.0414 H   0  0  0  0  0  0  0  0  0  0  0  0
  1  3  1  0  0  0  0
  1  7  1  0  0  0  0
  1  2  2  0  0  0  0
 33 34  1  0  0  0  0
 34 42  1  0  0  0  0
 34 35  2  0  0  0  0
  8  9  1  0  0  0  0
  9 17  1  0  0  0  0
  9 10  2  0  0  0  0
 18 19  1  0  0  0  0
 19 32  1  0  0  0  0
 19 20  2  0  0  0  0
 22 23  1  0  0  0  0
 23 24  1  0  0  0  0
 23 25  2  0  0  0  0
 33 36  1  0  0  0  0
  8 11  1  0  0  0  0
 42 43  1  0  0  0  0
 21 22  1  0  0  0  0
 18 21  1  0  0  0  0
 32 33  1  0  0  0  0
  7  8  1  0  0  0  0
 17 18  1  0  0  0  0
  3  4  1  0  0  0  0
  3  5  1  0  0  0  0
  3  6  1  0  0  0  0
 36 39  1  0  0  0  0
 36 40  1  0  0  0  0
 36 41  1  0  0  0  0
 11 14  1  0  0  0  0
 11 15  1  0  0  0  0
 11 16  1  0  0  0  0
 43 45  1  0  0  0  0
 43 46  1  0  0  0  0
 43 47  1  0  0  0  0
 22 30  1  0  0  0  0
 22 31  1  0  0  0  0
 21 28  1  0  0  0  0
 21 29  1  0  0  0  0
 33 38  1  0  0  0  0
  8 13  1  0  0  0  0
 18 27  1  0  0  0  0
 42 44  1  0  0  0  0
  7 12  1  0  0  0  0
 32 37  1  0  0  0  0
 17 26  1  0  0  0  0
M  CHG  1  24  -1
M  END
$$$$

  -OEChem-05262214473D

 47 46  0     1  0  0  0  0  0999 V2000
    0.5093   -4.7265    3.0306 C   0  0  0  0  0  0  0  0  0  0  0  0
    1.2735   -4.4402    3.9448 O   0  0  0  0  0  0  0  0  0  0  0  0
   -0.4465   -5.8608    3.1982 C   0  0  0  0  0  0  0  0  0  0  0  0
   -0.0219   -6.8213    2.8645 H   0  0  0  0  0  0  0  0  0  0  0  0
   -0.7314   -6.0185    4.2509 H   0  0  0  0  0  0  0  0  0  0  0  0
   -1.3983   -5.7596    2.6527 H   0  0  0  0  0  0  0  0  0  0  0  0
    0.4252   -4.0886    1.8040 N   0  0  0  0  0  0  0  0  0  0  0  0
    1.2532   -2.9707    1.4349 C   0  0  2  0  0  0  0  0  0  0  0  0
    0.3395   -1.8293    1.0083 C   0  0  0  0  0  0  0  0  0  0  0  0
   -0.8136   -2.0027    0.6194 O   0  0  0  0  0  0  0  0  0  0  0  0
    2.2176   -3.3411    0.3189 C   0  0  0  0  0  0  0  0  0  0  0  0
   -0.2574   -4.4279    1.1287 H   0  0  0  0  0  0  0  0  0  0  0  0
    1.8087   -2.6785    2.3327 H   0  0  0  0  0  0  0  0  0  0  0  0
    1.6793   -3.6366   -0.5890 H   0  0  0  0  0  0  0  0  0  0  0  0
    2.8662   -2.4980    0.0589 H   0  0  0  0  0  0  0  0  0  0  0  0
    2.8538   -4.1816    0.6166 H   0  0  0  0  0  0  0  0  0  0  0  0
    0.9758   -0.5952    1.0708 N   0  0  0  0  0  0  0  0  0  0  0  0
    0.3258    0.6374    0.7059 C   0  0  2  0  0  0  0  0  0  0  0  0
   -0.3371    1.1953    1.9609 C   0  0  0  0  0  0  0  0  0  0  0  0
   -1.4683    1.6766    1.9633 O   0  0  0  0  0  0  0  0  0  0  0  0
   -0.7152    0.4315   -0.4010 C   0  0  0  0  0  0  0  0  0  0  0  0
   -0.1056    0.0287   -1.7431 C   0  0  0  0  0  0  0  0  0  0  0  0
   -1.0935   -0.2165   -2.8884 C   0  0  0  0  0  0  0  0  0  0  0  0
   -2.3094   -0.1890   -2.5413 O   0  5  0  0  0  0  0  0  0  0  0  0
   -0.5913   -0.4000   -4.0313 O   0  0  0  0  0  0  0  0  0  0  0  0
    1.9288   -0.5463    1.4242 H   0  0  0  0  0  0  0  0  0  0  0  0
    1.1154    1.3270    0.3885 H   0  0  0  0  0  0  0  0  0  0  0  0
   -1.3114    1.3434   -0.5299 H   0  0  0  0  0  0  0  0  0  0  0  0
   -1.4226   -0.3502   -0.0930 H   0  0  0  0  0  0  0  0  0  0  0  0
    0.6314    0.7767   -2.0590 H   0  0  0  0  0  0  0  0  0  0  0  0
    0.4440   -0.9112   -1.6052 H   0  0  0  0  0  0  0  0  0  0  0  0
    0.5017    1.1343    3.0650 N   0  0  0  0  0  0  0  0  0  0  0  0
    0.1136    1.6140    4.3711 C   0  0  2  0  0  0  0  0  0  0  0  0
    1.3793    1.8108    5.1951 C   0  0  0  0  0  0  0  0  0  0  0  0
    2.4365    1.2341    4.9486 O   0  0  0  0  0  0  0  0  0  0  0  0
   -0.8362    0.6444    5.0570 C   0  0  0  0  0  0  0  0  0  0  0  0
    1.4174    0.7047    2.9725 H   0  0  0  0  0  0  0  0  0  0  0  0
   -0.3783    2.5810    4.2196 H   0  0  0  0  0  0  0  0  0  0  0  0
   -0.3609   -0.3302    5.2173 H   0  0  0  0  0  0  0  0  0  0  0  0
   -1.1519    1.0229    6.0348 H   0  0  0  0  0  0  0  0  0  0  0  0
   -1.7325    0.4810    4.4490 H   0  0  0  0  0  0  0  0  0  0  0  0
    1.1775    2.6730    6.2637 N   0  0  0  0  0  0  0  0  0  0  0  0
    2.2232    3.0110    7.2010 C   0  0  0  0  0  0  0  0  0  0  0  0
    0.2733    3.1207    6.3807 H   0  0  0  0  0  0  0  0  0  0  0  0
    2.1852    2.3219    8.0576 H   0  0  0  0  0  0  0  0  0  0  0  0
    3.2014    2.9259    6.7051 H   0  0  0  0  0  0  0  0  0  0  0  0
    2.0795    4.0428    7.5540 H   0  0  0  0  0  0  0  0  0  0  0  0
  1  3  1  0  0  0  0
  1  7  1  0  0  0  0
  1  2  2  0  0  0  0
 33 34  1  0  0  0  0
 34 42  1  0  0  0  0
 34 35  2  0  0  0  0
  8  9  1  0  0  0  0
  9 17  1  0  0  0  0
  9 10  2  0  0  0  0
 18 19  1  0  0  0  0
 19 32  1  0  0  0  0
 19 20  2  0  0  0  0
 22 23  1  0  0  0  0
 23 24  1  0  0  0  0
 23 25  2  0  0  0  0
 33 36  1  0  0  0  0
  8 11  1  0  0  0  0
 42 43  1  0  0  0  0
 21 22  1  0  0  0  0
 18 21  1  0  0  0  0
 32 33  1  0  0  0  0
  7  8  1  0  0  0  0
 17 18  1  0  0  0  0
  3  4  1  0  0  0  0
  3  5  1  0  0  0  0
  3  6  1  0  0  0  0
 36 39  1  0  0  0  0
 36 40  1  0  0  0  0
 36 41  1  0  0  0  0
 11 14  1  0  0  0  0
 11 15  1  0  0  0  0
 11 16  1  0  0  0  0
 43 45  1  0  0  0  0
 43 46  1  0  0  0  0
 43 47  1  0  0  0  0
 22 30  1  0  0  0  0
 22 31  1  0  0  0  0
 21 28  1  0  0  0  0
 21 29  1  0  0  0  0
 33 38  1  0  0  0  0
  8 13  1  0  0  0  0
 18 27  1  0  0  0  0
 42 44  1  0  0  0  0
  7 12  1  0  0  0  0
 32 37  1  0  0  0  0
 17 26  1  0  0  0  0
M  CHG  1  24  -1
M  END
$$$$

  -OEChem-05262214473D

 47 46  0     1  0  0  0  0  0999 V2000
    0.5093   -4.7265    3.0306 C   0  0  0  0  0  0  0  0  0  0  0  0
    1.2735   -4.4402    3.9448 O   0  0  0  0  0  0  0  0  0  0  0  0
   -0.4465   -5.8608    3.1982 C   0  0  0  0  0  0  0  0  0  0  0  0
   -0.0219   -6.8213    2.8645 H   0  0  0  0  0  0  0  0  0  0  0  0
   -0.7314   -6.0185    4.2509 H   0  0  0  0  0  0  0  0  0  0  0  0
   -1.3983   -5.7596    2.6527 H   0  0  0  0  0  0  0  0  0  0  0  0
    0.4252   -4.0886    1.8040 N   0  0  0  0  0  0  0  0  0  0  0  0
    1.2532   -2.9707    1.4349 C   0  0  2  0  0  0  0  0  0  0  0  0
    0.3395   -1.8293    1.0083 C   0  0  0  0  0  0  0  0  0  0  0  0
   -0.8136   -2.0027    0.6194 O   0  0  0  0  0  0  0  0  0  0  0  0
    2.2176   -3.3411    0.3189 C   0  0  0  0  0  0  0  0  0  0  0  0
   -0.2574   -4.4279    1.1287 H   0  0  0  0  0  0  0  0  0  0  0  0
    1.8087   -2.6785    2.3327 H   0  0  0  0  0  0  0  0  0  0  0  0
    1.6793   -3.6366   -0.5890 H   0  0  0  0  0  0  0  0  0  0  0  0
    2.8662   -2.4980    0.0589 H   0  0  0  0  0  0  0  0  0  0  0  0
    2.8538   -4.1816    0.6166 H   0  0  0  0  0  0  0  0  0  0  0  0
    0.9758   -0.5952    1.0708 N   0  0  0  0  0  0  0  0  0  0  0  0
    0.3258    0.6374    0.7059 C   0  0  2  0  0  0  0  0  0  0  0  0
   -0.3371    1.1953    1.9609 C   0  0  0  0  0  0  0  0  0  0  0  0
   -1.5420    1.4279    2.0350 O   0  0  0  0  0  0  0  0  0  0  0  0
   -0.7152    0.4315   -0.4010 C   0  0  0  0  0  0  0  0  0  0  0  0
   -0.1056    0.0287   -1.7431 C   0  0  0  0  0  0  0  0  0  0  0  0
   -1.0935   -0.2165   -2.8884 C   0  0  0  0  0  0  0  0  0  0  0  0
   -2.3094   -0.1890   -2.5413 O   0  5  0  0  0  0  0  0  0  0  0  0
   -0.5913   -0.4000   -4.0313 O   0  0  0  0  0  0  0  0  0  0  0  0
    1.9288   -0.5463    1.4242 H   0  0  0  0  0  0  0  0  0  0  0  0
    1.1154    1.3270    0.3885 H   0  0  0  0  0  0  0  0  0  0  0  0
   -1.3114    1.3434   -0.5299 H   0  0  0  0  0  0  0  0  0  0  0  0
   -1.4226   -0.3502   -0.0930 H   0  0  0  0  0  0  0  0  0  0  0  0
    0.6314    0.7767   -2.0590 H   0  0  0  0  0  0  0  0  0  0  0  0
    0.4440   -0.9112   -1.6052 H   0  0  0  0  0  0  0  0  0  0  0  0
    0.5829    1.4458    2.9694 N   0  0  0  0  0  0  0  0  0  0  0  0
    0.2086    1.9911    4.2537 C   0  0  2  0  0  0  0  0  0  0  0  0
    1.4642    2.5459    4.9131 C   0  0  0  0  0  0  0  0  0  0  0  0
    2.5979    2.1755    4.6154 O   0  0  0  0  0  0  0  0  0  0  0  0
   -0.4466    0.9371    5.1326 C   0  0  0  0  0  0  0  0  0  0  0  0
    1.5596    1.2076    2.8240 H   0  0  0  0  0  0  0  0  0  0  0  0
   -0.4934    2.8089    4.0575 H   0  0  0  0  0  0  0  0  0  0  0  0
    0.2416    0.1096    5.3400 H   0  0  0  0  0  0  0  0  0  0  0  0
   -0.7556    1.3590    6.0947 H   0  0  0  0  0  0  0  0  0  0  0  0
   -1.3327    0.5179    4.6438 H   0  0  0  0  0  0  0  0  0  0  0  0
    1.1679    3.4720    5.9034 N   0  0  0  0  0  0  0  0  0  0  0  0
    2.1882    4.1321    6.6841 C   0  0  0  0  0  0  0  0  0  0  0  0
    0.2006    3.7332    6.0700 H   0  0  0  0  0  0  0  0  0  0  0  0
    2.3725    3.5606    7.6057 H   0  0  0  0  0  0  0  0  0  0  0  0
    3.1170    4.1917    6.0978 H   0  0  0  0  0  0  0  0  0  0  0  0
    1.8523    5.1470    6.9430 H   0  0  0  0  0  0  0  0  0  0  0  0
  1  3  1  0  0  0  0
  1  7  1  0  0  0  0
  1  2  2  0  0  0  0
 33 34  1  0  0  0  0
 34 42  1  0  0  0  0
 34 35  2  0  0  0  0
  8  9  1  0  0  0  0
  9 17  1  0  0  0  0
  9 10  2  0  0  0  0
 18 19  1  0  0  0  0
 19 32  1  0  0  0  0
 19 20  2  0  0  0  0
 22 23  1  0  0  0  0
 23 24  1  0  0  0  0
 23 25  2  0  0  0  0
 33 36  1  0  0  0  0
  8 11  1  0  0  0  0
 42 43  1  0  0  0  0
 21 22  1  0  0  0  0
 18 21  1  0  0  0  0
 32 33  1  0  0  0  0
  7  8  1  0  0  0  0
 17 18  1  0  0  0  0
  3  4  1  0  0  0  0
  3  5  1  0  0  0  0
  3  6  1  0  0  0  0
 36 39  1  0  0  0  0
 36 40  1  0  0  0  0
 36 41  1  0  0  0  0
 11 14  1  0  0  0  0
 11 15  1  0  0  0  0
 11 16  1  0  0  0  0
 43 45  1  0  0  0  0
 43 46  1  0  0  0  0
 43 47  1  0  0  0  0
 22 30  1  0  0  0  0
 22 31  1  0  0  0  0
 21 28  1  0  0  0  0
 21 29  1  0  0  0  0
 33 38  1  0  0  0  0
  8 13  1  0  0  0  0
 18 27  1  0  0  0  0
 42 44  1  0  0  0  0
  7 12  1  0  0  0  0
 32 37  1  0  0  0  0
 17 26  1  0  0  0  0
M  CHG  1  24  -1
M  END
$$$$

  -OEChem-05262214473D

 47 46  0     1  0  0  0  0  0999 V2000
    0.5093   -4.7265    3.0306 C   0  0  0  0  0  0  0  0  0  0  0  0
    1.2735   -4.4402    3.9448 O   0  0  0  0  0  0  0  0  0  0  0  0
   -0.4465   -5.8608    3.1982 C   0  0  0  0  0  0  0  0  0  0  0  0
   -0.0219   -6.8213    2.8645 H   0  0  0  0  0  0  0  0  0  0  0  0
   -0.7314   -6.0185    4.2509 H   0  0  0  0  0  0  0  0  0  0  0  0
   -1.3983   -5.7596    2.6527 H   0  0  0  0  0  0  0  0  0  0  0  0
    0.4252   -4.0886    1.8040 N   0  0  0  0  0  0  0  0  0  0  0  0
    1.2532   -2.9707    1.4349 C   0  0  2  0  0  0  0  0  0  0  0  0
    0.3395   -1.8293    1.0083 C   0  0  0  0  0  0  0  0  0  0  0  0
   -0.8136   -2.0027    0.6194 O   0  0  0  0  0  0  0  0  0  0  0  0
    2.2176   -3.3411    0.3189 C   0  0  0  0  0  0  0  0  0  0  0  0
   -0.2574   -4.4279    1.1287 H   0  0  0  0  0  0  0  0  0  0  0  0
    1.8087   -2.6785    2.3327 H   0  0  0  0  0  0  0  0  0  0  0  0
    1.6793   -3.6366   -0.5890 H   0  0  0  0  0  0  0  0  0  0  0  0
    2.8662   -2.4980    0.0589 H   0  0  0  0  0  0  0  0  0  0  0  0
    2.8538   -4.1816    0.6166 H   0  0  0  0  0  0  0  0  0  0  0  0
    0.9758   -0.5952    1.0708 N   0  0  0  0  0  0  0  0  0  0  0  0
    0.3258    0.6374    0.7059 C   0  0  2  0  0  0  0  0  0  0  0  0
   -0.3371    1.1953    1.9609 C   0  0  0  0  0  0  0  0  0  0  0  0
   -1.5534    1.1801    2.1391 O   0  0  0  0  0  0  0  0  0  0  0  0
   -0.7152    0.4315   -0.4010 C   0  0  0  0  0  0  0  0  0  0  0  0
   -0.1056    0.0287   -1.7431 C   0  0  0  0  0  0  0  0  0  0  0  0
   -1.0935   -0.2165   -2.8884 C   0  0  0  0  0  0  0  0  0  0  0  0
   -2.3094   -0.1890   -2.5413 O   0  5  0  0  0  0  0  0  0  0  0  0
   -0.5913   -0.4000   -4.0313 O   0  0  0  0  0  0  0  0  0  0  0  0
    1.9288   -0.5463    1.4242 H   0  0  0  0  0  0  0  0  0  0  0  0
    1.1154    1.3270    0.3885 H   0  0  0  0  0  0  0  0  0  0  0  0
   -1.3114    1.3434   -0.5299 H   0  0  0  0  0  0  0  0  0  0  0  0
   -1.4226   -0.3502   -0.0930 H   0  0  0  0  0  0  0  0  0  0  0  0
    0.6314    0.7767   -2.0590 H   0  0  0  0  0  0  0  0  0  0  0  0
    0.4440   -0.9112   -1.6052 H   0  0  0  0  0  0  0  0  0  0  0  0
    0.5860    1.7532    2.8344 N   0  0  0  0  0  0  0  0  0  0  0  0
    0.2088    2.3623    4.0888 C   0  0  2  0  0  0  0  0  0  0  0  0
    1.3631    3.2424    4.5500 C   0  0  0  0  0  0  0  0  0  0  0  0
    2.5217    3.0816    4.1722 O   0  0  0  0  0  0  0  0  0  0  0  0
   -0.1255    1.3114    5.1358 C   0  0  0  0  0  0  0  0  0  0  0  0
    1.5757    1.7069    2.6106 H   0  0  0  0  0  0  0  0  0  0  0  0
   -0.6685    2.9862    3.8862 H   0  0  0  0  0  0  0  0  0  0  0  0
    0.7416    0.6766    5.3520 H   0  0  0  0  0  0  0  0  0  0  0  0
   -0.4387    1.7748    6.0772 H   0  0  0  0  0  0  0  0  0  0  0  0
   -0.9359    0.6606    4.7899 H   0  0  0  0  0  0  0  0  0  0  0  0
    0.9544    4.2012    5.4664 N   0  0  0  0  0  0  0  0  0  0  0  0
    1.8667    5.1494    6.0619 C   0  0  0  0  0  0  0  0  0  0  0  0
   -0.0295    4.2743    5.7079 H   0  0  0  0  0  0  0  0  0  0  0  0
    2.2468    4.7462    7.0122 H   0  0  0  0  0  0  0  0  0  0  0  0
    2.7085    5.3281    5.3768 H   0  0  0  0  0  0  0  0  0  0  0  0
    1.3398    6.0964    6.2502 H   0  0  0  0  0  0  0  0  0  0  0  0
  1  3  1  0  0  0  0
  1  7  1  0  0  0  0
  1  2  2  0  0  0  0
 33 34  1  0  0  0  0
 34 42  1  0  0  0  0
 34 35  2  0  0  0  0
  8  9  1  0  0  0  0
  9 17  1  0  0  0  0
  9 10  2  0  0  0  0
 18 19  1  0  0  0  0
 19 32  1  0  0  0  0
 19 20  2  0  0  0  0
 22 23  1  0  0  0  0
 23 24  1  0  0  0  0
 23 25  2  0  0  0  0
 33 36  1  0  0  0  0
  8 11  1  0  0  0  0
 42 43  1  0  0  0  0
 21 22  1  0  0  0  0
 18 21  1  0  0  0  0
 32 33  1  0  0  0  0
  7  8  1  0  0  0  0
 17 18  1  0  0  0  0
  3  4  1  0  0  0  0
  3  5  1  0  0  0  0
  3  6  1  0  0  0  0
 36 39  1  0  0  0  0
 36 40  1  0  0  0  0
 36 41  1  0  0  0  0
 11 14  1  0  0  0  0
 11 15  1  0  0  0  0
 11 16  1  0  0  0  0
 43 45  1  0  0  0  0
 43 46  1  0  0  0  0
 43 47  1  0  0  0  0
 22 30  1  0  0  0  0
 22 31  1  0  0  0  0
 21 28  1  0  0  0  0
 21 29  1  0  0  0  0
 33 38  1  0  0  0  0
  8 13  1  0  0  0  0
 18 27  1  0  0  0  0
 42 44  1  0  0  0  0
  7 12  1  0  0  0  0
 32 37  1  0  0  0  0
 17 26  1  0  0  0  0
M  CHG  1  24  -1
M  END
$$$$

  -OEChem-05262214473D

 47 46  0     1  0  0  0  0  0999 V2000
    0.5093   -4.7265    3.0306 C   0  0  0  0  0  0  0  0  0  0  0  0
    1.2735   -4.4402    3.9448 O   0  0  0  0  0  0  0  0  0  0  0  0
   -0.4465   -5.8608    3.1982 C   0  0  0  0  0  0  0  0  0  0  0  0
   -0.0219   -6.8213    2.8645 H   0  0  0  0  0  0  0  0  0  0  0  0
   -0.7314   -6.0185    4.2509 H   0  0  0  0  0  0  0  0  0  0  0  0
   -1.3983   -5.7596    2.6527 H   0  0  0  0  0  0  0  0  0  0  0  0
    0.4252   -4.0886    1.8040 N   0  0  0  0  0  0  0  0  0  0  0  0
    1.2532   -2.9707    1.4349 C   0  0  2  0  0  0  0  0  0  0  0  0
    0.3395   -1.8293    1.0083 C   0  0  0  0  0  0  0  0  0  0  0  0
   -0.8136   -2.0027    0.6194 O   0  0  0  0  0  0  0  0  0  0  0  0
    2.2176   -3.3411    0.3189 C   0  0  0  0  0  0  0  0  0  0  0  0
   -0.2574   -4.4279    1.1287 H   0  0  0  0  0  0  0  0  0  0  0  0
    1.8087   -2.6785    2.3327 H   0  0  0  0  0  0  0  0  0  0  0  0
    1.6793   -3.6366   -0.5890 H   0  0  0  0  0  0  0  0  0  0  0  0
    2.8662   -2.4980    0.0589 H   0  0  0  0  0  0  0  0  0  0  0  0
    2.8538   -4.1816    0.6166 H   0  0  0  0  0  0  0  0  0  0  0  0
    0.9758   -0.5952    1.0708 N   0  0  0  0  0  0  0  0  0  0  0  0
    0.3258    0.6374    0.7059 C   0  0  2  0  0  0  0  0  0  0  0  0
   -0.3371    1.1953    1.9609 C   0  0  0  0  0  0  0  0  0  0  0  0
   -1.5017    0.9499    2.2687 O   0  0  0  0  0  0  0  0  0  0  0  0
   -0.7152    0.4315   -0.4010 C   0  0  0  0  0  0  0  0  0  0  0  0
   -0.1056    0.0287   -1.7431 C   0  0  0  0  0  0  0  0  0  0  0  0
   -1.0935   -0.2165   -2.8884 C   0  0  0  0  0  0  0  0  0  0  0  0
   -2.3094   -0.1890   -2.5413 O   0  5  0  0  0  0  0  0  0  0  0  0
   -0.5913   -0.4000   -4.0313 O   0  0  0  0  0  0  0  0  0  0  0  0
    1.9288   -0.5463    1.4242 H   0  0  0  0  0  0  0  0  0  0  0  0
    1.1154    1.3270    0.3885 H   0  0  0  0  0  0  0  0  0  0  0  0
   -1.3114    1.3434   -0.5299 H   0  0  0  0  0  0  0  0  0  0  0  0
   -1.4226   -0.3502   -0.0930 H   0  0  0  0  0  0  0  0  0  0  0  0
    0.6314    0.7767   -2.0590 H   0  0  0  0  0  0  0  0  0  0  0  0
    0.4440   -0.9112   -1.6052 H   0  0  0  0  0  0  0  0  0  0  0  0
    0.5107    2.0356    2.6691 N   0  0  0  0  0  0  0  0  0  0  0  0
    0.1144    2.7024    3.8877 C   0  0  2  0  0  0  0  0  0  0  0  0
    1.0826    3.8527    4.1305 C   0  0  0  0  0  0  0  0  0  0  0  0
    2.2132    3.8908    3.6495 O   0  0  0  0  0  0  0  0  0  0  0  0
    0.1052    1.7416    5.0664 C   0  0  0  0  0  0  0  0  0  0  0  0
    1.4647    2.1686    2.3467 H   0  0  0  0  0  0  0  0  0  0  0  0
   -0.8917    3.1009    3.7173 H   0  0  0  0  0  0  0  0  0  0  0  0
    1.1048    1.3321    5.2524 H   0  0  0  0  0  0  0  0  0  0  0  0
   -0.2228    2.2419    5.9836 H   0  0  0  0  0  0  0  0  0  0  0  0
   -0.5691    0.8994    4.8775 H   0  0  0  0  0  0  0  0  0  0  0  0
    0.5514    4.8109    4.9825 N   0  0  0  0  0  0  0  0  0  0  0  0
    1.2805    5.9936    5.3770 C   0  0  0  0  0  0  0  0  0  0  0  0
   -0.4014    4.7073    5.3190 H   0  0  0  0  0  0  0  0  0  0  0  0
    1.8166    5.7979    6.3174 H   0  0  0  0  0  0  0  0  0  0  0  0
    2.0035    6.2576    4.5911 H   0  0  0  0  0  0  0  0  0  0  0  0
    0.5769    6.8264    5.5227 H   0  0  0  0  0  0  0  0  0  0  0  0
  1  3  1  0  0  0  0
  1  7  1  0  0  0  0
  1  2  2  0  0  0  0
 33 34  1  0  0  0  0
 34 42  1  0  0  0  0
 34 35  2  0  0  0  0
  8  9  1  0  0  0  0
  9 17  1  0  0  0  0
  9 10  2  0  0  0  0
 18 19  1  0  0  0  0
 19 32  1  0  0  0  0
 19 20  2  0  0  0  0
 22 23  1  0  0  0  0
 23 24  1  0  0  0  0
 23 25  2  0  0  0  0
 33 36  1  0  0  0  0
  8 11  1  0  0  0  0
 42 43  1  0  0  0  0
 21 22  1  0  0  0  0
 18 21  1  0  0  0  0
 32 33  1  0  0  0  0
  7  8  1  0  0  0  0
 17 18  1  0  0  0  0
  3  4  1  0  0  0  0
  3  5  1  0  0  0  0
  3  6  1  0  0  0  0
 36 39  1  0  0  0  0
 36 40  1  0  0  0  0
 36 41  1  0  0  0  0
 11 14  1  0  0  0  0
 11 15  1  0  0  0  0
 11 16  1  0  0  0  0
 43 45  1  0  0  0  0
 43 46  1  0  0  0  0
 43 47  1  0  0  0  0
 22 30  1  0  0  0  0
 22 31  1  0  0  0  0
 21 28  1  0  0  0  0
 21 29  1  0  0  0  0
 33 38  1  0  0  0  0
  8 13  1  0  0  0  0
 18 27  1  0  0  0  0
 42 44  1  0  0  0  0
  7 12  1  0  0  0  0
 32 37  1  0  0  0  0
 17 26  1  0  0  0  0
M  CHG  1  24  -1
M  END
$$$$

  -OEChem-05262214473D

 47 46  0     1  0  0  0  0  0999 V2000
    0.5093   -4.7265    3.0306 C   0  0  0  0  0  0  0  0  0  0  0  0
    1.2735   -4.4402    3.9448 O   0  0  0  0  0  0  0  0  0  0  0  0
   -0.4465   -5.8608    3.1982 C   0  0  0  0  0  0  0  0  0  0  0  0
   -0.0219   -6.8213    2.8645 H   0  0  0  0  0  0  0  0  0  0  0  0
   -0.7314   -6.0185    4.2509 H   0  0  0  0  0  0  0  0  0  0  0  0
   -1.3983   -5.7596    2.6527 H   0  0  0  0  0  0  0  0  0  0  0  0
    0.4252   -4.0886    1.8040 N   0  0  0  0  0  0  0  0  0  0  0  0
    1.2532   -2.9707    1.4349 C   0  0  2  0  0  0  0  0  0  0  0  0
    0.3395   -1.8293    1.0083 C   0  0  0  0  0  0  0  0  0  0  0  0
   -0.8136   -2.0027    0.6194 O   0  0  0  0  0  0  0  0  0  0  0  0
    2.2176   -3.3411    0.3189 C   0  0  0  0  0  0  0  0  0  0  0  0
   -0.2574   -4.4279    1.1287 H   0  0  0  0  0  0  0  0  0  0  0  0
    1.8087   -2.6785    2.3327 H   0  0  0  0  0  0  0  0  0  0  0  0
    1.6793   -3.6366   -0.5890 H   0  0  0  0  0  0  0  0  0  0  0  0
    2.8662   -2.4980    0.0589 H   0  0  0  0  0  0  0  0  0  0  0  0
    2.8538   -4.1816    0.6166 H   0  0  0  0  0  0  0  0  0  0  0  0
    0.9758   -0.5952    1.0708 N   0  0  0  0  0  0  0  0  0  0  0  0
    0.3258    0.6374    0.7059 C   0  0  2  0  0  0  0  0  0  0  0  0
   -0.3371    1.1953    1.9609 C   0  0  0  0  0  0  0  0  0  0  0  0
   -1.3905    0.7532    2.4149 O   0  0  0  0  0  0  0  0  0  0  0  0
   -0.7152    0.4315   -0.4010 C   0  0  0  0  0  0  0  0  0  0  0  0
   -0.1056    0.0287   -1.7431 C   0  0  0  0  0  0  0  0  0  0  0  0
   -1.0935   -0.2165   -2.8884 C   0  0  0  0  0  0  0  0  0  0  0  0
   -2.3094   -0.1890   -2.5413 O   0  5  0  0  0  0  0  0  0  0  0  0
   -0.5913   -0.4000   -4.0313 O   0  0  0  0  0  0  0  0  0  0  0  0
    1.9288   -0.5463    1.4242 H   0  0  0  0  0  0  0  0  0  0  0  0
    1.1154    1.3270    0.3885 H   0  0  0  0  0  0  0  0  0  0  0  0
   -1.3114    1.3434   -0.5299 H   0  0  0  0  0  0  0  0  0  0  0  0
   -1.4226   -0.3502   -0.0930 H   0  0  0  0  0  0  0  0  0  0  0  0
    0.6314    0.7767   -2.0590 H   0  0  0  0  0  0  0  0  0  0  0  0
    0.4440   -0.9112   -1.6052 H   0  0  0  0  0  0  0  0  0  0  0  0
    0.3622    2.2737    2.4848 N   0  0  0  0  0  0  0  0  0  0  0  0
   -0.0682    2.9882    3.6641 C   0  0  2  0  0  0  0  0  0  0  0  0
    0.6420    4.3353    3.6832 C   0  0  0  0  0  0  0  0  0  0  0  0
    1.6933    4.5479    3.0828 O   0  0  0  0  0  0  0  0  0  0  0  0
    0.2299    2.1986    4.9291 C   0  0  0  0  0  0  0  0  0  0  0  0
    1.2342    2.5612    2.0503 H   0  0  0  0  0  0  0  0  0  0  0  0
   -1.1476    3.1452    3.5624 H   0  0  0  0  0  0  0  0  0  0  0  0
    1.3067    2.0314    5.0481 H   0  0  0  0  0  0  0  0  0  0  0  0
   -0.1227    2.7286    5.8201 H   0  0  0  0  0  0  0  0  0  0  0  0
   -0.2574    1.2180    4.9005 H   0  0  0  0  0  0  0  0  0  0  0  0
   -0.0135    5.2596    4.4846 N   0  0  0  0  0  0  0  0  0  0  0  0
    0.4697    6.6071    4.6759 C   0  0  0  0  0  0  0  0  0  0  0  0
   -0.8896    5.0025    4.9298 H   0  0  0  0  0  0  0  0  0  0  0  0
    1.1113    6.6439    5.5687 H   0  0  0  0  0  0  0  0  0  0  0  0
    1.0502    6.9170    3.7944 H   0  0  0  0  0  0  0  0  0  0  0  0
   -0.3844    7.2872    4.8101 H   0  0  0  0  0  0  0  0  0  0  0  0
  1  3  1  0  0  0  0
  1  7  1  0  0  0  0
  1  2  2  0  0  0  0
 33 34  1  0  0  0  0
 34 42  1  0  0  0  0
 34 35  2  0  0  0  0
  8  9  1  0  0  0  0
  9 17  1  0  0  0  0
  9 10  2  0  0  0  0
 18 19  1  0  0  0  0
 19 32  1  0  0  0  0
 19 20  2  0  0  0  0
 22 23  1  0  0  0  0
 23 24  1  0  0  0  0
 23 25  2  0  0  0  0
 33 36  1  0  0  0  0
  8 11  1  0  0  0  0
 42 43  1  0  0  0  0
 21 22  1  0  0  0  0
 18 21  1  0  0  0  0
 32 33  1  0  0  0  0
  7  8  1  0  0  0  0
 17 18  1  0  0  0  0
  3  4  1  0  0  0  0
  3  5  1  0  0  0  0
  3  6  1  0  0  0  0
 36 39  1  0  0  0  0
 36 40  1  0  0  0  0
 36 41  1  0  0  0  0
 11 14  1  0  0  0  0
 11 15  1  0  0  0  0
 11 16  1  0  0  0  0
 43 45  1  0  0  0  0
 43 46  1  0  0  0  0
 43 47  1  0  0  0  0
 22 30  1  0  0  0  0
 22 31  1  0  0  0  0
 21 28  1  0  0  0  0
 21 29  1  0  0  0  0
 33 38  1  0  0  0  0
  8 13  1  0  0  0  0
 18 27  1  0  0  0  0
 42 44  1  0  0  0  0
  7 12  1  0  0  0  0
 32 37  1  0  0  0  0
 17 26  1  0  0  0  0
M  CHG  1  24  -1
M  END
$$$$

  -OEChem-05262214473D

 47 46  0     1  0  0  0  0  0999 V2000
    0.5093   -4.7265    3.0306 C   0  0  0  0  0  0  0  0  0  0  0  0
    1.2735   -4.4402    3.9448 O   0  0  0  0  0  0  0  0  0  0  0  0
   -0.4465   -5.8608    3.1982 C   0  0  0  0  0  0  0  0  0  0  0  0
   -0.0219   -6.8213    2.8645 H   0  0  0  0  0  0  0  0  0  0  0  0
   -0.7314   -6.0185    4.2509 H   0  0  0  0  0  0  0  0  0  0  0  0
   -1.3983   -5.7596    2.6527 H   0  0  0  0  0  0  0  0  0  0  0  0
    0.4252   -4.0886    1.8040 N   0  0  0  0  0  0  0  0  0  0  0  0
    1.2532   -2.9707    1.4349 C   0  0  2  0  0  0  0  0  0  0  0  0
    0.3395   -1.8293    1.0083 C   0  0  0  0  0  0  0  0  0  0  0  0
   -0.8136   -2.0027    0.6194 O   0  0  0  0  0  0  0  0  0  0  0  0
    2.2176   -3.3411    0.3189 C   0  0  0  0  0  0  0  0  0  0  0  0
   -0.2574   -4.4279    1.1287 H   0  0  0  0  0  0  0  0  0  0  0  0
    1.8087   -2.6785    2.3327 H   0  0  0  0  0  0  0  0  0  0  0  0
    1.6793   -3.6366   -0.5890 H   0  0  0  0  0  0  0  0  0  0  0  0
    2.8662   -2.4980    0.0589 H   0  0  0  0  0  0  0  0  0  0  0  0
    2.8538   -4.1816    0.6166 H   0  0  0  0  0  0  0  0  0  0  0  0
    0.9758   -0.5952    1.0708 N   0  0  0  0  0  0  0  0  0  0  0  0
    0.3258    0.6374    0.7059 C   0  0  2  0  0  0  0  0  0  0  0  0
   -0.3371    1.1953    1.9609 C   0  0  0  0  0  0  0  0  0  0  0  0
   -1.2274    0.6034    2.5677 O   0  0  0  0  0  0  0  0  0  0  0  0
   -0.7152    0.4315   -0.4010 C   0  0  0  0  0  0  0  0  0  0  0  0
   -0.1056    0.0287   -1.7431 C   0  0  0  0  0  0  0  0  0  0  0  0
   -1.0935   -0.2165   -2.8884 C   0  0  0  0  0  0  0  0  0  0  0  0
   -2.3094   -0.1890   -2.5413 O   0  5  0  0  0  0  0  0  0  0  0  0
   -0.5913   -0.4000   -4.0313 O   0  0  0  0  0  0  0  0  0  0  0  0
    1.9288   -0.5463    1.4242 H   0  0  0  0  0  0  0  0  0  0  0  0
    1.1154    1.3270    0.3885 H   0  0  0  0  0  0  0  0  0  0  0  0
   -1.3114    1.3434   -0.5299 H   0  0  0  0  0  0  0  0  0  0  0  0
   -1.4226   -0.3502   -0.0930 H   0  0  0  0  0  0  0  0  0  0  0  0
    0.6314    0.7767   -2.0590 H   0  0  0  0  0  0  0  0  0  0  0  0
    0.4440   -0.9112   -1.6052 H   0  0  0  0  0  0  0  0  0  0  0  0
    0.1506    2.4513    2.2940 N   0  0  0  0  0  0  0  0  0  0  0  0
   -0.3267    3.2002    3.4333 C   0  0  2  0  0  0  0  0  0  0  0  0
    0.0712    4.6573    3.2386 C   0  0  0  0  0  0  0  0  0  0  0  0
    0.9975    5.0082    2.5106 O   0  0  0  0  0  0  0  0  0  0  0  0
    0.2400    2.6510    4.7333 C   0  0  0  0  0  0  0  0  0  0  0  0
    0.8998    2.8580    1.7418 H   0  0  0  0  0  0  0  0  0  0  0  0
   -1.4189    3.1160    3.4321 H   0  0  0  0  0  0  0  0  0  0  0  0
    1.3334    2.7269    4.7530 H   0  0  0  0  0  0  0  0  0  0  0  0
   -0.1450    3.2016    5.5979 H   0  0  0  0  0  0  0  0  0  0  0  0
   -0.0221    1.5948    4.8573 H   0  0  0  0  0  0  0  0  0  0  0  0
   -0.7019    5.5166    4.0068 N   0  0  0  0  0  0  0  0  0  0  0  0
   -0.5105    6.9482    4.0065 C   0  0  0  0  0  0  0  0  0  0  0  0
   -1.4609    5.1400    4.5670 H   0  0  0  0  0  0  0  0  0  0  0  0
    0.1789    7.2266    4.8172 H   0  0  0  0  0  0  0  0  0  0  0  0
   -0.0865    7.2611    3.0410 H   0  0  0  0  0  0  0  0  0  0  0  0
   -1.4785    7.4474    4.1610 H   0  0  0  0  0  0  0  0  0  0  0  0
  1  3  1  0  0  0  0
  1  7  1  0  0  0  0
  1  2  2  0  0  0  0
 33 34  1  0  0  0  0
 34 42  1  0  0  0  0
 34 35  2  0  0  0  0
  8  9  1  0  0  0  0
  9 17  1  0  0  0  0
  9 10  2  0  0  0  0
 18 19  1  0  0  0  0
 19 32  1  0  0  0  0
 19 20  2  0  0  0  0
 22 23  1  0  0  0  0
 23 24  1  0  0  0  0
 23 25  2  0  0  0  0
 33 36  1  0  0  0  0
  8 11  1  0  0  0  0
 42 43  1  0  0  0  0
 21 22  1  0  0  0  0
 18 21  1  0  0  0  0
 32 33  1  0  0  0  0
  7  8  1  0  0  0  0
 17 18  1  0  0  0  0
  3  4  1  0  0  0  0
  3  5  1  0  0  0  0
  3  6  1  0  0  0  0
 36 39  1  0  0  0  0
 36 40  1  0  0  0  0
 36 41  1  0  0  0  0
 11 14  1  0  0  0  0
 11 15  1  0  0  0  0
 11 16  1  0  0  0  0
 43 45  1  0  0  0  0
 43 46  1  0  0  0  0
 43 47  1  0  0  0  0
 22 30  1  0  0  0  0
 22 31  1  0  0  0  0
 21 28  1  0  0  0  0
 21 29  1  0  0  0  0
 33 38  1  0  0  0  0
  8 13  1  0  0  0  0
 18 27  1  0  0  0  0
 42 44  1  0  0  0  0
  7 12  1  0  0  0  0
 32 37  1  0  0  0  0
 17 26  1  0  0  0  0
M  CHG  1  24  -1
M  END
$$$$

  -OEChem-05262214473D

 47 46  0     1  0  0  0  0  0999 V2000
    0.5093   -4.7265    3.0306 C   0  0  0  0  0  0  0  0  0  0  0  0
    1.2735   -4.4402    3.9448 O   0  0  0  0  0  0  0  0  0  0  0  0
   -0.4465   -5.8608    3.1982 C   0  0  0  0  0  0  0  0  0  0  0  0
   -0.0219   -6.8213    2.8645 H   0  0  0  0  0  0  0  0  0  0  0  0
   -0.7314   -6.0185    4.2509 H   0  0  0  0  0  0  0  0  0  0  0  0
   -1.3983   -5.7596    2.6527 H   0  0  0  0  0  0  0  0  0  0  0  0
    0.4252   -4.0886    1.8040 N   0  0  0  0  0  0  0  0  0  0  0  0
    1.2532   -2.9707    1.4349 C   0  0  2  0  0  0  0  0  0  0  0  0
    0.3395   -1.8293    1.0083 C   0  0  0  0  0  0  0  0  0  0  0  0
   -0.8136   -2.0027    0.6194 O   0  0  0  0  0  0  0  0  0  0  0  0
    2.2176   -3.3411    0.3189 C   0  0  0  0  0  0  0  0  0  0  0  0
   -0.2574   -4.4279    1.1287 H   0  0  0  0  0  0  0  0  0  0  0  0
    1.8087   -2.6785    2.3327 H   0  0  0  0  0  0  0  0  0  0  0  0
    1.6793   -3.6366   -0.5890 H   0  0  0  0  0  0  0  0  0  0  0  0
    2.8662   -2.4980    0.0589 H   0  0  0  0  0  0  0  0  0  0  0  0
    2.8538   -4.1816    0.6166 H   0  0  0  0  0  0  0  0  0  0  0  0
    0.9758   -0.5952    1.0708 N   0  0  0  0  0  0  0  0  0  0  0  0
    0.3258    0.6374    0.7059 C   0  0  2  0  0  0  0  0  0  0  0  0
   -0.3371    1.1953    1.9609 C   0  0  0  0  0  0  0  0  0  0  0  0
   -1.0235    0.5105    2.7167 O   0  0  0  0  0  0  0  0  0  0  0  0
   -0.7152    0.4315   -0.4010 C   0  0  0  0  0  0  0  0  0  0  0  0
   -0.1056    0.0287   -1.7431 C   0  0  0  0  0  0  0  0  0  0  0  0
   -1.0935   -0.2165   -2.8884 C   0  0  0  0  0  0  0  0  0  0  0  0
   -2.3094   -0.1890   -2.5413 O   0  5  0  0  0  0  0  0  0  0  0  0
   -0.5913   -0.4000   -4.0313 O   0  0  0  0  0  0  0  0  0  0  0  0
    1.9288   -0.5463    1.4242 H   0  0  0  0  0  0  0  0  0  0  0  0
    1.1154    1.3270    0.3885 H   0  0  0  0  0  0  0  0  0  0  0  0
   -1.3114    1.3434   -0.5299 H   0  0  0  0  0  0  0  0  0  0  0  0
   -1.4226   -0.3502   -0.0930 H   0  0  0  0  0  0  0  0  0  0  0  0
    0.6314    0.7767   -2.0590 H   0  0  0  0  0  0  0  0  0  0  0  0
    0.4440   -0.9112   -1.6052 H   0  0  0  0  0  0  0  0  0  0  0  0
   -0.1097    2.5564    2.1098 N   0  0  0  0  0  0  0  0  0  0  0  0
   -0.6434    3.3240    3.2111 C   0  0  2  0  0  0  0  0  0  0  0  0
   -0.5908    4.7968    2.8269 C   0  0  0  0  0  0  0  0  0  0  0  0
    0.1733    5.2401    1.9721 O   0  0  0  0  0  0  0  0  0  0  0  0
    0.1349    3.0682    4.4923 C   0  0  0  0  0  0  0  0  0  0  0  0
    0.4844    3.0388    1.4420 H   0  0  0  0  0  0  0  0  0  0  0  0
   -1.6871    3.0154    3.3352 H   0  0  0  0  0  0  0  0  0  0  0  0
    1.1830    3.3712    4.3871 H   0  0  0  0  0  0  0  0  0  0  0  0
   -0.2885    3.6288    5.3323 H   0  0  0  0  0  0  0  0  0  0  0  0
    0.1210    2.0039    4.7509 H   0  0  0  0  0  0  0  0  0  0  0  0
   -1.4668    5.5645    3.5814 N   0  0  0  0  0  0  0  0  0  0  0  0
   -1.5934    6.9935    3.4144 C   0  0  0  0  0  0  0  0  0  0  0  0
   -2.0763    5.1102    4.2551 H   0  0  0  0  0  0  0  0  0  0  0  0
   -0.9170    7.5064    4.1139 H   0  0  0  0  0  0  0  0  0  0  0  0
   -1.3291    7.2667    2.3822 H   0  0  0  0  0  0  0  0  0  0  0  0
   -2.6309    7.2960    3.6195 H   0  0  0  0  0  0  0  0  0  0  0  0
  1  3  1  0  0  0  0
  1  7  1  0  0  0  0
  1  2  2  0  0  0  0
 33 34  1  0  0  0  0
 34 42  1  0  0  0  0
 34 35  2  0  0  0  0
  8  9  1  0  0  0  0
  9 17  1  0  0  0  0
  9 10  2  0  0  0  0
 18 19  1  0  0  0  0
 19 32  1  0  0  0  0
 19 20  2  0  0  0  0
 22 23  1  0  0  0  0
 23 24  1  0  0  0  0
 23 25  2  0  0  0  0
 33 36  1  0  0  0  0
  8 11  1  0  0  0  0
 42 43  1  0  0  0  0
 21 22  1  0  0  0  0
 18 21  1  0  0  0  0
 32 33  1  0  0  0  0
  7  8  1  0  0  0  0
 17 18  1  0  0  0  0
  3  4  1  0  0  0  0
  3  5  1  0  0  0  0
  3  6  1  0  0  0  0
 36 39  1  0  0  0  0
 36 40  1  0  0  0  0
 36 41  1  0  0  0  0
 11 14  1  0  0  0  0
 11 15  1  0  0  0  0
 11 16  1  0  0  0  0
 43 45  1  0  0  0  0
 43 46  1  0  0  0  0
 43 47  1  0  0  0  0
 22 30  1  0  0  0  0
 22 31  1  0  0  0  0
 21 28  1  0  0  0  0
 21 29  1  0  0  0  0
 33 38  1  0  0  0  0
  8 13  1  0  0  0  0
 18 27  1  0  0  0  0
 42 44  1  0  0  0  0
  7 12  1  0  0  0  0
 32 37  1  0  0  0  0
 17 26  1  0  0  0  0
M  CHG  1  24  -1
M  END
$$$$

  -OEChem-05262214473D

 47 46  0     1  0  0  0  0  0999 V2000
    0.5093   -4.7265    3.0306 C   0  0  0  0  0  0  0  0  0  0  0  0
    1.2735   -4.4402    3.9448 O   0  0  0  0  0  0  0  0  0  0  0  0
   -0.4465   -5.8608    3.1982 C   0  0  0  0  0  0  0  0  0  0  0  0
   -0.0219   -6.8213    2.8645 H   0  0  0  0  0  0  0  0  0  0  0  0
   -0.7314   -6.0185    4.2509 H   0  0  0  0  0  0  0  0  0  0  0  0
   -1.3983   -5.7596    2.6527 H   0  0  0  0  0  0  0  0  0  0  0  0
    0.4252   -4.0886    1.8040 N   0  0  0  0  0  0  0  0  0  0  0  0
    1.2532   -2.9707    1.4349 C   0  0  2  0  0  0  0  0  0  0  0  0
    0.3395   -1.8293    1.0083 C   0  0  0  0  0  0  0  0  0  0  0  0
   -0.8136   -2.0027    0.6194 O   0  0  0  0  0  0  0  0  0  0  0  0
    2.2176   -3.3411    0.3189 C   0  0  0  0  0  0  0  0  0  0  0  0
   -0.2574   -4.4279    1.1287 H   0  0  0  0  0  0  0  0  0  0  0  0
    1.8087   -2.6785    2.3327 H   0  0  0  0  0  0  0  0  0  0  0  0
    1.6793   -3.6366   -0.5890 H   0  0  0  0  0  0  0  0  0  0  0  0
    2.8662   -2.4980    0.0589 H   0  0  0  0  0  0  0  0  0  0  0  0
    2.8538   -4.1816    0.6166 H   0  0  0  0  0  0  0  0  0  0  0  0
    0.9758   -0.5952    1.0708 N   0  0  0  0  0  0  0  0  0  0  0  0
    0.3258    0.6374    0.7059 C   0  0  2  0  0  0  0  0  0  0  0  0
   -0.3371    1.1953    1.9609 C   0  0  0  0  0  0  0  0  0  0  0  0
   -0.7926    0.4811    2.8518 O   0  0  0  0  0  0  0  0  0  0  0  0
   -0.7152    0.4315   -0.4010 C   0  0  0  0  0  0  0  0  0  0  0  0
   -0.1056    0.0287   -1.7431 C   0  0  0  0  0  0  0  0  0  0  0  0
   -1.0935   -0.2165   -2.8884 C   0  0  0  0  0  0  0  0  0  0  0  0
   -2.3094   -0.1890   -2.5413 O   0  5  0  0  0  0  0  0  0  0  0  0
   -0.5913   -0.4000   -4.0313 O   0  0  0  0  0  0  0  0  0  0  0  0
    1.9288   -0.5463    1.4242 H   0  0  0  0  0  0  0  0  0  0  0  0
    1.1154    1.3270    0.3885 H   0  0  0  0  0  0  0  0  0  0  0  0
   -1.3114    1.3434   -0.5299 H   0  0  0  0  0  0  0  0  0  0  0  0
   -1.4226   -0.3502   -0.0930 H   0  0  0  0  0  0  0  0  0  0  0  0
    0.6314    0.7767   -2.0590 H   0  0  0  0  0  0  0  0  0  0  0  0
    0.4440   -0.9112   -1.6052 H   0  0  0  0  0  0  0  0  0  0  0  0
   -0.4010    2.5817    1.9447 N   0  0  0  0  0  0  0  0  0  0  0  0
   -0.9967    3.3510    3.0124 C   0  0  2  0  0  0  0  0  0  0  0  0
   -1.2989    4.7441    2.4763 C   0  0  0  0  0  0  0  0  0  0  0  0
   -0.7233    5.2281    1.5039 O   0  0  0  0  0  0  0  0  0  0  0  0
   -0.0783    3.4217    4.2225 C   0  0  0  0  0  0  0  0  0  0  0  0
    0.0162    3.0912    1.1714 H   0  0  0  0  0  0  0  0  0  0  0  0
   -1.9340    2.8502    3.2783 H   0  0  0  0  0  0  0  0  0  0  0  0
    0.8660    3.9204    3.9755 H   0  0  0  0  0  0  0  0  0  0  0  0
   -0.5431    3.9809    5.0412 H   0  0  0  0  0  0  0  0  0  0  0  0
    0.1619    2.4177    4.5886 H   0  0  0  0  0  0  0  0  0  0  0  0
   -2.2561    5.4000    3.2376 N   0  0  0  0  0  0  0  0  0  0  0  0
   -2.7052    6.7401    2.9399 C   0  0  0  0  0  0  0  0  0  0  0  0
   -2.6940    4.9153    4.0155 H   0  0  0  0  0  0  0  0  0  0  0  0
   -2.1017    7.4641    3.5070 H   0  0  0  0  0  0  0  0  0  0  0  0
   -2.5930    6.9334    1.8628 H   0  0  0  0  0  0  0  0  0  0  0  0
   -3.7631    6.8435    3.2227 H   0  0  0  0  0  0  0  0  0  0  0  0
  1  3  1  0  0  0  0
  1  7  1  0  0  0  0
  1  2  2  0  0  0  0
 33 34  1  0  0  0  0
 34 42  1  0  0  0  0
 34 35  2  0  0  0  0
  8  9  1  0  0  0  0
  9 17  1  0  0  0  0
  9 10  2  0  0  0  0
 18 19  1  0  0  0  0
 19 32  1  0  0  0  0
 19 20  2  0  0  0  0
 22 23  1  0  0  0  0
 23 24  1  0  0  0  0
 23 25  2  0  0  0  0
 33 36  1  0  0  0  0
  8 11  1  0  0  0  0
 42 43  1  0  0  0  0
 21 22  1  0  0  0  0
 18 21  1  0  0  0  0
 32 33  1  0  0  0  0
  7  8  1  0  0  0  0
 17 18  1  0  0  0  0
  3  4  1  0  0  0  0
  3  5  1  0  0  0  0
  3  6  1  0  0  0  0
 36 39  1  0  0  0  0
 36 40  1  0  0  0  0
 36 41  1  0  0  0  0
 11 14  1  0  0  0  0
 11 15  1  0  0  0  0
 11 16  1  0  0  0  0
 43 45  1  0  0  0  0
 43 46  1  0  0  0  0
 43 47  1  0  0  0  0
 22 30  1  0  0  0  0
 22 31  1  0  0  0  0
 21 28  1  0  0  0  0
 21 29  1  0  0  0  0
 33 38  1  0  0  0  0
  8 13  1  0  0  0  0
 18 27  1  0  0  0  0
 42 44  1  0  0  0  0
  7 12  1  0  0  0  0
 32 37  1  0  0  0  0
 17 26  1  0  0  0  0
M  CHG  1  24  -1
M  END
$$$$

  -OEChem-05262214473D

 47 46  0     1  0  0  0  0  0999 V2000
    0.5093   -4.7265    3.0306 C   0  0  0  0  0  0  0  0  0  0  0  0
    1.2735   -4.4402    3.9448 O   0  0  0  0  0  0  0  0  0  0  0  0
   -0.4465   -5.8608    3.1982 C   0  0  0  0  0  0  0  0  0  0  0  0
   -0.0219   -6.8213    2.8645 H   0  0  0  0  0  0  0  0  0  0  0  0
   -0.7314   -6.0185    4.2509 H   0  0  0  0  0  0  0  0  0  0  0  0
   -1.3983   -5.7596    2.6527 H   0  0  0  0  0  0  0  0  0  0  0  0
    0.4252   -4.0886    1.8040 N   0  0  0  0  0  0  0  0  0  0  0  0
    1.2532   -2.9707    1.4349 C   0  0  2  0  0  0  0  0  0  0  0  0
    0.3395   -1.8293    1.0083 C   0  0  0  0  0  0  0  0  0  0  0  0
   -0.8136   -2.0027    0.6194 O   0  0  0  0  0  0  0  0  0  0  0  0
    2.2176   -3.3411    0.3189 C   0  0  0  0  0  0  0  0  0  0  0  0
   -0.2574   -4.4279    1.1287 H   0  0  0  0  0  0  0  0  0  0  0  0
    1.8087   -2.6785    2.3327 H   0  0  0  0  0  0  0  0  0  0  0  0
    1.6793   -3.6366   -0.5890 H   0  0  0  0  0  0  0  0  0  0  0  0
    2.8662   -2.4980    0.0589 H   0  0  0  0  0  0  0  0  0  0  0  0
    2.8538   -4.1816    0.6166 H   0  0  0  0  0  0  0  0  0  0  0  0
    0.9758   -0.5952    1.0708 N   0  0  0  0  0  0  0  0  0  0  0  0
    0.3258    0.6374    0.7059 C   0  0  2  0  0  0  0  0  0  0  0  0
   -0.3371    1.1953    1.9609 C   0  0  0  0  0  0  0  0  0  0  0  0
   -0.5505    0.5170    2.9637 O   0  0  0  0  0  0  0  0  0  0  0  0
   -0.7152    0.4315   -0.4010 C   0  0  0  0  0  0  0  0  0  0  0  0
   -0.1056    0.0287   -1.7431 C   0  0  0  0  0  0  0  0  0  0  0  0
   -1.0935   -0.2165   -2.8884 C   0  0  0  0  0  0  0  0  0  0  0  0
   -2.3094   -0.1890   -2.5413 O   0  5  0  0  0  0  0  0  0  0  0  0
   -0.5913   -0.4000   -4.0313 O   0  0  0  0  0  0  0  0  0  0  0  0
    1.9288   -0.5463    1.4242 H   0  0  0  0  0  0  0  0  0  0  0  0
    1.1154    1.3270    0.3885 H   0  0  0  0  0  0  0  0  0  0  0  0
   -1.3114    1.3434   -0.5299 H   0  0  0  0  0  0  0  0  0  0  0  0
   -1.4226   -0.3502   -0.0930 H   0  0  0  0  0  0  0  0  0  0  0  0
    0.6314    0.7767   -2.0590 H   0  0  0  0  0  0  0  0  0  0  0  0
    0.4440   -0.9112   -1.6052 H   0  0  0  0  0  0  0  0  0  0  0  0
   -0.7033    2.5256    1.8100 N   0  0  0  0  0  0  0  0  0  0  0  0
   -1.3625    3.2796    2.8509 C   0  0  2  0  0  0  0  0  0  0  0  0
   -2.0049    4.5031    2.2106 C   0  0  0  0  0  0  0  0  0  0  0  0
   -1.6311    4.9728    1.1379 O   0  0  0  0  0  0  0  0  0  0  0  0
   -0.3851    3.6873    3.9423 C   0  0  0  0  0  0  0  0  0  0  0  0
   -0.4727    3.0117    0.9485 H   0  0  0  0  0  0  0  0  0  0  0  0
   -2.1426    2.6316    3.2652 H   0  0  0  0  0  0  0  0  0  0  0  0
    0.4038    4.3370    3.5461 H   0  0  0  0  0  0  0  0  0  0  0  0
   -0.8917    4.2341    4.7445 H   0  0  0  0  0  0  0  0  0  0  0  0
    0.0979    2.8077    4.3814 H   0  0  0  0  0  0  0  0  0  0  0  0
   -3.0161    5.0343    2.9988 N   0  0  0  0  0  0  0  0  0  0  0  0
   -3.7700    6.2051    2.6153 C   0  0  0  0  0  0  0  0  0  0  0  0
   -3.2718    4.5686    3.8645 H   0  0  0  0  0  0  0  0  0  0  0  0
   -3.2945    7.1026    3.0377 H   0  0  0  0  0  0  0  0  0  0  0  0
   -3.7920    6.2837    1.5183 H   0  0  0  0  0  0  0  0  0  0  0  0
   -4.7979    6.1205    2.9975 H   0  0  0  0  0  0  0  0  0  0  0  0
  1  3  1  0  0  0  0
  1  7  1  0  0  0  0
  1  2  2  0  0  0  0
 33 34  1  0  0  0  0
 34 42  1  0  0  0  0
 34 35  2  0  0  0  0
  8  9  1  0  0  0  0
  9 17  1  0  0  0  0
  9 10  2  0  0  0  0
 18 19  1  0  0  0  0
 19 32  1  0  0  0  0
 19 20  2  0  0  0  0
 22 23  1  0  0  0  0
 23 24  1  0  0  0  0
 23 25  2  0  0  0  0
 33 36  1  0  0  0  0
  8 11  1  0  0  0  0
 42 43  1  0  0  0  0
 21 22  1  0  0  0  0
 18 21  1  0  0  0  0
 32 33  1  0  0  0  0
  7  8  1  0  0  0  0
 17 18  1  0  0  0  0
  3  4  1  0  0  0  0
  3  5  1  0  0  0  0
  3  6  1  0  0  0  0
 36 39  1  0  0  0  0
 36 40  1  0  0  0  0
 36 41  1  0  0  0  0
 11 14  1  0  0  0  0
 11 15  1  0  0  0  0
 11 16  1  0  0  0  0
 43 45  1  0  0  0  0
 43 46  1  0  0  0  0
 43 47  1  0  0  0  0
 22 30  1  0  0  0  0
 22 31  1  0  0  0  0
 21 28  1  0  0  0  0
 21 29  1  0  0  0  0
 33 38  1  0  0  0  0
  8 13  1  0  0  0  0
 18 27  1  0  0  0  0
 42 44  1  0  0  0  0
  7 12  1  0  0  0  0
 32 37  1  0  0  0  0
 17 26  1  0  0  0  0
M  CHG  1  24  -1
M  END
$$$$

  -OEChem-05262214473D

 47 46  0     1  0  0  0  0  0999 V2000
    0.5093   -4.7265    3.0306 C   0  0  0  0  0  0  0  0  0  0  0  0
    1.2735   -4.4402    3.9448 O   0  0  0  0  0  0  0  0  0  0  0  0
   -0.4465   -5.8608    3.1982 C   0  0  0  0  0  0  0  0  0  0  0  0
   -0.0219   -6.8213    2.8645 H   0  0  0  0  0  0  0  0  0  0  0  0
   -0.7314   -6.0185    4.2509 H   0  0  0  0  0  0  0  0  0  0  0  0
   -1.3983   -5.7596    2.6527 H   0  0  0  0  0  0  0  0  0  0  0  0
    0.4252   -4.0886    1.8040 N   0  0  0  0  0  0  0  0  0  0  0  0
    1.2532   -2.9707    1.4349 C   0  0  2  0  0  0  0  0  0  0  0  0
    0.3395   -1.8293    1.0083 C   0  0  0  0  0  0  0  0  0  0  0  0
   -0.8136   -2.0027    0.6194 O   0  0  0  0  0  0  0  0  0  0  0  0
    2.2176   -3.3411    0.3189 C   0  0  0  0  0  0  0  0  0  0  0  0
   -0.2574   -4.4279    1.1287 H   0  0  0  0  0  0  0  0  0  0  0  0
    1.8087   -2.6785    2.3327 H   0  0  0  0  0  0  0  0  0  0  0  0
    1.6793   -3.6366   -0.5890 H   0  0  0  0  0  0  0  0  0  0  0  0
    2.8662   -2.4980    0.0589 H   0  0  0  0  0  0  0  0  0  0  0  0
    2.8538   -4.1816    0.6166 H   0  0  0  0  0  0  0  0  0  0  0  0
    0.9758   -0.5952    1.0708 N   0  0  0  0  0  0  0  0  0  0  0  0
    0.3258    0.6374    0.7059 C   0  0  2  0  0  0  0  0  0  0  0  0
   -0.0071    1.3797    1.9958 C   0  0  0  0  0  0  0  0  0  0  0  0
    0.2296    0.9223    3.1120 O   0  0  0  0  0  0  0  0  0  0  0  0
   -0.9472    0.3942   -0.1137 C   0  0  0  0  0  0  0  0  0  0  0  0
   -0.6777   -0.1998   -1.4956 C   0  0  0  0  0  0  0  0  0  0  0  0
   -1.9098   -0.4902   -2.3589 C   0  0  0  0  0  0  0  0  0  0  0  0
   -3.0130   -0.3293   -1.7618 O   0  5  0  0  0  0  0  0  0  0  0  0
   -1.6884   -0.8367   -3.5519 O   0  0  0  0  0  0  0  0  0  0  0  0
    1.9288   -0.5463    1.4242 H   0  0  0  0  0  0  0  0  0  0  0  0
    1.0586    1.2238    0.1412 H   0  0  0  0  0  0  0  0  0  0  0  0
   -1.5085    1.3306   -0.2220 H   0  0  0  0  0  0  0  0  0  0  0  0
   -1.6069   -0.2909    0.4355 H   0  0  0  0  0  0  0  0  0  0  0  0
    0.0073    0.4489   -2.0546 H   0  0  0  0  0  0  0  0  0  0  0  0
   -0.1612   -1.1593   -1.3649 H   0  0  0  0  0  0  0  0  0  0  0  0
   -0.6410    2.5902    1.7523 N   0  0  0  0  0  0  0  0  0  0  0  0
   -1.0729    3.4749    2.8094 C   0  0  2  0  0  0  0  0  0  0  0  0
   -2.0962    4.4404    2.2261 C   0  0  0  0  0  0  0  0  0  0  0  0
   -2.1664    4.6992    1.0264 O   0  0  0  0  0  0  0  0  0  0  0  0
    0.1014    4.2280    3.4150 C   0  0  0  0  0  0  0  0  0  0  0  0
   -0.7824    2.8953    0.7939 H   0  0  0  0  0  0  0  0  0  0  0  0
   -1.5525    2.8488    3.5697 H   0  0  0  0  0  0  0  0  0  0  0  0
    0.5946    4.8608    2.6681 H   0  0  0  0  0  0  0  0  0  0  0  0
   -0.2237    4.8768    4.2350 H   0  0  0  0  0  0  0  0  0  0  0  0
    0.8503    3.5317    3.8074 H   0  0  0  0  0  0  0  0  0  0  0  0
   -2.8935    5.0118    3.2079 N   0  0  0  0  0  0  0  0  0  0  0  0
   -3.9316    5.9704    2.9089 C   0  0  0  0  0  0  0  0  0  0  0  0
   -2.7781    4.7244    4.1752 H   0  0  0  0  0  0  0  0  0  0  0  0
   -3.5231    6.9891    2.9829 H   0  0  0  0  0  0  0  0  0  0  0  0
   -4.3063    5.7989    1.8890 H   0  0  0  0  0  0  0  0  0  0  0  0
   -4.7565    5.8533    3.6271 H   0  0  0  0  0  0  0  0  0  0  0  0
  1  3  1  0  0  0  0
  1  7  1  0  0  0  0
  1  2  2  0  0  0  0
 33 34  1  0  0  0  0
 34 42  1  0  0  0  0
 34 35  2  0  0  0  0
  8  9  1  0  0  0  0
  9 17  1  0  0  0  0
  9 10  2  0  0  0  0
 18 19  1  0  0  0  0
 19 32  1  0  0  0  0
 19 20  2  0  0  0  0
 22 23  1  0  0  0  0
 23 24  1  0  0  0  0
 23 25  2  0  0  0  0
 33 36  1  0  0  0  0
  8 11  1  0  0  0  0
 42 43  1  0  0  0  0
 21 22  1  0  0  0  0
 18 21  1  0  0  0  0
 32 33  1  0  0  0  0
  7  8  1  0  0  0  0
 17 18  1  0  0  0  0
  3  4  1  0  0  0  0
  3  5  1  0  0  0  0
  3  6  1  0  0  0  0
 36 39  1  0  0  0  0
 36 40  1  0  0  0  0
 36 41  1  0  0  0  0
 11 14  1  0  0  0  0
 11 15  1  0  0  0  0
 11 16  1  0  0  0  0
 43 45  1  0  0  0  0
 43 46  1  0  0  0  0
 43 47  1  0  0  0  0
 22 30  1  0  0  0  0
 22 31  1  0  0  0  0
 21 28  1  0  0  0  0
 21 29  1  0  0  0  0
 33 38  1  0  0  0  0
  8 13  1  0  0  0  0
 18 27  1  0  0  0  0
 42 44  1  0  0  0  0
  7 12  1  0  0  0  0
 32 37  1  0  0  0  0
 17 26  1  0  0  0  0
M  CHG  1  24  -1
M  END
$$$$

  -OEChem-05262214473D

 47 46  0     1  0  0  0  0  0999 V2000
    0.5093   -4.7265    3.0306 C   0  0  0  0  0  0  0  0  0  0  0  0
    1.2735   -4.4402    3.9448 O   0  0  0  0  0  0  0  0  0  0  0  0
   -0.4465   -5.8608    3.1982 C   0  0  0  0  0  0  0  0  0  0  0  0
   -0.0219   -6.8213    2.8645 H   0  0  0  0  0  0  0  0  0  0  0  0
   -0.7314   -6.0185    4.2509 H   0  0  0  0  0  0  0  0  0  0  0  0
   -1.3983   -5.7596    2.6527 H   0  0  0  0  0  0  0  0  0  0  0  0
    0.4252   -4.0886    1.8040 N   0  0  0  0  0  0  0  0  0  0  0  0
    1.2532   -2.9707    1.4349 C   0  0  2  0  0  0  0  0  0  0  0  0
    0.3395   -1.8293    1.0083 C   0  0  0  0  0  0  0  0  0  0  0  0
   -0.8136   -2.0027    0.6194 O   0  0  0  0  0  0  0  0  0  0  0  0
    2.2176   -3.3411    0.3189 C   0  0  0  0  0  0  0  0  0  0  0  0
   -0.2574   -4.4279    1.1287 H   0  0  0  0  0  0  0  0  0  0  0  0
    1.8087   -2.6785    2.3327 H   0  0  0  0  0  0  0  0  0  0  0  0
    1.6793   -3.6366   -0.5890 H   0  0  0  0  0  0  0  0  0  0  0  0
    2.8662   -2.4980    0.0589 H   0  0  0  0  0  0  0  0  0  0  0  0
    2.8538   -4.1816    0.6166 H   0  0  0  0  0  0  0  0  0  0  0  0
    0.9758   -0.5952    1.0708 N   0  0  0  0  0  0  0  0  0  0  0  0
    0.3258    0.6374    0.7059 C   0  0  2  0  0  0  0  0  0  0  0  0
   -0.0071    1.3797    1.9958 C   0  0  0  0  0  0  0  0  0  0  0  0
    0.4574    1.0638    3.0893 O   0  0  0  0  0  0  0  0  0  0  0  0
   -0.9472    0.3942   -0.1137 C   0  0  0  0  0  0  0  0  0  0  0  0
   -0.6777   -0.1998   -1.4956 C   0  0  0  0  0  0  0  0  0  0  0  0
   -1.9098   -0.4902   -2.3589 C   0  0  0  0  0  0  0  0  0  0  0  0
   -3.0130   -0.3293   -1.7618 O   0  5  0  0  0  0  0  0  0  0  0  0
   -1.6884   -0.8367   -3.5519 O   0  0  0  0  0  0  0  0  0  0  0  0
    1.9288   -0.5463    1.4242 H   0  0  0  0  0  0  0  0  0  0  0  0
    1.0586    1.2238    0.1412 H   0  0  0  0  0  0  0  0  0  0  0  0
   -1.5085    1.3306   -0.2220 H   0  0  0  0  0  0  0  0  0  0  0  0
   -1.6069   -0.2909    0.4355 H   0  0  0  0  0  0  0  0  0  0  0  0
    0.0073    0.4489   -2.0546 H   0  0  0  0  0  0  0  0  0  0  0  0
   -0.1612   -1.1593   -1.3649 H   0  0  0  0  0  0  0  0  0  0  0  0
   -0.9190    2.4051    1.7871 N   0  0  0  0  0  0  0  0  0  0  0  0
   -1.4071    3.2484    2.8536 C   0  0  2  0  0  0  0  0  0  0  0  0
   -2.6819    3.9273    2.3702 C   0  0  0  0  0  0  0  0  0  0  0  0
   -2.9511    4.0796    1.1805 O   0  0  0  0  0  0  0  0  0  0  0  0
   -0.3661    4.2774    3.2659 C   0  0  0  0  0  0  0  0  0  0  0  0
   -1.2384    2.6042    0.8437 H   0  0  0  0  0  0  0  0  0  0  0  0
   -1.6409    2.5889    3.6965 H   0  0  0  0  0  0  0  0  0  0  0  0
   -0.1191    4.9473    2.4342 H   0  0  0  0  0  0  0  0  0  0  0  0
   -0.7268    4.8971    4.0935 H   0  0  0  0  0  0  0  0  0  0  0  0
    0.5605    3.7881    3.5850 H   0  0  0  0  0  0  0  0  0  0  0  0
   -3.4630    4.3814    3.4237 N   0  0  0  0  0  0  0  0  0  0  0  0
   -4.7165    5.0705    3.2243 C   0  0  0  0  0  0  0  0  0  0  0  0
   -3.1715    4.1945    4.3786 H   0  0  0  0  0  0  0  0  0  0  0  0
   -4.5391    6.1559    3.2003 H   0  0  0  0  0  0  0  0  0  0  0  0
   -5.1629    4.7509    2.2711 H   0  0  0  0  0  0  0  0  0  0  0  0
   -5.4026    4.8295    4.0496 H   0  0  0  0  0  0  0  0  0  0  0  0
  1  3  1  0  0  0  0
  1  7  1  0  0  0  0
  1  2  2  0  0  0  0
 33 34  1  0  0  0  0
 34 42  1  0  0  0  0
 34 35  2  0  0  0  0
  8  9  1  0  0  0  0
  9 17  1  0  0  0  0
  9 10  2  0  0  0  0
 18 19  1  0  0  0  0
 19 32  1  0  0  0  0
 19 20  2  0  0  0  0
 22 23  1  0  0  0  0
 23 24  1  0  0  0  0
 23 25  2  0  0  0  0
 33 36  1  0  0  0  0
  8 11  1  0  0  0  0
 42 43  1  0  0  0  0
 21 22  1  0  0  0  0
 18 21  1  0  0  0  0
 32 33  1  0  0  0  0
  7  8  1  0  0  0  0
 17 18  1  0  0  0  0
  3  4  1  0  0  0  0
  3  5  1  0  0  0  0
  3  6  1  0  0  0  0
 36 39  1  0  0  0  0
 36 40  1  0  0  0  0
 36 41  1  0  0  0  0
 11 14  1  0  0  0  0
 11 15  1  0  0  0  0
 11 16  1  0  0  0  0
 43 45  1  0  0  0  0
 43 46  1  0  0  0  0
 43 47  1  0  0  0  0
 22 30  1  0  0  0  0
 22 31  1  0  0  0  0
 21 28  1  0  0  0  0
 21 29  1  0  0  0  0
 33 38  1  0  0  0  0
  8 13  1  0  0  0  0
 18 27  1  0  0  0  0
 42 44  1  0  0  0  0
  7 12  1  0  0  0  0
 32 37  1  0  0  0  0
 17 26  1  0  0  0  0
M  CHG  1  24  -1
M  END
$$$$

  -OEChem-05262214473D

 47 46  0     1  0  0  0  0  0999 V2000
    0.5093   -4.7265    3.0306 C   0  0  0  0  0  0  0  0  0  0  0  0
    1.2735   -4.4402    3.9448 O   0  0  0  0  0  0  0  0  0  0  0  0
   -0.4465   -5.8608    3.1982 C   0  0  0  0  0  0  0  0  0  0  0  0
   -0.0219   -6.8213    2.8645 H   0  0  0  0  0  0  0  0  0  0  0  0
   -0.7314   -6.0185    4.2509 H   0  0  0  0  0  0  0  0  0  0  0  0
   -1.3983   -5.7596    2.6527 H   0  0  0  0  0  0  0  0  0  0  0  0
    0.4252   -4.0886    1.8040 N   0  0  0  0  0  0  0  0  0  0  0  0
    1.2532   -2.9707    1.4349 C   0  0  2  0  0  0  0  0  0  0  0  0
    0.3395   -1.8293    1.0083 C   0  0  0  0  0  0  0  0  0  0  0  0
   -0.8136   -2.0027    0.6194 O   0  0  0  0  0  0  0  0  0  0  0  0
    2.2176   -3.3411    0.3189 C   0  0  0  0  0  0  0  0  0  0  0  0
   -0.2574   -4.4279    1.1287 H   0  0  0  0  0  0  0  0  0  0  0  0
    1.8087   -2.6785    2.3327 H   0  0  0  0  0  0  0  0  0  0  0  0
    1.6793   -3.6366   -0.5890 H   0  0  0  0  0  0  0  0  0  0  0  0
    2.8662   -2.4980    0.0589 H   0  0  0  0  0  0  0  0  0  0  0  0
    2.8538   -4.1816    0.6166 H   0  0  0  0  0  0  0  0  0  0  0  0
    0.9758   -0.5952    1.0708 N   0  0  0  0  0  0  0  0  0  0  0  0
    0.3258    0.6374    0.7059 C   0  0  2  0  0  0  0  0  0  0  0  0
   -0.0071    1.3797    1.9958 C   0  0  0  0  0  0  0  0  0  0  0  0
    0.6435    1.2492    3.0307 O   0  0  0  0  0  0  0  0  0  0  0  0
   -0.9472    0.3942   -0.1137 C   0  0  0  0  0  0  0  0  0  0  0  0
   -0.6777   -0.1998   -1.4956 C   0  0  0  0  0  0  0  0  0  0  0  0
   -1.9098   -0.4902   -2.3589 C   0  0  0  0  0  0  0  0  0  0  0  0
   -3.0130   -0.3293   -1.7618 O   0  5  0  0  0  0  0  0  0  0  0  0
   -1.6884   -0.8367   -3.5519 O   0  0  0  0  0  0  0  0  0  0  0  0
    1.9288   -0.5463    1.4242 H   0  0  0  0  0  0  0  0  0  0  0  0
    1.0586    1.2238    0.1412 H   0  0  0  0  0  0  0  0  0  0  0  0
   -1.5085    1.3306   -0.2220 H   0  0  0  0  0  0  0  0  0  0  0  0
   -1.6069   -0.2909    0.4355 H   0  0  0  0  0  0  0  0  0  0  0  0
    0.0073    0.4489   -2.0546 H   0  0  0  0  0  0  0  0  0  0  0  0
   -0.1612   -1.1593   -1.3649 H   0  0  0  0  0  0  0  0  0  0  0  0
   -1.1425    2.1674    1.8663 N   0  0  0  0  0  0  0  0  0  0  0  0
   -1.6749    2.9589    2.9511 C   0  0  2  0  0  0  0  0  0  0  0  0
   -3.1172    3.3116    2.6123 C   0  0  0  0  0  0  0  0  0  0  0  0
   -3.5539    3.3181    1.4632 O   0  0  0  0  0  0  0  0  0  0  0  0
   -0.8472    4.2143    3.1781 C   0  0  0  0  0  0  0  0  0  0  0  0
   -1.6088    2.2260    0.9658 H   0  0  0  0  0  0  0  0  0  0  0  0
   -1.6534    2.3256    3.8448 H   0  0  0  0  0  0  0  0  0  0  0  0
   -0.8568    4.8613    2.2933 H   0  0  0  0  0  0  0  0  0  0  0  0
   -1.2351    4.7986    4.0190 H   0  0  0  0  0  0  0  0  0  0  0  0
    0.1964    3.9597    3.3923 H   0  0  0  0  0  0  0  0  0  0  0  0
   -3.8479    3.6600    3.7396 N   0  0  0  0  0  0  0  0  0  0  0  0
   -5.2380    4.0473    3.6787 C   0  0  0  0  0  0  0  0  0  0  0  0
   -3.4100    3.6081    4.6546 H   0  0  0  0  0  0  0  0  0  0  0  0
   -5.3107    5.1409    3.5853 H   0  0  0  0  0  0  0  0  0  0  0  0
   -5.7129    3.5727    2.8074 H   0  0  0  0  0  0  0  0  0  0  0  0
   -5.7494    3.7230    4.5970 H   0  0  0  0  0  0  0  0  0  0  0  0
  1  3  1  0  0  0  0
  1  7  1  0  0  0  0
  1  2  2  0  0  0  0
 33 34  1  0  0  0  0
 34 42  1  0  0  0  0
 34 35  2  0  0  0  0
  8  9  1  0  0  0  0
  9 17  1  0  0  0  0
  9 10  2  0  0  0  0
 18 19  1  0  0  0  0
 19 32  1  0  0  0  0
 19 20  2  0  0  0  0
 22 23  1  0  0  0  0
 23 24  1  0  0  0  0
 23 25  2  0  0  0  0
 33 36  1  0  0  0  0
  8 11  1  0  0  0  0
 42 43  1  0  0  0  0
 21 22  1  0  0  0  0
 18 21  1  0  0  0  0
 32 33  1  0  0  0  0
  7  8  1  0  0  0  0
 17 18  1  0  0  0  0
  3  4  1  0  0  0  0
  3  5  1  0  0  0  0
  3  6  1  0  0  0  0
 36 39  1  0  0  0  0
 36 40  1  0  0  0  0
 36 41  1  0  0  0  0
 11 14  1  0  0  0  0
 11 15  1  0  0  0  0
 11 16  1  0  0  0  0
 43 45  1  0  0  0  0
 43 46  1  0  0  0  0
 43 47  1  0  0  0  0
 22 30  1  0  0  0  0
 22 31  1  0  0  0  0
 21 28  1  0  0  0  0
 21 29  1  0  0  0  0
 33 38  1  0  0  0  0
  8 13  1  0  0  0  0
 18 27  1  0  0  0  0
 42 44  1  0  0  0  0
  7 12  1  0  0  0  0
 32 37  1  0  0  0  0
 17 26  1  0  0  0  0
M  CHG  1  24  -1
M  END
$$$$

  -OEChem-05262214473D

 47 46  0     1  0  0  0  0  0999 V2000
    0.5093   -4.7265    3.0306 C   0  0  0  0  0  0  0  0  0  0  0  0
    1.2735   -4.4402    3.9448 O   0  0  0  0  0  0  0  0  0  0  0  0
   -0.4465   -5.8608    3.1982 C   0  0  0  0  0  0  0  0  0  0  0  0
   -0.0219   -6.8213    2.8645 H   0  0  0  0  0  0  0  0  0  0  0  0
   -0.7314   -6.0185    4.2509 H   0  0  0  0  0  0  0  0  0  0  0  0
   -1.3983   -5.7596    2.6527 H   0  0  0  0  0  0  0  0  0  0  0  0
    0.4252   -4.0886    1.8040 N   0  0  0  0  0  0  0  0  0  0  0  0
    1.2532   -2.9707    1.4349 C   0  0  2  0  0  0  0  0  0  0  0  0
    0.3395   -1.8293    1.0083 C   0  0  0  0  0  0  0  0  0  0  0  0
   -0.8136   -2.0027    0.6194 O   0  0  0  0  0  0  0  0  0  0  0  0
    2.2176   -3.3411    0.3189 C   0  0  0  0  0  0  0  0  0  0  0  0
   -0.2574   -4.4279    1.1287 H   0  0  0  0  0  0  0  0  0  0  0  0
    1.8087   -2.6785    2.3327 H   0  0  0  0  0  0  0  0  0  0  0  0
    1.6793   -3.6366   -0.5890 H   0  0  0  0  0  0  0  0  0  0  0  0
    2.8662   -2.4980    0.0589 H   0  0  0  0  0  0  0  0  0  0  0  0
    2.8538   -4.1816    0.6166 H   0  0  0  0  0  0  0  0  0  0  0  0
    0.9758   -0.5952    1.0708 N   0  0  0  0  0  0  0  0  0  0  0  0
    0.3258    0.6374    0.7059 C   0  0  2  0  0  0  0  0  0  0  0  0
   -0.0071    1.3797    1.9958 C   0  0  0  0  0  0  0  0  0  0  0  0
    0.7753    1.4656    2.9401 O   0  0  0  0  0  0  0  0  0  0  0  0
   -0.9472    0.3942   -0.1137 C   0  0  0  0  0  0  0  0  0  0  0  0
   -0.6777   -0.1998   -1.4956 C   0  0  0  0  0  0  0  0  0  0  0  0
   -1.9098   -0.4902   -2.3589 C   0  0  0  0  0  0  0  0  0  0  0  0
   -3.0130   -0.3293   -1.7618 O   0  5  0  0  0  0  0  0  0  0  0  0
   -1.6884   -0.8367   -3.5519 O   0  0  0  0  0  0  0  0  0  0  0  0
    1.9288   -0.5463    1.4242 H   0  0  0  0  0  0  0  0  0  0  0  0
    1.0586    1.2238    0.1412 H   0  0  0  0  0  0  0  0  0  0  0  0
   -1.5085    1.3306   -0.2220 H   0  0  0  0  0  0  0  0  0  0  0  0
   -1.6069   -0.2909    0.4355 H   0  0  0  0  0  0  0  0  0  0  0  0
    0.0073    0.4489   -2.0546 H   0  0  0  0  0  0  0  0  0  0  0  0
   -0.1612   -1.1593   -1.3649 H   0  0  0  0  0  0  0  0  0  0  0  0
   -1.2965    1.8933    1.9843 N   0  0  0  0  0  0  0  0  0  0  0  0
   -1.8578    2.6261    3.0954 C   0  0  2  0  0  0  0  0  0  0  0  0
   -3.3724    2.6352    2.9357 C   0  0  0  0  0  0  0  0  0  0  0  0
   -3.9339    2.4666    1.8553 O   0  0  0  0  0  0  0  0  0  0  0  0
   -1.3092    4.0431    3.1574 C   0  0  0  0  0  0  0  0  0  0  0  0
   -1.8684    1.7865    1.1517 H   0  0  0  0  0  0  0  0  0  0  0  0
   -1.5891    2.0770    4.0044 H   0  0  0  0  0  0  0  0  0  0  0  0
   -1.5684    4.6088    2.2550 H   0  0  0  0  0  0  0  0  0  0  0  0
   -1.7139    4.5880    4.0167 H   0  0  0  0  0  0  0  0  0  0  0  0
   -0.2172    4.0349    3.2423 H   0  0  0  0  0  0  0  0  0  0  0  0
   -4.0219    2.8968    4.1339 N   0  0  0  0  0  0  0  0  0  0  0  0
   -5.4604    2.9704    4.2411 C   0  0  0  0  0  0  0  0  0  0  0  0
   -3.4772    3.0050    4.9844 H   0  0  0  0  0  0  0  0  0  0  0  0
   -5.7853    4.0134    4.1118 H   0  0  0  0  0  0  0  0  0  0  0  0
   -5.9186    2.3445    3.4612 H   0  0  0  0  0  0  0  0  0  0  0  0
   -5.7731    2.6093    5.2319 H   0  0  0  0  0  0  0  0  0  0  0  0
  1  3  1  0  0  0  0
  1  7  1  0  0  0  0
  1  2  2  0  0  0  0
 33 34  1  0  0  0  0
 34 42  1  0  0  0  0
 34 35  2  0  0  0  0
  8  9  1  0  0  0  0
  9 17  1  0  0  0  0
  9 10  2  0  0  0  0
 18 19  1  0  0  0  0
 19 32  1  0  0  0  0
 19 20  2  0  0  0  0
 22 23  1  0  0  0  0
 23 24  1  0  0  0  0
 23 25  2  0  0  0  0
 33 36  1  0  0  0  0
  8 11  1  0  0  0  0
 42 43  1  0  0  0  0
 21 22  1  0  0  0  0
 18 21  1  0  0  0  0
 32 33  1  0  0  0  0
  7  8  1  0  0  0  0
 17 18  1  0  0  0  0
  3  4  1  0  0  0  0
  3  5  1  0  0  0  0
  3  6  1  0  0  0  0
 36 39  1  0  0  0  0
 36 40  1  0  0  0  0
 36 41  1  0  0  0  0
 11 14  1  0  0  0  0
 11 15  1  0  0  0  0
 11 16  1  0  0  0  0
 43 45  1  0  0  0  0
 43 46  1  0  0  0  0
 43 47  1  0  0  0  0
 22 30  1  0  0  0  0
 22 31  1  0  0  0  0
 21 28  1  0  0  0  0
 21 29  1  0  0  0  0
 33 38  1  0  0  0  0
  8 13  1  0  0  0  0
 18 27  1  0  0  0  0
 42 44  1  0  0  0  0
  7 12  1  0  0  0  0
 32 37  1  0  0  0  0
 17 26  1  0  0  0  0
M  CHG  1  24  -1
M  END
$$$$

  -OEChem-05262214473D

 47 46  0     1  0  0  0  0  0999 V2000
    0.5093   -4.7265    3.0306 C   0  0  0  0  0  0  0  0  0  0  0  0
    1.2735   -4.4402    3.9448 O   0  0  0  0  0  0  0  0  0  0  0  0
   -0.4465   -5.8608    3.1982 C   0  0  0  0  0  0  0  0  0  0  0  0
   -0.0219   -6.8213    2.8645 H   0  0  0  0  0  0  0  0  0  0  0  0
   -0.7314   -6.0185    4.2509 H   0  0  0  0  0  0  0  0  0  0  0  0
   -1.3983   -5.7596    2.6527 H   0  0  0  0  0  0  0  0  0  0  0  0
    0.4252   -4.0886    1.8040 N   0  0  0  0  0  0  0  0  0  0  0  0
    1.2532   -2.9707    1.4349 C   0  0  2  0  0  0  0  0  0  0  0  0
    0.3395   -1.8293    1.0083 C   0  0  0  0  0  0  0  0  0  0  0  0
   -0.8136   -2.0027    0.6194 O   0  0  0  0  0  0  0  0  0  0  0  0
    2.2176   -3.3411    0.3189 C   0  0  0  0  0  0  0  0  0  0  0  0
   -0.2574   -4.4279    1.1287 H   0  0  0  0  0  0  0  0  0  0  0  0
    1.8087   -2.6785    2.3327 H   0  0  0  0  0  0  0  0  0  0  0  0
    1.6793   -3.6366   -0.5890 H   0  0  0  0  0  0  0  0  0  0  0  0
    2.8662   -2.4980    0.0589 H   0  0  0  0  0  0  0  0  0  0  0  0
    2.8538   -4.1816    0.6166 H   0  0  0  0  0  0  0  0  0  0  0  0
    0.9758   -0.5952    1.0708 N   0  0  0  0  0  0  0  0  0  0  0  0
    0.3258    0.6374    0.7059 C   0  0  2  0  0  0  0  0  0  0  0  0
   -0.0071    1.3797    1.9958 C   0  0  0  0  0  0  0  0  0  0  0  0
    0.8438    1.6984    2.8238 O   0  0  0  0  0  0  0  0  0  0  0  0
   -0.9472    0.3942   -0.1137 C   0  0  0  0  0  0  0  0  0  0  0  0
   -0.6777   -0.1998   -1.4956 C   0  0  0  0  0  0  0  0  0  0  0  0
   -1.9098   -0.4902   -2.3589 C   0  0  0  0  0  0  0  0  0  0  0  0
   -3.0130   -0.3293   -1.7618 O   0  5  0  0  0  0  0  0  0  0  0  0
   -1.6884   -0.8367   -3.5519 O   0  0  0  0  0  0  0  0  0  0  0  0
    1.9288   -0.5463    1.4242 H   0  0  0  0  0  0  0  0  0  0  0  0
    1.0586    1.2238    0.1412 H   0  0  0  0  0  0  0  0  0  0  0  0
   -1.5085    1.3306   -0.2220 H   0  0  0  0  0  0  0  0  0  0  0  0
   -1.6069   -0.2909    0.4355 H   0  0  0  0  0  0  0  0  0  0  0  0
    0.0073    0.4489   -2.0546 H   0  0  0  0  0  0  0  0  0  0  0  0
   -0.1612   -1.1593   -1.3649 H   0  0  0  0  0  0  0  0  0  0  0  0
   -1.3703    1.6016    2.1331 N   0  0  0  0  0  0  0  0  0  0  0  0
   -1.9435    2.2728    3.2767 C   0  0  2  0  0  0  0  0  0  0  0  0
   -3.4300    1.9443    3.3184 C   0  0  0  0  0  0  0  0  0  0  0  0
   -4.0652    1.5830    2.3300 O   0  0  0  0  0  0  0  0  0  0  0  0
   -1.7206    3.7754    3.2053 C   0  0  0  0  0  0  0  0  0  0  0  0
   -1.9996    1.3157    1.3889 H   0  0  0  0  0  0  0  0  0  0  0  0
   -1.4525    1.8599    4.1646 H   0  0  0  0  0  0  0  0  0  0  0  0
   -2.2053    4.2070    2.3219 H   0  0  0  0  0  0  0  0  0  0  0  0
   -2.1306    4.2797    4.0866 H   0  0  0  0  0  0  0  0  0  0  0  0
   -0.6520    4.0086    3.1453 H   0  0  0  0  0  0  0  0  0  0  0  0
   -3.9733    2.1437    4.5799 N   0  0  0  0  0  0  0  0  0  0  0  0
   -5.3686    1.9134    4.8731 C   0  0  0  0  0  0  0  0  0  0  0  0
   -3.3685    2.4264    5.3454 H   0  0  0  0  0  0  0  0  0  0  0  0
   -5.9305    2.8501    4.7438 H   0  0  0  0  0  0  0  0  0  0  0  0
   -5.7660    1.1500    4.1880 H   0  0  0  0  0  0  0  0  0  0  0  0
   -5.4722    1.5641    5.9110 H   0  0  0  0  0  0  0  0  0  0  0  0
  1  3  1  0  0  0  0
  1  7  1  0  0  0  0
  1  2  2  0  0  0  0
 33 34  1  0  0  0  0
 34 42  1  0  0  0  0
 34 35  2  0  0  0  0
  8  9  1  0  0  0  0
  9 17  1  0  0  0  0
  9 10  2  0  0  0  0
 18 19  1  0  0  0  0
 19 32  1  0  0  0  0
 19 20  2  0  0  0  0
 22 23  1  0  0  0  0
 23 24  1  0  0  0  0
 23 25  2  0  0  0  0
 33 36  1  0  0  0  0
  8 11  1  0  0  0  0
 42 43  1  0  0  0  0
 21 22  1  0  0  0  0
 18 21  1  0  0  0  0
 32 33  1  0  0  0  0
  7  8  1  0  0  0  0
 17 18  1  0  0  0  0
  3  4  1  0  0  0  0
  3  5  1  0  0  0  0
  3  6  1  0  0  0  0
 36 39  1  0  0  0  0
 36 40  1  0  0  0  0
 36 41  1  0  0  0  0
 11 14  1  0  0  0  0
 11 15  1  0  0  0  0
 11 16  1  0  0  0  0
 43 45  1  0  0  0  0
 43 46  1  0  0  0  0
 43 47  1  0  0  0  0
 22 30  1  0  0  0  0
 22 31  1  0  0  0  0
 21 28  1  0  0  0  0
 21 29  1  0  0  0  0
 33 38  1  0  0  0  0
  8 13  1  0  0  0  0
 18 27  1  0  0  0  0
 42 44  1  0  0  0  0
  7 12  1  0  0  0  0
 32 37  1  0  0  0  0
 17 26  1  0  0  0  0
M  CHG  1  24  -1
M  END
$$$$

  -OEChem-05262214473D

 47 46  0     1  0  0  0  0  0999 V2000
    0.5093   -4.7265    3.0306 C   0  0  0  0  0  0  0  0  0  0  0  0
    1.2735   -4.4402    3.9448 O   0  0  0  0  0  0  0  0  0  0  0  0
   -0.4465   -5.8608    3.1982 C   0  0  0  0  0  0  0  0  0  0  0  0
   -0.0219   -6.8213    2.8645 H   0  0  0  0  0  0  0  0  0  0  0  0
   -0.7314   -6.0185    4.2509 H   0  0  0  0  0  0  0  0  0  0  0  0
   -1.3983   -5.7596    2.6527 H   0  0  0  0  0  0  0  0  0  0  0  0
    0.4252   -4.0886    1.8040 N   0  0  0  0  0  0  0  0  0  0  0  0
    1.2532   -2.9707    1.4349 C   0  0  2  0  0  0  0  0  0  0  0  0
    0.3395   -1.8293    1.0083 C   0  0  0  0  0  0  0  0  0  0  0  0
   -0.8136   -2.0027    0.6194 O   0  0  0  0  0  0  0  0  0  0  0  0
    2.2176   -3.3411    0.3189 C   0  0  0  0  0  0  0  0  0  0  0  0
   -0.2574   -4.4279    1.1287 H   0  0  0  0  0  0  0  0  0  0  0  0
    1.8087   -2.6785    2.3327 H   0  0  0  0  0  0  0  0  0  0  0  0
    1.6793   -3.6366   -0.5890 H   0  0  0  0  0  0  0  0  0  0  0  0
    2.8662   -2.4980    0.0589 H   0  0  0  0  0  0  0  0  0  0  0  0
    2.8538   -4.1816    0.6166 H   0  0  0  0  0  0  0  0  0  0  0  0
    0.9758   -0.5952    1.0708 N   0  0  0  0  0  0  0  0  0  0  0  0
    0.3258    0.6374    0.7059 C   0  0  2  0  0  0  0  0  0  0  0  0
   -0.0071    1.3797    1.9958 C   0  0  0  0  0  0  0  0  0  0  0  0
    0.8444    1.9317    2.6897 O   0  0  0  0  0  0  0  0  0  0  0  0
   -0.9472    0.3942   -0.1137 C   0  0  0  0  0  0  0  0  0  0  0  0
   -0.6777   -0.1998   -1.4956 C   0  0  0  0  0  0  0  0  0  0  0  0
   -1.9098   -0.4902   -2.3589 C   0  0  0  0  0  0  0  0  0  0  0  0
   -3.0130   -0.3293   -1.7618 O   0  5  0  0  0  0  0  0  0  0  0  0
   -1.6884   -0.8367   -3.5519 O   0  0  0  0  0  0  0  0  0  0  0  0
    1.9288   -0.5463    1.4242 H   0  0  0  0  0  0  0  0  0  0  0  0
    1.0586    1.2238    0.1412 H   0  0  0  0  0  0  0  0  0  0  0  0
   -1.5085    1.3306   -0.2220 H   0  0  0  0  0  0  0  0  0  0  0  0
   -1.6069   -0.2909    0.4355 H   0  0  0  0  0  0  0  0  0  0  0  0
    0.0073    0.4489   -2.0546 H   0  0  0  0  0  0  0  0  0  0  0  0
   -0.1612   -1.1593   -1.3649 H   0  0  0  0  0  0  0  0  0  0  0  0
   -1.3590    1.3120    2.3027 N   0  0  0  0  0  0  0  0  0  0  0  0
   -1.9260    1.9230    3.4825 C   0  0  2  0  0  0  0  0  0  0  0  0
   -3.2863    1.2860    3.7344 C   0  0  0  0  0  0  0  0  0  0  0  0
   -3.9387    0.7276    2.8549 O   0  0  0  0  0  0  0  0  0  0  0  0
   -2.0534    3.4295    3.3185 C   0  0  0  0  0  0  0  0  0  0  0  0
   -1.9933    0.8456    1.6611 H   0  0  0  0  0  0  0  0  0  0  0  0
   -1.2529    1.6892    4.3144 H   0  0  0  0  0  0  0  0  0  0  0  0
   -2.7241    3.6832    2.4895 H   0  0  0  0  0  0  0  0  0  0  0  0
   -2.4567    3.8945    4.2241 H   0  0  0  0  0  0  0  0  0  0  0  0
   -1.0785    3.8824    3.1078 H   0  0  0  0  0  0  0  0  0  0  0  0
   -3.7053    1.4522    5.0470 N   0  0  0  0  0  0  0  0  0  0  0  0
   -4.9690    0.9481    5.5318 C   0  0  0  0  0  0  0  0  0  0  0  0
   -3.0914    1.9117    5.7132 H   0  0  0  0  0  0  0  0  0  0  0  0
   -5.7366    1.7304    5.4383 H   0  0  0  0  0  0  0  0  0  0  0  0
   -5.2656    0.0707    4.9383 H   0  0  0  0  0  0  0  0  0  0  0  0
   -4.8673    0.6588    6.5882 H   0  0  0  0  0  0  0  0  0  0  0  0
  1  3  1  0  0  0  0
  1  7  1  0  0  0  0
  1  2  2  0  0  0  0
 33 34  1  0  0  0  0
 34 42  1  0  0  0  0
 34 35  2  0  0  0  0
  8  9  1  0  0  0  0
  9 17  1  0  0  0  0
  9 10  2  0  0  0  0
 18 19  1  0  0  0  0
 19 32  1  0  0  0  0
 19 20  2  0  0  0  0
 22 23  1  0  0  0  0
 23 24  1  0  0  0  0
 23 25  2  0  0  0  0
 33 36  1  0  0  0  0
  8 11  1  0  0  0  0
 42 43  1  0  0  0  0
 21 22  1  0  0  0  0
 18 21  1  0  0  0  0
 32 33  1  0  0  0  0
  7  8  1  0  0  0  0
 17 18  1  0  0  0  0
  3  4  1  0  0  0  0
  3  5  1  0  0  0  0
  3  6  1  0  0  0  0
 36 39  1  0  0  0  0
 36 40  1  0  0  0  0
 36 41  1  0  0  0  0
 11 14  1  0  0  0  0
 11 15  1  0  0  0  0
 11 16  1  0  0  0  0
 43 45  1  0  0  0  0
 43 46  1  0  0  0  0
 43 47  1  0  0  0  0
 22 30  1  0  0  0  0
 22 31  1  0  0  0  0
 21 28  1  0  0  0  0
 21 29  1  0  0  0  0
 33 38  1  0  0  0  0
  8 13  1  0  0  0  0
 18 27  1  0  0  0  0
 42 44  1  0  0  0  0
  7 12  1  0  0  0  0
 32 37  1  0  0  0  0
 17 26  1  0  0  0  0
M  CHG  1  24  -1
M  END
$$$$

  -OEChem-05262214473D

 47 46  0     1  0  0  0  0  0999 V2000
    0.5093   -4.7265    3.0306 C   0  0  0  0  0  0  0  0  0  0  0  0
    1.2735   -4.4402    3.9448 O   0  0  0  0  0  0  0  0  0  0  0  0
   -0.4465   -5.8608    3.1982 C   0  0  0  0  0  0  0  0  0  0  0  0
   -0.0219   -6.8213    2.8645 H   0  0  0  0  0  0  0  0  0  0  0  0
   -0.7314   -6.0185    4.2509 H   0  0  0  0  0  0  0  0  0  0  0  0
   -1.3983   -5.7596    2.6527 H   0  0  0  0  0  0  0  0  0  0  0  0
    0.4252   -4.0886    1.8040 N   0  0  0  0  0  0  0  0  0  0  0  0
    1.2532   -2.9707    1.4349 C   0  0  2  0  0  0  0  0  0  0  0  0
    0.3395   -1.8293    1.0083 C   0  0  0  0  0  0  0  0  0  0  0  0
   -0.8136   -2.0027    0.6194 O   0  0  0  0  0  0  0  0  0  0  0  0
    2.2176   -3.3411    0.3189 C   0  0  0  0  0  0  0  0  0  0  0  0
   -0.2574   -4.4279    1.1287 H   0  0  0  0  0  0  0  0  0  0  0  0
    1.8087   -2.6785    2.3327 H   0  0  0  0  0  0  0  0  0  0  0  0
    1.6793   -3.6366   -0.5890 H   0  0  0  0  0  0  0  0  0  0  0  0
    2.8662   -2.4980    0.0589 H   0  0  0  0  0  0  0  0  0  0  0  0
    2.8538   -4.1816    0.6166 H   0  0  0  0  0  0  0  0  0  0  0  0
    0.9758   -0.5952    1.0708 N   0  0  0  0  0  0  0  0  0  0  0  0
    0.3258    0.6374    0.7059 C   0  0  2  0  0  0  0  0  0  0  0  0
   -0.0071    1.3797    1.9958 C   0  0  0  0  0  0  0  0  0  0  0  0
    0.7770    2.1496    2.5469 O   0  0  0  0  0  0  0  0  0  0  0  0
   -0.9472    0.3942   -0.1137 C   0  0  0  0  0  0  0  0  0  0  0  0
   -0.6777   -0.1998   -1.4956 C   0  0  0  0  0  0  0  0  0  0  0  0
   -1.9098   -0.4902   -2.3589 C   0  0  0  0  0  0  0  0  0  0  0  0
   -3.0130   -0.3293   -1.7618 O   0  5  0  0  0  0  0  0  0  0  0  0
   -1.6884   -0.8367   -3.5519 O   0  0  0  0  0  0  0  0  0  0  0  0
    1.9288   -0.5463    1.4242 H   0  0  0  0  0  0  0  0  0  0  0  0
    1.0586    1.2238    0.1412 H   0  0  0  0  0  0  0  0  0  0  0  0
   -1.5085    1.3306   -0.2220 H   0  0  0  0  0  0  0  0  0  0  0  0
   -1.6069   -0.2909    0.4355 H   0  0  0  0  0  0  0  0  0  0  0  0
    0.0073    0.4489   -2.0546 H   0  0  0  0  0  0  0  0  0  0  0  0
   -0.1612   -1.1593   -1.3649 H   0  0  0  0  0  0  0  0  0  0  0  0
   -1.2633    1.0443    2.4815 N   0  0  0  0  0  0  0  0  0  0  0  0
   -1.8067    1.6006    3.6988 C   0  0  2  0  0  0  0  0  0  0  0  0
   -2.9509    0.7050    4.1553 C   0  0  0  0  0  0  0  0  0  0  0  0
   -3.5632   -0.0413    3.3943 O   0  0  0  0  0  0  0  0  0  0  0  0
   -2.2848    3.0290    3.4894 C   0  0  0  0  0  0  0  0  0  0  0  0
   -1.8501    0.4083    1.9497 H   0  0  0  0  0  0  0  0  0  0  0  0
   -1.0037    1.5764    4.4436 H   0  0  0  0  0  0  0  0  0  0  0  0
   -3.0894    3.0732    2.7463 H   0  0  0  0  0  0  0  0  0  0  0  0
   -2.6701    3.4589    4.4198 H   0  0  0  0  0  0  0  0  0  0  0  0
   -1.4676    3.6651    3.1325 H   0  0  0  0  0  0  0  0  0  0  0  0
   -3.2362    0.8693    5.5036 N   0  0  0  0  0  0  0  0  0  0  0  0
   -4.2886    0.1404    6.1722 C   0  0  0  0  0  0  0  0  0  0  0  0
   -2.6647    1.4960    6.0625 H   0  0  0  0  0  0  0  0  0  0  0  0
   -5.2166    0.7305    6.1479 H   0  0  0  0  0  0  0  0  0  0  0  0
   -4.4514   -0.8199    5.6609 H   0  0  0  0  0  0  0  0  0  0  0  0
   -3.9994   -0.0450    7.2172 H   0  0  0  0  0  0  0  0  0  0  0  0
  1  3  1  0  0  0  0
  1  7  1  0  0  0  0
  1  2  2  0  0  0  0
 33 34  1  0  0  0  0
 34 42  1  0  0  0  0
 34 35  2  0  0  0  0
  8  9  1  0  0  0  0
  9 17  1  0  0  0  0
  9 10  2  0  0  0  0
 18 19  1  0  0  0  0
 19 32  1  0  0  0  0
 19 20  2  0  0  0  0
 22 23  1  0  0  0  0
 23 24  1  0  0  0  0
 23 25  2  0  0  0  0
 33 36  1  0  0  0  0
  8 11  1  0  0  0  0
 42 43  1  0  0  0  0
 21 22  1  0  0  0  0
 18 21  1  0  0  0  0
 32 33  1  0  0  0  0
  7  8  1  0  0  0  0
 17 18  1  0  0  0  0
  3  4  1  0  0  0  0
  3  5  1  0  0  0  0
  3  6  1  0  0  0  0
 36 39  1  0  0  0  0
 36 40  1  0  0  0  0
 36 41  1  0  0  0  0
 11 14  1  0  0  0  0
 11 15  1  0  0  0  0
 11 16  1  0  0  0  0
 43 45  1  0  0  0  0
 43 46  1  0  0  0  0
 43 47  1  0  0  0  0
 22 30  1  0  0  0  0
 22 31  1  0  0  0  0
 21 28  1  0  0  0  0
 21 29  1  0  0  0  0
 33 38  1  0  0  0  0
  8 13  1  0  0  0  0
 18 27  1  0  0  0  0
 42 44  1  0  0  0  0
  7 12  1  0  0  0  0
 32 37  1  0  0  0  0
 17 26  1  0  0  0  0
M  CHG  1  24  -1
M  END
$$$$

  -OEChem-05262214473D

 47 46  0     1  0  0  0  0  0999 V2000
    0.5093   -4.7265    3.0306 C   0  0  0  0  0  0  0  0  0  0  0  0
    1.2735   -4.4402    3.9448 O   0  0  0  0  0  0  0  0  0  0  0  0
   -0.4465   -5.8608    3.1982 C   0  0  0  0  0  0  0  0  0  0  0  0
   -0.0219   -6.8213    2.8645 H   0  0  0  0  0  0  0  0  0  0  0  0
   -0.7314   -6.0185    4.2509 H   0  0  0  0  0  0  0  0  0  0  0  0
   -1.3983   -5.7596    2.6527 H   0  0  0  0  0  0  0  0  0  0  0  0
    0.4252   -4.0886    1.8040 N   0  0  0  0  0  0  0  0  0  0  0  0
    1.2532   -2.9707    1.4349 C   0  0  2  0  0  0  0  0  0  0  0  0
    0.3395   -1.8293    1.0083 C   0  0  0  0  0  0  0  0  0  0  0  0
   -0.8136   -2.0027    0.6194 O   0  0  0  0  0  0  0  0  0  0  0  0
    2.2176   -3.3411    0.3189 C   0  0  0  0  0  0  0  0  0  0  0  0
   -0.2574   -4.4279    1.1287 H   0  0  0  0  0  0  0  0  0  0  0  0
    1.8087   -2.6785    2.3327 H   0  0  0  0  0  0  0  0  0  0  0  0
    1.6793   -3.6366   -0.5890 H   0  0  0  0  0  0  0  0  0  0  0  0
    2.8662   -2.4980    0.0589 H   0  0  0  0  0  0  0  0  0  0  0  0
    2.8538   -4.1816    0.6166 H   0  0  0  0  0  0  0  0  0  0  0  0
    0.9758   -0.5952    1.0708 N   0  0  0  0  0  0  0  0  0  0  0  0
    0.3258    0.6374    0.7059 C   0  0  2  0  0  0  0  0  0  0  0  0
   -0.0071    1.3797    1.9958 C   0  0  0  0  0  0  0  0  0  0  0  0
    0.6462    2.3373    2.4052 O   0  0  0  0  0  0  0  0  0  0  0  0
   -0.9472    0.3942   -0.1137 C   0  0  0  0  0  0  0  0  0  0  0  0
   -0.6777   -0.1998   -1.4956 C   0  0  0  0  0  0  0  0  0  0  0  0
   -1.9098   -0.4902   -2.3589 C   0  0  0  0  0  0  0  0  0  0  0  0
   -3.0130   -0.3293   -1.7618 O   0  5  0  0  0  0  0  0  0  0  0  0
   -1.6884   -0.8367   -3.5519 O   0  0  0  0  0  0  0  0  0  0  0  0
    1.9288   -0.5463    1.4242 H   0  0  0  0  0  0  0  0  0  0  0  0
    1.0586    1.2238    0.1412 H   0  0  0  0  0  0  0  0  0  0  0  0
   -1.5085    1.3306   -0.2220 H   0  0  0  0  0  0  0  0  0  0  0  0
   -1.6069   -0.2909    0.4355 H   0  0  0  0  0  0  0  0  0  0  0  0
    0.0073    0.4489   -2.0546 H   0  0  0  0  0  0  0  0  0  0  0  0
   -0.1612   -1.1593   -1.3649 H   0  0  0  0  0  0  0  0  0  0  0  0
   -1.0897    0.8169    2.6572 N   0  0  0  0  0  0  0  0  0  0  0  0
   -1.5936    1.3275    3.9110 C   0  0  2  0  0  0  0  0  0  0  0  0
   -2.4467    0.2411    4.5524 C   0  0  0  0  0  0  0  0  0  0  0  0
   -2.9641   -0.6714    3.9115 O   0  0  0  0  0  0  0  0  0  0  0  0
   -2.3991    2.6010    3.7061 C   0  0  0  0  0  0  0  0  0  0  0  0
   -1.5796    0.0335    2.2352 H   0  0  0  0  0  0  0  0  0  0  0  0
   -0.7222    1.5293    4.5434 H   0  0  0  0  0  0  0  0  0  0  0  0
   -3.2764    2.4185    3.0749 H   0  0  0  0  0  0  0  0  0  0  0  0
   -2.7562    3.0024    4.6603 H   0  0  0  0  0  0  0  0  0  0  0  0
   -1.7927    3.3714    3.2177 H   0  0  0  0  0  0  0  0  0  0  0  0
   -2.5979    0.4347    5.9184 N   0  0  0  0  0  0  0  0  0  0  0  0
   -3.3740   -0.4547    6.7507 C   0  0  0  0  0  0  0  0  0  0  0  0
   -2.1175    1.2076    6.3697 H   0  0  0  0  0  0  0  0  0  0  0  0
   -4.4061   -0.0814    6.8243 H   0  0  0  0  0  0  0  0  0  0  0  0
   -3.3790   -1.4611    6.3067 H   0  0  0  0  0  0  0  0  0  0  0  0
   -2.9278   -0.4993    7.7551 H   0  0  0  0  0  0  0  0  0  0  0  0
  1  3  1  0  0  0  0
  1  7  1  0  0  0  0
  1  2  2  0  0  0  0
 33 34  1  0  0  0  0
 34 42  1  0  0  0  0
 34 35  2  0  0  0  0
  8  9  1  0  0  0  0
  9 17  1  0  0  0  0
  9 10  2  0  0  0  0
 18 19  1  0  0  0  0
 19 32  1  0  0  0  0
 19 20  2  0  0  0  0
 22 23  1  0  0  0  0
 23 24  1  0  0  0  0
 23 25  2  0  0  0  0
 33 36  1  0  0  0  0
  8 11  1  0  0  0  0
 42 43  1  0  0  0  0
 21 22  1  0  0  0  0
 18 21  1  0  0  0  0
 32 33  1  0  0  0  0
  7  8  1  0  0  0  0
 17 18  1  0  0  0  0
  3  4  1  0  0  0  0
  3  5  1  0  0  0  0
  3  6  1  0  0  0  0
 36 39  1  0  0  0  0
 36 40  1  0  0  0  0
 36 41  1  0  0  0  0
 11 14  1  0  0  0  0
 11 15  1  0  0  0  0
 11 16  1  0  0  0  0
 43 45  1  0  0  0  0
 43 46  1  0  0  0  0
 43 47  1  0  0  0  0
 22 30  1  0  0  0  0
 22 31  1  0  0  0  0
 21 28  1  0  0  0  0
 21 29  1  0  0  0  0
 33 38  1  0  0  0  0
  8 13  1  0  0  0  0
 18 27  1  0  0  0  0
 42 44  1  0  0  0  0
  7 12  1  0  0  0  0
 32 37  1  0  0  0  0
 17 26  1  0  0  0  0
M  CHG  1  24  -1
M  END
$$$$

  -OEChem-05262214473D

 47 46  0     1  0  0  0  0  0999 V2000
    0.5093   -4.7265    3.0306 C   0  0  0  0  0  0  0  0  0  0  0  0
    1.2735   -4.4402    3.9448 O   0  0  0  0  0  0  0  0  0  0  0  0
   -0.4465   -5.8608    3.1982 C   0  0  0  0  0  0  0  0  0  0  0  0
   -0.0219   -6.8213    2.8645 H   0  0  0  0  0  0  0  0  0  0  0  0
   -0.7314   -6.0185    4.2509 H   0  0  0  0  0  0  0  0  0  0  0  0
   -1.3983   -5.7596    2.6527 H   0  0  0  0  0  0  0  0  0  0  0  0
    0.4252   -4.0886    1.8040 N   0  0  0  0  0  0  0  0  0  0  0  0
    1.2532   -2.9707    1.4349 C   0  0  2  0  0  0  0  0  0  0  0  0
    0.3395   -1.8293    1.0083 C   0  0  0  0  0  0  0  0  0  0  0  0
   -0.8136   -2.0027    0.6194 O   0  0  0  0  0  0  0  0  0  0  0  0
    2.2176   -3.3411    0.3189 C   0  0  0  0  0  0  0  0  0  0  0  0
   -0.2574   -4.4279    1.1287 H   0  0  0  0  0  0  0  0  0  0  0  0
    1.8087   -2.6785    2.3327 H   0  0  0  0  0  0  0  0  0  0  0  0
    1.6793   -3.6366   -0.5890 H   0  0  0  0  0  0  0  0  0  0  0  0
    2.8662   -2.4980    0.0589 H   0  0  0  0  0  0  0  0  0  0  0  0
    2.8538   -4.1816    0.6166 H   0  0  0  0  0  0  0  0  0  0  0  0
    0.9758   -0.5952    1.0708 N   0  0  0  0  0  0  0  0  0  0  0  0
    0.3258    0.6374    0.7059 C   0  0  2  0  0  0  0  0  0  0  0  0
   -0.0071    1.3797    1.9958 C   0  0  0  0  0  0  0  0  0  0  0  0
    0.4610    2.4819    2.2741 O   0  0  0  0  0  0  0  0  0  0  0  0
   -0.9472    0.3942   -0.1137 C   0  0  0  0  0  0  0  0  0  0  0  0
   -0.6777   -0.1998   -1.4956 C   0  0  0  0  0  0  0  0  0  0  0  0
   -1.9098   -0.4902   -2.3589 C   0  0  0  0  0  0  0  0  0  0  0  0
   -3.0130   -0.3293   -1.7618 O   0  5  0  0  0  0  0  0  0  0  0  0
   -1.6884   -0.8367   -3.5519 O   0  0  0  0  0  0  0  0  0  0  0  0
    1.9288   -0.5463    1.4242 H   0  0  0  0  0  0  0  0  0  0  0  0
    1.0586    1.2238    0.1412 H   0  0  0  0  0  0  0  0  0  0  0  0
   -1.5085    1.3306   -0.2220 H   0  0  0  0  0  0  0  0  0  0  0  0
   -1.6069   -0.2909    0.4355 H   0  0  0  0  0  0  0  0  0  0  0  0
    0.0073    0.4489   -2.0546 H   0  0  0  0  0  0  0  0  0  0  0  0
   -0.1612   -1.1593   -1.3649 H   0  0  0  0  0  0  0  0  0  0  0  0
   -0.8502    0.6450    2.8179 N   0  0  0  0  0  0  0  0  0  0  0  0
   -1.3012    1.1223    4.1045 C   0  0  2  0  0  0  0  0  0  0  0  0
   -1.8081   -0.0742    4.8987 C   0  0  0  0  0  0  0  0  0  0  0  0
   -2.1824   -1.1196    4.3712 O   0  0  0  0  0  0  0  0  0  0  0  0
   -2.3885    2.1749    3.9541 C   0  0  0  0  0  0  0  0  0  0  0  0
   -1.2003   -0.2532    2.4981 H   0  0  0  0  0  0  0  0  0  0  0  0
   -0.4273    1.5511    4.6069 H   0  0  0  0  0  0  0  0  0  0  0  0
   -3.2723    1.7637    3.4528 H   0  0  0  0  0  0  0  0  0  0  0  0
   -2.7091    2.5563    4.9292 H   0  0  0  0  0  0  0  0  0  0  0  0
   -2.0317    3.0214    3.3575 H   0  0  0  0  0  0  0  0  0  0  0  0
   -1.8340    0.1781    6.2632 N   0  0  0  0  0  0  0  0  0  0  0  0
   -2.2873   -0.7965    7.2278 C   0  0  0  0  0  0  0  0  0  0  0  0
   -1.4872    1.0661    6.6138 H   0  0  0  0  0  0  0  0  0  0  0  0
   -3.3602   -0.6500    7.4215 H   0  0  0  0  0  0  0  0  0  0  0  0
   -2.1214   -1.8092    6.8315 H   0  0  0  0  0  0  0  0  0  0  0  0
   -1.7255   -0.6731    8.1654 H   0  0  0  0  0  0  0  0  0  0  0  0
  1  3  1  0  0  0  0
  1  7  1  0  0  0  0
  1  2  2  0  0  0  0
 33 34  1  0  0  0  0
 34 42  1  0  0  0  0
 34 35  2  0  0  0  0
  8  9  1  0  0  0  0
  9 17  1  0  0  0  0
  9 10  2  0  0  0  0
 18 19  1  0  0  0  0
 19 32  1  0  0  0  0
 19 20  2  0  0  0  0
 22 23  1  0  0  0  0
 23 24  1  0  0  0  0
 23 25  2  0  0  0  0
 33 36  1  0  0  0  0
  8 11  1  0  0  0  0
 42 43  1  0  0  0  0
 21 22  1  0  0  0  0
 18 21  1  0  0  0  0
 32 33  1  0  0  0  0
  7  8  1  0  0  0  0
 17 18  1  0  0  0  0
  3  4  1  0  0  0  0
  3  5  1  0  0  0  0
  3  6  1  0  0  0  0
 36 39  1  0  0  0  0
 36 40  1  0  0  0  0
 36 41  1  0  0  0  0
 11 14  1  0  0  0  0
 11 15  1  0  0  0  0
 11 16  1  0  0  0  0
 43 45  1  0  0  0  0
 43 46  1  0  0  0  0
 43 47  1  0  0  0  0
 22 30  1  0  0  0  0
 22 31  1  0  0  0  0
 21 28  1  0  0  0  0
 21 29  1  0  0  0  0
 33 38  1  0  0  0  0
  8 13  1  0  0  0  0
 18 27  1  0  0  0  0
 42 44  1  0  0  0  0
  7 12  1  0  0  0  0
 32 37  1  0  0  0  0
 17 26  1  0  0  0  0
M  CHG  1  24  -1
M  END
$$$$

  -OEChem-05262214473D

 47 46  0     1  0  0  0  0  0999 V2000
    0.5093   -4.7265    3.0306 C   0  0  0  0  0  0  0  0  0  0  0  0
    1.2735   -4.4402    3.9448 O   0  0  0  0  0  0  0  0  0  0  0  0
   -0.4465   -5.8608    3.1982 C   0  0  0  0  0  0  0  0  0  0  0  0
   -0.0219   -6.8213    2.8645 H   0  0  0  0  0  0  0  0  0  0  0  0
   -0.7314   -6.0185    4.2509 H   0  0  0  0  0  0  0  0  0  0  0  0
   -1.3983   -5.7596    2.6527 H   0  0  0  0  0  0  0  0  0  0  0  0
    0.4252   -4.0886    1.8040 N   0  0  0  0  0  0  0  0  0  0  0  0
    1.2532   -2.9707    1.4349 C   0  0  2  0  0  0  0  0  0  0  0  0
    0.3395   -1.8293    1.0083 C   0  0  0  0  0  0  0  0  0  0  0  0
   -0.8136   -2.0027    0.6194 O   0  0  0  0  0  0  0  0  0  0  0  0
    2.2176   -3.3411    0.3189 C   0  0  0  0  0  0  0  0  0  0  0  0
   -0.2574   -4.4279    1.1287 H   0  0  0  0  0  0  0  0  0  0  0  0
    1.8087   -2.6785    2.3327 H   0  0  0  0  0  0  0  0  0  0  0  0
    1.6793   -3.6366   -0.5890 H   0  0  0  0  0  0  0  0  0  0  0  0
    2.8662   -2.4980    0.0589 H   0  0  0  0  0  0  0  0  0  0  0  0
    2.8538   -4.1816    0.6166 H   0  0  0  0  0  0  0  0  0  0  0  0
    0.9758   -0.5952    1.0708 N   0  0  0  0  0  0  0  0  0  0  0  0
    0.3258    0.6374    0.7059 C   0  0  2  0  0  0  0  0  0  0  0  0
   -0.0071    1.3797    1.9958 C   0  0  0  0  0  0  0  0  0  0  0  0
    0.2338    2.5736    2.1627 O   0  0  0  0  0  0  0  0  0  0  0  0
   -0.9472    0.3942   -0.1137 C   0  0  0  0  0  0  0  0  0  0  0  0
   -0.6777   -0.1998   -1.4956 C   0  0  0  0  0  0  0  0  0  0  0  0
   -1.9098   -0.4902   -2.3589 C   0  0  0  0  0  0  0  0  0  0  0  0
   -3.0130   -0.3293   -1.7618 O   0  5  0  0  0  0  0  0  0  0  0  0
   -1.6884   -0.8367   -3.5519 O   0  0  0  0  0  0  0  0  0  0  0  0
    1.9288   -0.5463    1.4242 H   0  0  0  0  0  0  0  0  0  0  0  0
    1.0586    1.2238    0.1412 H   0  0  0  0  0  0  0  0  0  0  0  0
   -1.5085    1.3306   -0.2220 H   0  0  0  0  0  0  0  0  0  0  0  0
   -1.6069   -0.2909    0.4355 H   0  0  0  0  0  0  0  0  0  0  0  0
    0.0073    0.4489   -2.0546 H   0  0  0  0  0  0  0  0  0  0  0  0
   -0.1612   -1.1593   -1.3649 H   0  0  0  0  0  0  0  0  0  0  0  0
   -0.5609    0.5406    2.9526 N   0  0  0  0  0  0  0  0  0  0  0  0
   -0.9495    0.9991    4.2662 C   0  0  2  0  0  0  0  0  0  0  0  0
   -1.0786   -0.2195    5.1705 C   0  0  0  0  0  0  0  0  0  0  0  0
   -1.2713   -1.3554    4.7420 O   0  0  0  0  0  0  0  0  0  0  0  0
   -2.2538    1.7796    4.2164 C   0  0  0  0  0  0  0  0  0  0  0  0
   -0.7381   -0.4322    2.7204 H   0  0  0  0  0  0  0  0  0  0  0  0
   -0.1392    1.6403    4.6299 H   0  0  0  0  0  0  0  0  0  0  0  0
   -3.0774    1.1535    3.8543 H   0  0  0  0  0  0  0  0  0  0  0  0
   -2.5321    2.1508    5.2082 H   0  0  0  0  0  0  0  0  0  0  0  0
   -2.1683    2.6388    3.5424 H   0  0  0  0  0  0  0  0  0  0  0  0
   -0.9965    0.1169    6.5145 N   0  0  0  0  0  0  0  0  0  0  0  0
   -1.1028   -0.8619    7.5711 C   0  0  0  0  0  0  0  0  0  0  0  0
   -0.8166    1.0813    6.7781 H   0  0  0  0  0  0  0  0  0  0  0  0
   -2.1502   -0.9365    7.8986 H   0  0  0  0  0  0  0  0  0  0  0  0
   -0.7643   -1.8404    7.1997 H   0  0  0  0  0  0  0  0  0  0  0  0
   -0.4744   -0.5546    8.4201 H   0  0  0  0  0  0  0  0  0  0  0  0
  1  3  1  0  0  0  0
  1  7  1  0  0  0  0
  1  2  2  0  0  0  0
 33 34  1  0  0  0  0
 34 42  1  0  0  0  0
 34 35  2  0  0  0  0
  8  9  1  0  0  0  0
  9 17  1  0  0  0  0
  9 10  2  0  0  0  0
 18 19  1  0  0  0  0
 19 32  1  0  0  0  0
 19 20  2  0  0  0  0
 22 23  1  0  0  0  0
 23 24  1  0  0  0  0
 23 25  2  0  0  0  0
 33 36  1  0  0  0  0
  8 11  1  0  0  0  0
 42 43  1  0  0  0  0
 21 22  1  0  0  0  0
 18 21  1  0  0  0  0
 32 33  1  0  0  0  0
  7  8  1  0  0  0  0
 17 18  1  0  0  0  0
  3  4  1  0  0  0  0
  3  5  1  0  0  0  0
  3  6  1  0  0  0  0
 36 39  1  0  0  0  0
 36 40  1  0  0  0  0
 36 41  1  0  0  0  0
 11 14  1  0  0  0  0
 11 15  1  0  0  0  0
 11 16  1  0  0  0  0
 43 45  1  0  0  0  0
 43 46  1  0  0  0  0
 43 47  1  0  0  0  0
 22 30  1  0  0  0  0
 22 31  1  0  0  0  0
 21 28  1  0  0  0  0
 21 29  1  0  0  0  0
 33 38  1  0  0  0  0
  8 13  1  0  0  0  0
 18 27  1  0  0  0  0
 42 44  1  0  0  0  0
  7 12  1  0  0  0  0
 32 37  1  0  0  0  0
 17 26  1  0  0  0  0
M  CHG  1  24  -1
M  END
$$$$

  -OEChem-05262214473D

 47 46  0     1  0  0  0  0  0999 V2000
    0.5093   -4.7265    3.0306 C   0  0  0  0  0  0  0  0  0  0  0  0
    1.2735   -4.4402    3.9448 O   0  0  0  0  0  0  0  0  0  0  0  0
   -0.4465   -5.8608    3.1982 C   0  0  0  0  0  0  0  0  0  0  0  0
   -0.0219   -6.8213    2.8645 H   0  0  0  0  0  0  0  0  0  0  0  0
   -0.7314   -6.0185    4.2509 H   0  0  0  0  0  0  0  0  0  0  0  0
   -1.3983   -5.7596    2.6527 H   0  0  0  0  0  0  0  0  0  0  0  0
    0.4252   -4.0886    1.8040 N   0  0  0  0  0  0  0  0  0  0  0  0
    1.2532   -2.9707    1.4349 C   0  0  2  0  0  0  0  0  0  0  0  0
    0.3395   -1.8293    1.0083 C   0  0  0  0  0  0  0  0  0  0  0  0
   -0.8136   -2.0027    0.6194 O   0  0  0  0  0  0  0  0  0  0  0  0
    2.2176   -3.3411    0.3189 C   0  0  0  0  0  0  0  0  0  0  0  0
   -0.2574   -4.4279    1.1287 H   0  0  0  0  0  0  0  0  0  0  0  0
    1.8087   -2.6785    2.3327 H   0  0  0  0  0  0  0  0  0  0  0  0
    1.6793   -3.6366   -0.5890 H   0  0  0  0  0  0  0  0  0  0  0  0
    2.8662   -2.4980    0.0589 H   0  0  0  0  0  0  0  0  0  0  0  0
    2.8538   -4.1816    0.6166 H   0  0  0  0  0  0  0  0  0  0  0  0
    0.9758   -0.5952    1.0708 N   0  0  0  0  0  0  0  0  0  0  0  0
    0.3258    0.6374    0.7059 C   0  0  2  0  0  0  0  0  0  0  0  0
   -0.0071    1.3797    1.9958 C   0  0  0  0  0  0  0  0  0  0  0  0
   -0.0197    2.6062    2.0785 O   0  0  0  0  0  0  0  0  0  0  0  0
   -0.9472    0.3942   -0.1137 C   0  0  0  0  0  0  0  0  0  0  0  0
   -0.6777   -0.1998   -1.4956 C   0  0  0  0  0  0  0  0  0  0  0  0
   -1.9098   -0.4902   -2.3589 C   0  0  0  0  0  0  0  0  0  0  0  0
   -3.0130   -0.3293   -1.7618 O   0  5  0  0  0  0  0  0  0  0  0  0
   -1.6884   -0.8367   -3.5519 O   0  0  0  0  0  0  0  0  0  0  0  0
    1.9288   -0.5463    1.4242 H   0  0  0  0  0  0  0  0  0  0  0  0
    1.0586    1.2238    0.1412 H   0  0  0  0  0  0  0  0  0  0  0  0
   -1.5085    1.3306   -0.2220 H   0  0  0  0  0  0  0  0  0  0  0  0
   -1.6069   -0.2909    0.4355 H   0  0  0  0  0  0  0  0  0  0  0  0
    0.0073    0.4489   -2.0546 H   0  0  0  0  0  0  0  0  0  0  0  0
   -0.1612   -1.1593   -1.3649 H   0  0  0  0  0  0  0  0  0  0  0  0
   -0.2417    0.5106    3.0522 N   0  0  0  0  0  0  0  0  0  0  0  0
   -0.5625    0.9662    4.3850 C   0  0  2  0  0  0  0  0  0  0  0  0
   -0.3080   -0.1847    5.3494 C   0  0  0  0  0  0  0  0  0  0  0  0
   -0.2929   -1.3628    4.9988 O   0  0  0  0  0  0  0  0  0  0  0  0
   -2.0040    1.4421    4.4751 C   0  0  0  0  0  0  0  0  0  0  0  0
   -0.2244   -0.4914    2.8870 H   0  0  0  0  0  0  0  0  0  0  0  0
    0.1224    1.7908    4.6108 H   0  0  0  0  0  0  0  0  0  0  0  0
   -2.7049    0.6295    4.2520 H   0  0  0  0  0  0  0  0  0  0  0  0
   -2.2373    1.8137    5.4784 H   0  0  0  0  0  0  0  0  0  0  0  0
   -2.1932    2.2498    3.7598 H   0  0  0  0  0  0  0  0  0  0  0  0
   -0.1425    0.2554    6.6552 N   0  0  0  0  0  0  0  0  0  0  0  0
    0.0990   -0.6464    7.7572 C   0  0  0  0  0  0  0  0  0  0  0  0
   -0.1514    1.2520    6.8515 H   0  0  0  0  0  0  0  0  0  0  0  0
   -0.8587   -0.9214    8.2232 H   0  0  0  0  0  0  0  0  0  0  0  0
    0.5998   -1.5528    7.3861 H   0  0  0  0  0  0  0  0  0  0  0  0
    0.7403   -0.1519    8.5017 H   0  0  0  0  0  0  0  0  0  0  0  0
  1  3  1  0  0  0  0
  1  7  1  0  0  0  0
  1  2  2  0  0  0  0
 33 34  1  0  0  0  0
 34 42  1  0  0  0  0
 34 35  2  0  0  0  0
  8  9  1  0  0  0  0
  9 17  1  0  0  0  0
  9 10  2  0  0  0  0
 18 19  1  0  0  0  0
 19 32  1  0  0  0  0
 19 20  2  0  0  0  0
 22 23  1  0  0  0  0
 23 24  1  0  0  0  0
 23 25  2  0  0  0  0
 33 36  1  0  0  0  0
  8 11  1  0  0  0  0
 42 43  1  0  0  0  0
 21 22  1  0  0  0  0
 18 21  1  0  0  0  0
 32 33  1  0  0  0  0
  7  8  1  0  0  0  0
 17 18  1  0  0  0  0
  3  4  1  0  0  0  0
  3  5  1  0  0  0  0
  3  6  1  0  0  0  0
 36 39  1  0  0  0  0
 36 40  1  0  0  0  0
 36 41  1  0  0  0  0
 11 14  1  0  0  0  0
 11 15  1  0  0  0  0
 11 16  1  0  0  0  0
 43 45  1  0  0  0  0
 43 46  1  0  0  0  0
 43 47  1  0  0  0  0
 22 30  1  0  0  0  0
 22 31  1  0  0  0  0
 21 28  1  0  0  0  0
 21 29  1  0  0  0  0
 33 38  1  0  0  0  0
  8 13  1  0  0  0  0
 18 27  1  0  0  0  0
 42 44  1  0  0  0  0
  7 12  1  0  0  0  0
 32 37  1  0  0  0  0
 17 26  1  0  0  0  0
M  CHG  1  24  -1
M  END
$$$$

  -OEChem-05262214473D

 47 46  0     1  0  0  0  0  0999 V2000
    0.5093   -4.7265    3.0306 C   0  0  0  0  0  0  0  0  0  0  0  0
    1.2735   -4.4402    3.9448 O   0  0  0  0  0  0  0  0  0  0  0  0
   -0.4465   -5.8608    3.1982 C   0  0  0  0  0  0  0  0  0  0  0  0
   -0.0219   -6.8213    2.8645 H   0  0  0  0  0  0  0  0  0  0  0  0
   -0.7314   -6.0185    4.2509 H   0  0  0  0  0  0  0  0  0  0  0  0
   -1.3983   -5.7596    2.6527 H   0  0  0  0  0  0  0  0  0  0  0  0
    0.4252   -4.0886    1.8040 N   0  0  0  0  0  0  0  0  0  0  0  0
    1.2532   -2.9707    1.4349 C   0  0  2  0  0  0  0  0  0  0  0  0
    0.3395   -1.8293    1.0083 C   0  0  0  0  0  0  0  0  0  0  0  0
   -0.8136   -2.0027    0.6194 O   0  0  0  0  0  0  0  0  0  0  0  0
    2.2176   -3.3411    0.3189 C   0  0  0  0  0  0  0  0  0  0  0  0
   -0.2574   -4.4279    1.1287 H   0  0  0  0  0  0  0  0  0  0  0  0
    1.8087   -2.6785    2.3327 H   0  0  0  0  0  0  0  0  0  0  0  0
    1.6793   -3.6366   -0.5890 H   0  0  0  0  0  0  0  0  0  0  0  0
    2.8662   -2.4980    0.0589 H   0  0  0  0  0  0  0  0  0  0  0  0
    2.8538   -4.1816    0.6166 H   0  0  0  0  0  0  0  0  0  0  0  0
    0.9758   -0.5952    1.0708 N   0  0  0  0  0  0  0  0  0  0  0  0
    0.3258    0.6374    0.7059 C   0  0  2  0  0  0  0  0  0  0  0  0
   -0.0071    1.3797    1.9958 C   0  0  0  0  0  0  0  0  0  0  0  0
   -0.2823    2.5775    2.0273 O   0  0  0  0  0  0  0  0  0  0  0  0
   -0.9472    0.3942   -0.1137 C   0  0  0  0  0  0  0  0  0  0  0  0
   -0.6777   -0.1998   -1.4956 C   0  0  0  0  0  0  0  0  0  0  0  0
   -1.9098   -0.4902   -2.3589 C   0  0  0  0  0  0  0  0  0  0  0  0
   -3.0130   -0.3293   -1.7618 O   0  5  0  0  0  0  0  0  0  0  0  0
   -1.6884   -0.8367   -3.5519 O   0  0  0  0  0  0  0  0  0  0  0  0
    1.9288   -0.5463    1.4242 H   0  0  0  0  0  0  0  0  0  0  0  0
    1.0586    1.2238    0.1412 H   0  0  0  0  0  0  0  0  0  0  0  0
   -1.5085    1.3306   -0.2220 H   0  0  0  0  0  0  0  0  0  0  0  0
   -1.6069   -0.2909    0.4355 H   0  0  0  0  0  0  0  0  0  0  0  0
    0.0073    0.4489   -2.0546 H   0  0  0  0  0  0  0  0  0  0  0  0
   -0.1612   -1.1593   -1.3649 H   0  0  0  0  0  0  0  0  0  0  0  0
    0.0858    0.5572    3.1099 N   0  0  0  0  0  0  0  0  0  0  0  0
   -0.1664    1.0259    4.4529 C   0  0  2  0  0  0  0  0  0  0  0  0
    0.4514    0.0276    5.4231 C   0  0  0  0  0  0  0  0  0  0  0  0
    0.6862   -1.1413    5.1239 O   0  0  0  0  0  0  0  0  0  0  0  0
   -1.6563    1.1854    4.7125 C   0  0  0  0  0  0  0  0  0  0  0  0
    0.3057   -0.4267    2.9865 H   0  0  0  0  0  0  0  0  0  0  0  0
    0.3397    1.9924    4.5508 H   0  0  0  0  0  0  0  0  0  0  0  0
   -2.1804    0.2272    4.6189 H   0  0  0  0  0  0  0  0  0  0  0  0
   -1.8446    1.5678    5.7212 H   0  0  0  0  0  0  0  0  0  0  0  0
   -2.1047    1.8810    3.9949 H   0  0  0  0  0  0  0  0  0  0  0  0
    0.6699    0.5841    6.6756 N   0  0  0  0  0  0  0  0  0  0  0  0
    1.2361   -0.1646    7.7733 C   0  0  0  0  0  0  0  0  0  0  0  0
    0.4629    1.5666    6.8289 H   0  0  0  0  0  0  0  0  0  0  0  0
    0.4265   -0.6058    8.3731 H   0  0  0  0  0  0  0  0  0  0  0  0
    1.8779   -0.9658    7.3781 H   0  0  0  0  0  0  0  0  0  0  0  0
    1.8356    0.5076    8.4048 H   0  0  0  0  0  0  0  0  0  0  0  0
  1  3  1  0  0  0  0
  1  7  1  0  0  0  0
  1  2  2  0  0  0  0
 33 34  1  0  0  0  0
 34 42  1  0  0  0  0
 34 35  2  0  0  0  0
  8  9  1  0  0  0  0
  9 17  1  0  0  0  0
  9 10  2  0  0  0  0
 18 19  1  0  0  0  0
 19 32  1  0  0  0  0
 19 20  2  0  0  0  0
 22 23  1  0  0  0  0
 23 24  1  0  0  0  0
 23 25  2  0  0  0  0
 33 36  1  0  0  0  0
  8 11  1  0  0  0  0
 42 43  1  0  0  0  0
 21 22  1  0  0  0  0
 18 21  1  0  0  0  0
 32 33  1  0  0  0  0
  7  8  1  0  0  0  0
 17 18  1  0  0  0  0
  3  4  1  0  0  0  0
  3  5  1  0  0  0  0
  3  6  1  0  0  0  0
 36 39  1  0  0  0  0
 36 40  1  0  0  0  0
 36 41  1  0  0  0  0
 11 14  1  0  0  0  0
 11 15  1  0  0  0  0
 11 16  1  0  0  0  0
 43 45  1  0  0  0  0
 43 46  1  0  0  0  0
 43 47  1  0  0  0  0
 22 30  1  0  0  0  0
 22 31  1  0  0  0  0
 21 28  1  0  0  0  0
 21 29  1  0  0  0  0
 33 38  1  0  0  0  0
  8 13  1  0  0  0  0
 18 27  1  0  0  0  0
 42 44  1  0  0  0  0
  7 12  1  0  0  0  0
 32 37  1  0  0  0  0
 17 26  1  0  0  0  0
M  CHG  1  24  -1
M  END
$$$$

  -OEChem-05262214473D

 47 46  0     1  0  0  0  0  0999 V2000
    0.5093   -4.7265    3.0306 C   0  0  0  0  0  0  0  0  0  0  0  0
    1.2735   -4.4402    3.9448 O   0  0  0  0  0  0  0  0  0  0  0  0
   -0.4465   -5.8608    3.1982 C   0  0  0  0  0  0  0  0  0  0  0  0
   -0.0219   -6.8213    2.8645 H   0  0  0  0  0  0  0  0  0  0  0  0
   -0.7314   -6.0185    4.2509 H   0  0  0  0  0  0  0  0  0  0  0  0
   -1.3983   -5.7596    2.6527 H   0  0  0  0  0  0  0  0  0  0  0  0
    0.4252   -4.0886    1.8040 N   0  0  0  0  0  0  0  0  0  0  0  0
    1.2532   -2.9707    1.4349 C   0  0  2  0  0  0  0  0  0  0  0  0
    0.3395   -1.8293    1.0083 C   0  0  0  0  0  0  0  0  0  0  0  0
   -0.8136   -2.0027    0.6194 O   0  0  0  0  0  0  0  0  0  0  0  0
    2.2176   -3.3411    0.3189 C   0  0  0  0  0  0  0  0  0  0  0  0
   -0.2574   -4.4279    1.1287 H   0  0  0  0  0  0  0  0  0  0  0  0
    1.8087   -2.6785    2.3327 H   0  0  0  0  0  0  0  0  0  0  0  0
    1.6793   -3.6366   -0.5890 H   0  0  0  0  0  0  0  0  0  0  0  0
    2.8662   -2.4980    0.0589 H   0  0  0  0  0  0  0  0  0  0  0  0
    2.8538   -4.1816    0.6166 H   0  0  0  0  0  0  0  0  0  0  0  0
    0.9758   -0.5952    1.0708 N   0  0  0  0  0  0  0  0  0  0  0  0
    0.3258    0.6374    0.7059 C   0  0  2  0  0  0  0  0  0  0  0  0
   -0.0071    1.3797    1.9958 C   0  0  0  0  0  0  0  0  0  0  0  0
   -0.5361    2.4893    2.0126 O   0  0  0  0  0  0  0  0  0  0  0  0
   -0.9472    0.3942   -0.1137 C   0  0  0  0  0  0  0  0  0  0  0  0
   -0.6777   -0.1998   -1.4956 C   0  0  0  0  0  0  0  0  0  0  0  0
   -1.9098   -0.4902   -2.3589 C   0  0  0  0  0  0  0  0  0  0  0  0
   -3.0130   -0.3293   -1.7618 O   0  5  0  0  0  0  0  0  0  0  0  0
   -1.6884   -0.8367   -3.5519 O   0  0  0  0  0  0  0  0  0  0  0  0
    1.9288   -0.5463    1.4242 H   0  0  0  0  0  0  0  0  0  0  0  0
    1.0586    1.2238    0.1412 H   0  0  0  0  0  0  0  0  0  0  0  0
   -1.5085    1.3306   -0.2220 H   0  0  0  0  0  0  0  0  0  0  0  0
   -1.6069   -0.2909    0.4355 H   0  0  0  0  0  0  0  0  0  0  0  0
    0.0073    0.4489   -2.0546 H   0  0  0  0  0  0  0  0  0  0  0  0
   -0.1612   -1.1593   -1.3649 H   0  0  0  0  0  0  0  0  0  0  0  0
    0.3992    0.6772    3.1217 N   0  0  0  0  0  0  0  0  0  0  0  0
    0.2116    1.1740    4.4651 C   0  0  2  0  0  0  0  0  0  0  0  0
    1.1477    0.4032    5.3866 C   0  0  0  0  0  0  0  0  0  0  0  0
    1.5991   -0.7059    5.1089 O   0  0  0  0  0  0  0  0  0  0  0  0
   -1.2344    1.0270    4.9126 C   0  0  0  0  0  0  0  0  0  0  0  0
    0.8161   -0.2425    3.0123 H   0  0  0  0  0  0  0  0  0  0  0  0
    0.4979    2.2313    4.4542 H   0  0  0  0  0  0  0  0  0  0  0  0
   -1.5394   -0.0257    4.9299 H   0  0  0  0  0  0  0  0  0  0  0  0
   -1.3809    1.4300    5.9201 H   0  0  0  0  0  0  0  0  0  0  0  0
   -1.9089    1.5573    4.2318 H   0  0  0  0  0  0  0  0  0  0  0  0
    1.3852    1.0805    6.5745 N   0  0  0  0  0  0  0  0  0  0  0  0
    2.2310    0.5506    7.6184 C   0  0  0  0  0  0  0  0  0  0  0  0
    0.9846    2.0038    6.7119 H   0  0  0  0  0  0  0  0  0  0  0  0
    1.6176   -0.0111    8.3383 H   0  0  0  0  0  0  0  0  0  0  0  0
    2.9830   -0.1194    7.1761 H   0  0  0  0  0  0  0  0  0  0  0  0
    2.7371    1.3789    8.1359 H   0  0  0  0  0  0  0  0  0  0  0  0
  1  3  1  0  0  0  0
  1  7  1  0  0  0  0
  1  2  2  0  0  0  0
 33 34  1  0  0  0  0
 34 42  1  0  0  0  0
 34 35  2  0  0  0  0
  8  9  1  0  0  0  0
  9 17  1  0  0  0  0
  9 10  2  0  0  0  0
 18 19  1  0  0  0  0
 19 32  1  0  0  0  0
 19 20  2  0  0  0  0
 22 23  1  0  0  0  0
 23 24  1  0  0  0  0
 23 25  2  0  0  0  0
 33 36  1  0  0  0  0
  8 11  1  0  0  0  0
 42 43  1  0  0  0  0
 21 22  1  0  0  0  0
 18 21  1  0  0  0  0
 32 33  1  0  0  0  0
  7  8  1  0  0  0  0
 17 18  1  0  0  0  0
  3  4  1  0  0  0  0
  3  5  1  0  0  0  0
  3  6  1  0  0  0  0
 36 39  1  0  0  0  0
 36 40  1  0  0  0  0
 36 41  1  0  0  0  0
 11 14  1  0  0  0  0
 11 15  1  0  0  0  0
 11 16  1  0  0  0  0
 43 45  1  0  0  0  0
 43 46  1  0  0  0  0
 43 47  1  0  0  0  0
 22 30  1  0  0  0  0
 22 31  1  0  0  0  0
 21 28  1  0  0  0  0
 21 29  1  0  0  0  0
 33 38  1  0  0  0  0
  8 13  1  0  0  0  0
 18 27  1  0  0  0  0
 42 44  1  0  0  0  0
  7 12  1  0  0  0  0
 32 37  1  0  0  0  0
 17 26  1  0  0  0  0
M  CHG  1  24  -1
M  END
$$$$

  -OEChem-05262214473D

 47 46  0     1  0  0  0  0  0999 V2000
    0.5093   -4.7265    3.0306 C   0  0  0  0  0  0  0  0  0  0  0  0
    1.2735   -4.4402    3.9448 O   0  0  0  0  0  0  0  0  0  0  0  0
   -0.4465   -5.8608    3.1982 C   0  0  0  0  0  0  0  0  0  0  0  0
   -0.0219   -6.8213    2.8645 H   0  0  0  0  0  0  0  0  0  0  0  0
   -0.7314   -6.0185    4.2509 H   0  0  0  0  0  0  0  0  0  0  0  0
   -1.3983   -5.7596    2.6527 H   0  0  0  0  0  0  0  0  0  0  0  0
    0.4252   -4.0886    1.8040 N   0  0  0  0  0  0  0  0  0  0  0  0
    1.2532   -2.9707    1.4349 C   0  0  2  0  0  0  0  0  0  0  0  0
    0.3395   -1.8293    1.0083 C   0  0  0  0  0  0  0  0  0  0  0  0
   -0.8136   -2.0027    0.6194 O   0  0  0  0  0  0  0  0  0  0  0  0
    2.2176   -3.3411    0.3189 C   0  0  0  0  0  0  0  0  0  0  0  0
   -0.2574   -4.4279    1.1287 H   0  0  0  0  0  0  0  0  0  0  0  0
    1.8087   -2.6785    2.3327 H   0  0  0  0  0  0  0  0  0  0  0  0
    1.6793   -3.6366   -0.5890 H   0  0  0  0  0  0  0  0  0  0  0  0
    2.8662   -2.4980    0.0589 H   0  0  0  0  0  0  0  0  0  0  0  0
    2.8538   -4.1816    0.6166 H   0  0  0  0  0  0  0  0  0  0  0  0
    0.9758   -0.5952    1.0708 N   0  0  0  0  0  0  0  0  0  0  0  0
    0.3258    0.6374    0.7059 C   0  0  2  0  0  0  0  0  0  0  0  0
   -0.0071    1.3797    1.9958 C   0  0  0  0  0  0  0  0  0  0  0  0
   -0.7639    2.3477    2.0353 O   0  0  0  0  0  0  0  0  0  0  0  0
   -0.9472    0.3942   -0.1137 C   0  0  0  0  0  0  0  0  0  0  0  0
   -0.6777   -0.1998   -1.4956 C   0  0  0  0  0  0  0  0  0  0  0  0
   -1.9098   -0.4902   -2.3589 C   0  0  0  0  0  0  0  0  0  0  0  0
   -3.0130   -0.3293   -1.7618 O   0  5  0  0  0  0  0  0  0  0  0  0
   -1.6884   -0.8367   -3.5519 O   0  0  0  0  0  0  0  0  0  0  0  0
    1.9288   -0.5463    1.4242 H   0  0  0  0  0  0  0  0  0  0  0  0
    1.0586    1.2238    0.1412 H   0  0  0  0  0  0  0  0  0  0  0  0
   -1.5085    1.3306   -0.2220 H   0  0  0  0  0  0  0  0  0  0  0  0
   -1.6069   -0.2909    0.4355 H   0  0  0  0  0  0  0  0  0  0  0  0
    0.0073    0.4489   -2.0546 H   0  0  0  0  0  0  0  0  0  0  0  0
   -0.1612   -1.1593   -1.3649 H   0  0  0  0  0  0  0  0  0  0  0  0
    0.6771    0.8623    3.0869 N   0  0  0  0  0  0  0  0  0  0  0  0
    0.5459    1.4006    4.4210 C   0  0  2  0  0  0  0  0  0  0  0  0
    1.7334    0.9163    5.2424 C   0  0  0  0  0  0  0  0  0  0  0  0
    2.3838   -0.0864    4.9548 O   0  0  0  0  0  0  0  0  0  0  0  0
   -0.7669    0.9776    5.0617 C   0  0  0  0  0  0  0  0  0  0  0  0
    1.2721    0.0486    2.9624 H   0  0  0  0  0  0  0  0  0  0  0  0
    0.5863    2.4913    4.3274 H   0  0  0  0  0  0  0  0  0  0  0  0
   -0.8257   -0.1122    5.1638 H   0  0  0  0  0  0  0  0  0  0  0  0
   -0.8777    1.4097    6.0617 H   0  0  0  0  0  0  0  0  0  0  0  0
   -1.6190    1.3009    4.4541 H   0  0  0  0  0  0  0  0  0  0  0  0
    1.9546    1.7109    6.3586 N   0  0  0  0  0  0  0  0  0  0  0  0
    3.0159    1.4505    7.3030 C   0  0  0  0  0  0  0  0  0  0  0  0
    1.3781    2.5336    6.5085 H   0  0  0  0  0  0  0  0  0  0  0  0
    2.6336    0.8221    8.1209 H   0  0  0  0  0  0  0  0  0  0  0  0
    3.8396    0.9286    6.7940 H   0  0  0  0  0  0  0  0  0  0  0  0
    3.3832    2.4027    7.7134 H   0  0  0  0  0  0  0  0  0  0  0  0
  1  3  1  0  0  0  0
  1  7  1  0  0  0  0
  1  2  2  0  0  0  0
 33 34  1  0  0  0  0
 34 42  1  0  0  0  0
 34 35  2  0  0  0  0
  8  9  1  0  0  0  0
  9 17  1  0  0  0  0
  9 10  2  0  0  0  0
 18 19  1  0  0  0  0
 19 32  1  0  0  0  0
 19 20  2  0  0  0  0
 22 23  1  0  0  0  0
 23 24  1  0  0  0  0
 23 25  2  0  0  0  0
 33 36  1  0  0  0  0
  8 11  1  0  0  0  0
 42 43  1  0  0  0  0
 21 22  1  0  0  0  0
 18 21  1  0  0  0  0
 32 33  1  0  0  0  0
  7  8  1  0  0  0  0
 17 18  1  0  0  0  0
  3  4  1  0  0  0  0
  3  5  1  0  0  0  0
  3  6  1  0  0  0  0
 36 39  1  0  0  0  0
 36 40  1  0  0  0  0
 36 41  1  0  0  0  0
 11 14  1  0  0  0  0
 11 15  1  0  0  0  0
 11 16  1  0  0  0  0
 43 45  1  0  0  0  0
 43 46  1  0  0  0  0
 43 47  1  0  0  0  0
 22 30  1  0  0  0  0
 22 31  1  0  0  0  0
 21 28  1  0  0  0  0
 21 29  1  0  0  0  0
 33 38  1  0  0  0  0
  8 13  1  0  0  0  0
 18 27  1  0  0  0  0
 42 44  1  0  0  0  0
  7 12  1  0  0  0  0
 32 37  1  0  0  0  0
 17 26  1  0  0  0  0
M  CHG  1  24  -1
M  END
$$$$

  -OEChem-05262214473D

 47 46  0     1  0  0  0  0  0999 V2000
    0.5093   -4.7265    3.0306 C   0  0  0  0  0  0  0  0  0  0  0  0
    1.2735   -4.4402    3.9448 O   0  0  0  0  0  0  0  0  0  0  0  0
   -0.4465   -5.8608    3.1982 C   0  0  0  0  0  0  0  0  0  0  0  0
   -0.0219   -6.8213    2.8645 H   0  0  0  0  0  0  0  0  0  0  0  0
   -0.7314   -6.0185    4.2509 H   0  0  0  0  0  0  0  0  0  0  0  0
   -1.3983   -5.7596    2.6527 H   0  0  0  0  0  0  0  0  0  0  0  0
    0.4252   -4.0886    1.8040 N   0  0  0  0  0  0  0  0  0  0  0  0
    1.2532   -2.9707    1.4349 C   0  0  2  0  0  0  0  0  0  0  0  0
    0.3395   -1.8293    1.0083 C   0  0  0  0  0  0  0  0  0  0  0  0
   -0.8136   -2.0027    0.6194 O   0  0  0  0  0  0  0  0  0  0  0  0
    2.2176   -3.3411    0.3189 C   0  0  0  0  0  0  0  0  0  0  0  0
   -0.2574   -4.4279    1.1287 H   0  0  0  0  0  0  0  0  0  0  0  0
    1.8087   -2.6785    2.3327 H   0  0  0  0  0  0  0  0  0  0  0  0
    1.6793   -3.6366   -0.5890 H   0  0  0  0  0  0  0  0  0  0  0  0
    2.8662   -2.4980    0.0589 H   0  0  0  0  0  0  0  0  0  0  0  0
    2.8538   -4.1816    0.6166 H   0  0  0  0  0  0  0  0  0  0  0  0
    0.9758   -0.5952    1.0708 N   0  0  0  0  0  0  0  0  0  0  0  0
    0.3258    0.6374    0.7059 C   0  0  2  0  0  0  0  0  0  0  0  0
   -0.0071    1.3797    1.9958 C   0  0  0  0  0  0  0  0  0  0  0  0
   -0.9500    2.1624    2.0939 O   0  0  0  0  0  0  0  0  0  0  0  0
   -0.9472    0.3942   -0.1137 C   0  0  0  0  0  0  0  0  0  0  0  0
   -0.6777   -0.1998   -1.4956 C   0  0  0  0  0  0  0  0  0  0  0  0
   -1.9098   -0.4902   -2.3589 C   0  0  0  0  0  0  0  0  0  0  0  0
   -3.0130   -0.3293   -1.7618 O   0  5  0  0  0  0  0  0  0  0  0  0
   -1.6884   -0.8367   -3.5519 O   0  0  0  0  0  0  0  0  0  0  0  0
    1.9288   -0.5463    1.4242 H   0  0  0  0  0  0  0  0  0  0  0  0
    1.0586    1.2238    0.1412 H   0  0  0  0  0  0  0  0  0  0  0  0
   -1.5085    1.3306   -0.2220 H   0  0  0  0  0  0  0  0  0  0  0  0
   -1.6069   -0.2909    0.4355 H   0  0  0  0  0  0  0  0  0  0  0  0
    0.0073    0.4489   -2.0546 H   0  0  0  0  0  0  0  0  0  0  0  0
   -0.1612   -1.1593   -1.3649 H   0  0  0  0  0  0  0  0  0  0  0  0
    0.9007    1.1000    3.0078 N   0  0  0  0  0  0  0  0  0  0  0  0
    0.8136    1.6901    4.3235 C   0  0  2  0  0  0  0  0  0  0  0  0
    2.1687    1.5320    5.0004 C   0  0  0  0  0  0  0  0  0  0  0  0
    2.9866    0.6751    4.6721 O   0  0  0  0  0  0  0  0  0  0  0  0
   -0.2858    1.0407    5.1495 C   0  0  0  0  0  0  0  0  0  0  0  0
    1.6425    0.4267    2.8403 H   0  0  0  0  0  0  0  0  0  0  0  0
    0.5988    2.7545    4.1791 H   0  0  0  0  0  0  0  0  0  0  0  0
   -0.0879   -0.0262    5.3047 H   0  0  0  0  0  0  0  0  0  0  0  0
   -0.3694    1.5082    6.1361 H   0  0  0  0  0  0  0  0  0  0  0  0
   -1.2549    1.1293    4.6468 H   0  0  0  0  0  0  0  0  0  0  0  0
    2.3395    2.4323    6.0427 N   0  0  0  0  0  0  0  0  0  0  0  0
    3.5374    2.4737    6.8487 C   0  0  0  0  0  0  0  0  0  0  0  0
    1.6166    3.1200    6.2325 H   0  0  0  0  0  0  0  0  0  0  0  0
    3.4052    1.8370    7.7358 H   0  0  0  0  0  0  0  0  0  0  0  0
    4.3896    2.1068    6.2578 H   0  0  0  0  0  0  0  0  0  0  0  0
    3.7299    3.5092    7.1660 H   0  0  0  0  0  0  0  0  0  0  0  0
  1  3  1  0  0  0  0
  1  7  1  0  0  0  0
  1  2  2  0  0  0  0
 33 34  1  0  0  0  0
 34 42  1  0  0  0  0
 34 35  2  0  0  0  0
  8  9  1  0  0  0  0
  9 17  1  0  0  0  0
  9 10  2  0  0  0  0
 18 19  1  0  0  0  0
 19 32  1  0  0  0  0
 19 20  2  0  0  0  0
 22 23  1  0  0  0  0
 23 24  1  0  0  0  0
 23 25  2  0  0  0  0
 33 36  1  0  0  0  0
  8 11  1  0  0  0  0
 42 43  1  0  0  0  0
 21 22  1  0  0  0  0
 18 21  1  0  0  0  0
 32 33  1  0  0  0  0
  7  8  1  0  0  0  0
 17 18  1  0  0  0  0
  3  4  1  0  0  0  0
  3  5  1  0  0  0  0
  3  6  1  0  0  0  0
 36 39  1  0  0  0  0
 36 40  1  0  0  0  0
 36 41  1  0  0  0  0
 11 14  1  0  0  0  0
 11 15  1  0  0  0  0
 11 16  1  0  0  0  0
 43 45  1  0  0  0  0
 43 46  1  0  0  0  0
 43 47  1  0  0  0  0
 22 30  1  0  0  0  0
 22 31  1  0  0  0  0
 21 28  1  0  0  0  0
 21 29  1  0  0  0  0
 33 38  1  0  0  0  0
  8 13  1  0  0  0  0
 18 27  1  0  0  0  0
 42 44  1  0  0  0  0
  7 12  1  0  0  0  0
 32 37  1  0  0  0  0
 17 26  1  0  0  0  0
M  CHG  1  24  -1
M  END
$$$$

  -OEChem-05262214473D

 47 46  0     1  0  0  0  0  0999 V2000
    0.5093   -4.7265    3.0306 C   0  0  0  0  0  0  0  0  0  0  0  0
    1.2735   -4.4402    3.9448 O   0  0  0  0  0  0  0  0  0  0  0  0
   -0.4465   -5.8608    3.1982 C   0  0  0  0  0  0  0  0  0  0  0  0
   -0.0219   -6.8213    2.8645 H   0  0  0  0  0  0  0  0  0  0  0  0
   -0.7314   -6.0185    4.2509 H   0  0  0  0  0  0  0  0  0  0  0  0
   -1.3983   -5.7596    2.6527 H   0  0  0  0  0  0  0  0  0  0  0  0
    0.4252   -4.0886    1.8040 N   0  0  0  0  0  0  0  0  0  0  0  0
    1.2532   -2.9707    1.4349 C   0  0  2  0  0  0  0  0  0  0  0  0
    0.3395   -1.8293    1.0083 C   0  0  0  0  0  0  0  0  0  0  0  0
   -0.8136   -2.0027    0.6194 O   0  0  0  0  0  0  0  0  0  0  0  0
    2.2176   -3.3411    0.3189 C   0  0  0  0  0  0  0  0  0  0  0  0
   -0.2574   -4.4279    1.1287 H   0  0  0  0  0  0  0  0  0  0  0  0
    1.8087   -2.6785    2.3327 H   0  0  0  0  0  0  0  0  0  0  0  0
    1.6793   -3.6366   -0.5890 H   0  0  0  0  0  0  0  0  0  0  0  0
    2.8662   -2.4980    0.0589 H   0  0  0  0  0  0  0  0  0  0  0  0
    2.8538   -4.1816    0.6166 H   0  0  0  0  0  0  0  0  0  0  0  0
    0.9758   -0.5952    1.0708 N   0  0  0  0  0  0  0  0  0  0  0  0
    0.3258    0.6374    0.7059 C   0  0  2  0  0  0  0  0  0  0  0  0
   -0.0071    1.3797    1.9958 C   0  0  0  0  0  0  0  0  0  0  0  0
   -1.0818    1.9460    2.1845 O   0  0  0  0  0  0  0  0  0  0  0  0
   -0.9472    0.3942   -0.1137 C   0  0  0  0  0  0  0  0  0  0  0  0
   -0.6777   -0.1998   -1.4956 C   0  0  0  0  0  0  0  0  0  0  0  0
   -1.9098   -0.4902   -2.3589 C   0  0  0  0  0  0  0  0  0  0  0  0
   -3.0130   -0.3293   -1.7618 O   0  5  0  0  0  0  0  0  0  0  0  0
   -1.6884   -0.8367   -3.5519 O   0  0  0  0  0  0  0  0  0  0  0  0
    1.9288   -0.5463    1.4242 H   0  0  0  0  0  0  0  0  0  0  0  0
    1.0586    1.2238    0.1412 H   0  0  0  0  0  0  0  0  0  0  0  0
   -1.5085    1.3306   -0.2220 H   0  0  0  0  0  0  0  0  0  0  0  0
   -1.6069   -0.2909    0.4355 H   0  0  0  0  0  0  0  0  0  0  0  0
    0.0073    0.4489   -2.0546 H   0  0  0  0  0  0  0  0  0  0  0  0
   -0.1612   -1.1593   -1.3649 H   0  0  0  0  0  0  0  0  0  0  0  0
    1.0546    1.3741    2.8898 N   0  0  0  0  0  0  0  0  0  0  0  0
    0.9965    2.0228    4.1791 C   0  0  2  0  0  0  0  0  0  0  0  0
    2.4238    2.2083    4.6770 C   0  0  0  0  0  0  0  0  0  0  0  0
    3.3666    1.5267    4.2800 O   0  0  0  0  0  0  0  0  0  0  0  0
    0.1762    1.2119    5.1702 C   0  0  0  0  0  0  0  0  0  0  0  0
    1.9021    0.8662    2.6544 H   0  0  0  0  0  0  0  0  0  0  0  0
    0.5345    3.0032    4.0194 H   0  0  0  0  0  0  0  0  0  0  0  0
    0.6237    0.2263    5.3430 H   0  0  0  0  0  0  0  0  0  0  0  0
    0.1093    1.7188    6.1385 H   0  0  0  0  0  0  0  0  0  0  0  0
   -0.8414    1.0541    4.7968 H   0  0  0  0  0  0  0  0  0  0  0  0
    2.5136    3.1955    5.6484 N   0  0  0  0  0  0  0  0  0  0  0  0
    3.7598    3.5506    6.2863 C   0  0  0  0  0  0  0  0  0  0  0  0
    1.6837    3.7231    5.9028 H   0  0  0  0  0  0  0  0  0  0  0  0
    3.8798    2.9645    7.2094 H   0  0  0  0  0  0  0  0  0  0  0  0
    4.5952    3.3350    5.6040 H   0  0  0  0  0  0  0  0  0  0  0  0
    3.7537    4.6230    6.5312 H   0  0  0  0  0  0  0  0  0  0  0  0
  1  3  1  0  0  0  0
  1  7  1  0  0  0  0
  1  2  2  0  0  0  0
 33 34  1  0  0  0  0
 34 42  1  0  0  0  0
 34 35  2  0  0  0  0
  8  9  1  0  0  0  0
  9 17  1  0  0  0  0
  9 10  2  0  0  0  0
 18 19  1  0  0  0  0
 19 32  1  0  0  0  0
 19 20  2  0  0  0  0
 22 23  1  0  0  0  0
 23 24  1  0  0  0  0
 23 25  2  0  0  0  0
 33 36  1  0  0  0  0
  8 11  1  0  0  0  0
 42 43  1  0  0  0  0
 21 22  1  0  0  0  0
 18 21  1  0  0  0  0
 32 33  1  0  0  0  0
  7  8  1  0  0  0  0
 17 18  1  0  0  0  0
  3  4  1  0  0  0  0
  3  5  1  0  0  0  0
  3  6  1  0  0  0  0
 36 39  1  0  0  0  0
 36 40  1  0  0  0  0
 36 41  1  0  0  0  0
 11 14  1  0  0  0  0
 11 15  1  0  0  0  0
 11 16  1  0  0  0  0
 43 45  1  0  0  0  0
 43 46  1  0  0  0  0
 43 47  1  0  0  0  0
 22 30  1  0  0  0  0
 22 31  1  0  0  0  0
 21 28  1  0  0  0  0
 21 29  1  0  0  0  0
 33 38  1  0  0  0  0
  8 13  1  0  0  0  0
 18 27  1  0  0  0  0
 42 44  1  0  0  0  0
  7 12  1  0  0  0  0
 32 37  1  0  0  0  0
 17 26  1  0  0  0  0
M  CHG  1  24  -1
M  END
$$$$

  -OEChem-05262214473D

 47 46  0     1  0  0  0  0  0999 V2000
    0.5093   -4.7265    3.0306 C   0  0  0  0  0  0  0  0  0  0  0  0
    1.2735   -4.4402    3.9448 O   0  0  0  0  0  0  0  0  0  0  0  0
   -0.4465   -5.8608    3.1982 C   0  0  0  0  0  0  0  0  0  0  0  0
   -0.0219   -6.8213    2.8645 H   0  0  0  0  0  0  0  0  0  0  0  0
   -0.7314   -6.0185    4.2509 H   0  0  0  0  0  0  0  0  0  0  0  0
   -1.3983   -5.7596    2.6527 H   0  0  0  0  0  0  0  0  0  0  0  0
    0.4252   -4.0886    1.8040 N   0  0  0  0  0  0  0  0  0  0  0  0
    1.2532   -2.9707    1.4349 C   0  0  2  0  0  0  0  0  0  0  0  0
    0.3395   -1.8293    1.0083 C   0  0  0  0  0  0  0  0  0  0  0  0
   -0.8136   -2.0027    0.6194 O   0  0  0  0  0  0  0  0  0  0  0  0
    2.2176   -3.3411    0.3189 C   0  0  0  0  0  0  0  0  0  0  0  0
   -0.2574   -4.4279    1.1287 H   0  0  0  0  0  0  0  0  0  0  0  0
    1.8087   -2.6785    2.3327 H   0  0  0  0  0  0  0  0  0  0  0  0
    1.6793   -3.6366   -0.5890 H   0  0  0  0  0  0  0  0  0  0  0  0
    2.8662   -2.4980    0.0589 H   0  0  0  0  0  0  0  0  0  0  0  0
    2.8538   -4.1816    0.6166 H   0  0  0  0  0  0  0  0  0  0  0  0
    0.9758   -0.5952    1.0708 N   0  0  0  0  0  0  0  0  0  0  0  0
    0.3258    0.6374    0.7059 C   0  0  2  0  0  0  0  0  0  0  0  0
   -0.0071    1.3797    1.9958 C   0  0  0  0  0  0  0  0  0  0  0  0
   -1.1504    1.7132    2.3008 O   0  0  0  0  0  0  0  0  0  0  0  0
   -0.9472    0.3942   -0.1137 C   0  0  0  0  0  0  0  0  0  0  0  0
   -0.6777   -0.1998   -1.4956 C   0  0  0  0  0  0  0  0  0  0  0  0
   -1.9098   -0.4902   -2.3589 C   0  0  0  0  0  0  0  0  0  0  0  0
   -3.0130   -0.3293   -1.7618 O   0  5  0  0  0  0  0  0  0  0  0  0
   -1.6884   -0.8367   -3.5519 O   0  0  0  0  0  0  0  0  0  0  0  0
    1.9288   -0.5463    1.4242 H   0  0  0  0  0  0  0  0  0  0  0  0
    1.0586    1.2238    0.1412 H   0  0  0  0  0  0  0  0  0  0  0  0
   -1.5085    1.3306   -0.2220 H   0  0  0  0  0  0  0  0  0  0  0  0
   -1.6069   -0.2909    0.4355 H   0  0  0  0  0  0  0  0  0  0  0  0
    0.0073    0.4489   -2.0546 H   0  0  0  0  0  0  0  0  0  0  0  0
   -0.1612   -1.1593   -1.3649 H   0  0  0  0  0  0  0  0  0  0  0  0
    1.1284    1.6658    2.7409 N   0  0  0  0  0  0  0  0  0  0  0  0
    1.0822    2.3761    3.9979 C   0  0  2  0  0  0  0  0  0  0  0  0
    2.4815    2.8992    4.2943 C   0  0  0  0  0  0  0  0  0  0  0  0
    3.4979    2.4103    3.8053 O   0  0  0  0  0  0  0  0  0  0  0  0
    0.5876    1.4795    5.1223 C   0  0  0  0  0  0  0  0  0  0  0  0
    2.0333    1.3370    2.4172 H   0  0  0  0  0  0  0  0  0  0  0  0
    0.3979    3.2203    3.8592 H   0  0  0  0  0  0  0  0  0  0  0  0
    1.2606    0.6281    5.2761 H   0  0  0  0  0  0  0  0  0  0  0  0
    0.5260    2.0272    6.0685 H   0  0  0  0  0  0  0  0  0  0  0  0
   -0.4065    1.0804    4.8939 H   0  0  0  0  0  0  0  0  0  0  0  0
    2.4649    3.9485    5.2024 N   0  0  0  0  0  0  0  0  0  0  0  0
    3.6680    4.6077    5.6542 C   0  0  0  0  0  0  0  0  0  0  0  0
    1.5751    4.3017    5.5417 H   0  0  0  0  0  0  0  0  0  0  0  0
    4.0251    4.1278    6.5774 H   0  0  0  0  0  0  0  0  0  0  0  0
    4.4427    4.5295    4.8772 H   0  0  0  0  0  0  0  0  0  0  0  0
    3.4528    5.6681    5.8520 H   0  0  0  0  0  0  0  0  0  0  0  0
  1  3  1  0  0  0  0
  1  7  1  0  0  0  0
  1  2  2  0  0  0  0
 33 34  1  0  0  0  0
 34 42  1  0  0  0  0
 34 35  2  0  0  0  0
  8  9  1  0  0  0  0
  9 17  1  0  0  0  0
  9 10  2  0  0  0  0
 18 19  1  0  0  0  0
 19 32  1  0  0  0  0
 19 20  2  0  0  0  0
 22 23  1  0  0  0  0
 23 24  1  0  0  0  0
 23 25  2  0  0  0  0
 33 36  1  0  0  0  0
  8 11  1  0  0  0  0
 42 43  1  0  0  0  0
 21 22  1  0  0  0  0
 18 21  1  0  0  0  0
 32 33  1  0  0  0  0
  7  8  1  0  0  0  0
 17 18  1  0  0  0  0
  3  4  1  0  0  0  0
  3  5  1  0  0  0  0
  3  6  1  0  0  0  0
 36 39  1  0  0  0  0
 36 40  1  0  0  0  0
 36 41  1  0  0  0  0
 11 14  1  0  0  0  0
 11 15  1  0  0  0  0
 11 16  1  0  0  0  0
 43 45  1  0  0  0  0
 43 46  1  0  0  0  0
 43 47  1  0  0  0  0
 22 30  1  0  0  0  0
 22 31  1  0  0  0  0
 21 28  1  0  0  0  0
 21 29  1  0  0  0  0
 33 38  1  0  0  0  0
  8 13  1  0  0  0  0
 18 27  1  0  0  0  0
 42 44  1  0  0  0  0
  7 12  1  0  0  0  0
 32 37  1  0  0  0  0
 17 26  1  0  0  0  0
M  CHG  1  24  -1
M  END
$$$$

  -OEChem-05262214473D

 47 46  0     1  0  0  0  0  0999 V2000
    0.5093   -4.7265    3.0306 C   0  0  0  0  0  0  0  0  0  0  0  0
    1.2735   -4.4402    3.9448 O   0  0  0  0  0  0  0  0  0  0  0  0
   -0.4465   -5.8608    3.1982 C   0  0  0  0  0  0  0  0  0  0  0  0
   -0.0219   -6.8213    2.8645 H   0  0  0  0  0  0  0  0  0  0  0  0
   -0.7314   -6.0185    4.2509 H   0  0  0  0  0  0  0  0  0  0  0  0
   -1.3983   -5.7596    2.6527 H   0  0  0  0  0  0  0  0  0  0  0  0
    0.4252   -4.0886    1.8040 N   0  0  0  0  0  0  0  0  0  0  0  0
    1.2532   -2.9707    1.4349 C   0  0  2  0  0  0  0  0  0  0  0  0
    0.3395   -1.8293    1.0083 C   0  0  0  0  0  0  0  0  0  0  0  0
   -0.8136   -2.0027    0.6194 O   0  0  0  0  0  0  0  0  0  0  0  0
    2.2176   -3.3411    0.3189 C   0  0  0  0  0  0  0  0  0  0  0  0
   -0.2574   -4.4279    1.1287 H   0  0  0  0  0  0  0  0  0  0  0  0
    1.8087   -2.6785    2.3327 H   0  0  0  0  0  0  0  0  0  0  0  0
    1.6793   -3.6366   -0.5890 H   0  0  0  0  0  0  0  0  0  0  0  0
    2.8662   -2.4980    0.0589 H   0  0  0  0  0  0  0  0  0  0  0  0
    2.8538   -4.1816    0.6166 H   0  0  0  0  0  0  0  0  0  0  0  0
    0.9758   -0.5952    1.0708 N   0  0  0  0  0  0  0  0  0  0  0  0
    0.3258    0.6374    0.7059 C   0  0  2  0  0  0  0  0  0  0  0  0
   -0.0071    1.3797    1.9958 C   0  0  0  0  0  0  0  0  0  0  0  0
   -1.1509    1.4799    2.4349 O   0  0  0  0  0  0  0  0  0  0  0  0
   -0.9472    0.3942   -0.1137 C   0  0  0  0  0  0  0  0  0  0  0  0
   -0.6777   -0.1998   -1.4956 C   0  0  0  0  0  0  0  0  0  0  0  0
   -1.9098   -0.4902   -2.3589 C   0  0  0  0  0  0  0  0  0  0  0  0
   -3.0130   -0.3293   -1.7618 O   0  5  0  0  0  0  0  0  0  0  0  0
   -1.6884   -0.8367   -3.5519 O   0  0  0  0  0  0  0  0  0  0  0  0
    1.9288   -0.5463    1.4242 H   0  0  0  0  0  0  0  0  0  0  0  0
    1.0586    1.2238    0.1412 H   0  0  0  0  0  0  0  0  0  0  0  0
   -1.5085    1.3306   -0.2220 H   0  0  0  0  0  0  0  0  0  0  0  0
   -1.6069   -0.2909    0.4355 H   0  0  0  0  0  0  0  0  0  0  0  0
    0.0073    0.4489   -2.0546 H   0  0  0  0  0  0  0  0  0  0  0  0
   -0.1612   -1.1593   -1.3649 H   0  0  0  0  0  0  0  0  0  0  0  0
    1.1171    1.9554    2.5713 N   0  0  0  0  0  0  0  0  0  0  0  0
    1.0648    2.7259    3.7921 C   0  0  2  0  0  0  0  0  0  0  0  0
    2.3377    3.5576    3.8783 C   0  0  0  0  0  0  0  0  0  0  0  0
    3.3714    3.2657    3.2804 O   0  0  0  0  0  0  0  0  0  0  0  0
    0.9204    1.8255    5.0091 C   0  0  0  0  0  0  0  0  0  0  0  0
    2.0270    1.8071    2.1451 H   0  0  0  0  0  0  0  0  0  0  0  0
    0.1983    3.3910    3.7094 H   0  0  0  0  0  0  0  0  0  0  0  0
    1.7793    1.1518    5.1085 H   0  0  0  0  0  0  0  0  0  0  0  0
    0.8521    2.4123    5.9310 H   0  0  0  0  0  0  0  0  0  0  0  0
    0.0200    1.2066    4.9313 H   0  0  0  0  0  0  0  0  0  0  0  0
    2.1969    4.6401    4.7353 N   0  0  0  0  0  0  0  0  0  0  0  0
    3.2684    5.5729    4.9955 C   0  0  0  0  0  0  0  0  0  0  0  0
    1.2979    4.8164    5.1740 H   0  0  0  0  0  0  0  0  0  0  0  0
    3.8312    5.2475    5.8829 H   0  0  0  0  0  0  0  0  0  0  0  0
    3.9423    5.6088    4.1269 H   0  0  0  0  0  0  0  0  0  0  0  0
    2.8478    6.5734    5.1748 H   0  0  0  0  0  0  0  0  0  0  0  0
  1  3  1  0  0  0  0
  1  7  1  0  0  0  0
  1  2  2  0  0  0  0
 33 34  1  0  0  0  0
 34 42  1  0  0  0  0
 34 35  2  0  0  0  0
  8  9  1  0  0  0  0
  9 17  1  0  0  0  0
  9 10  2  0  0  0  0
 18 19  1  0  0  0  0
 19 32  1  0  0  0  0
 19 20  2  0  0  0  0
 22 23  1  0  0  0  0
 23 24  1  0  0  0  0
 23 25  2  0  0  0  0
 33 36  1  0  0  0  0
  8 11  1  0  0  0  0
 42 43  1  0  0  0  0
 21 22  1  0  0  0  0
 18 21  1  0  0  0  0
 32 33  1  0  0  0  0
  7  8  1  0  0  0  0
 17 18  1  0  0  0  0
  3  4  1  0  0  0  0
  3  5  1  0  0  0  0
  3  6  1  0  0  0  0
 36 39  1  0  0  0  0
 36 40  1  0  0  0  0
 36 41  1  0  0  0  0
 11 14  1  0  0  0  0
 11 15  1  0  0  0  0
 11 16  1  0  0  0  0
 43 45  1  0  0  0  0
 43 46  1  0  0  0  0
 43 47  1  0  0  0  0
 22 30  1  0  0  0  0
 22 31  1  0  0  0  0
 21 28  1  0  0  0  0
 21 29  1  0  0  0  0
 33 38  1  0  0  0  0
  8 13  1  0  0  0  0
 18 27  1  0  0  0  0
 42 44  1  0  0  0  0
  7 12  1  0  0  0  0
 32 37  1  0  0  0  0
 17 26  1  0  0  0  0
M  CHG  1  24  -1
M  END
$$$$

  -OEChem-05262214473D

 47 46  0     1  0  0  0  0  0999 V2000
    0.5093   -4.7265    3.0306 C   0  0  0  0  0  0  0  0  0  0  0  0
    1.2735   -4.4402    3.9448 O   0  0  0  0  0  0  0  0  0  0  0  0
   -0.4465   -5.8608    3.1982 C   0  0  0  0  0  0  0  0  0  0  0  0
   -0.0219   -6.8213    2.8645 H   0  0  0  0  0  0  0  0  0  0  0  0
   -0.7314   -6.0185    4.2509 H   0  0  0  0  0  0  0  0  0  0  0  0
   -1.3983   -5.7596    2.6527 H   0  0  0  0  0  0  0  0  0  0  0  0
    0.4252   -4.0886    1.8040 N   0  0  0  0  0  0  0  0  0  0  0  0
    1.2532   -2.9707    1.4349 C   0  0  2  0  0  0  0  0  0  0  0  0
    0.3395   -1.8293    1.0083 C   0  0  0  0  0  0  0  0  0  0  0  0
   -0.8136   -2.0027    0.6194 O   0  0  0  0  0  0  0  0  0  0  0  0
    2.2176   -3.3411    0.3189 C   0  0  0  0  0  0  0  0  0  0  0  0
   -0.2574   -4.4279    1.1287 H   0  0  0  0  0  0  0  0  0  0  0  0
    1.8087   -2.6785    2.3327 H   0  0  0  0  0  0  0  0  0  0  0  0
    1.6793   -3.6366   -0.5890 H   0  0  0  0  0  0  0  0  0  0  0  0
    2.8662   -2.4980    0.0589 H   0  0  0  0  0  0  0  0  0  0  0  0
    2.8538   -4.1816    0.6166 H   0  0  0  0  0  0  0  0  0  0  0  0
    0.9758   -0.5952    1.0708 N   0  0  0  0  0  0  0  0  0  0  0  0
    0.3258    0.6374    0.7059 C   0  0  2  0  0  0  0  0  0  0  0  0
   -0.0071    1.3797    1.9958 C   0  0  0  0  0  0  0  0  0  0  0  0
   -1.0836    1.2620    2.5777 O   0  0  0  0  0  0  0  0  0  0  0  0
   -0.9472    0.3942   -0.1137 C   0  0  0  0  0  0  0  0  0  0  0  0
   -0.6777   -0.1998   -1.4956 C   0  0  0  0  0  0  0  0  0  0  0  0
   -1.9098   -0.4902   -2.3589 C   0  0  0  0  0  0  0  0  0  0  0  0
   -3.0130   -0.3293   -1.7618 O   0  5  0  0  0  0  0  0  0  0  0  0
   -1.6884   -0.8367   -3.5519 O   0  0  0  0  0  0  0  0  0  0  0  0
    1.9288   -0.5463    1.4242 H   0  0  0  0  0  0  0  0  0  0  0  0
    1.0586    1.2238    0.1412 H   0  0  0  0  0  0  0  0  0  0  0  0
   -1.5085    1.3306   -0.2220 H   0  0  0  0  0  0  0  0  0  0  0  0
   -1.6069   -0.2909    0.4355 H   0  0  0  0  0  0  0  0  0  0  0  0
    0.0073    0.4489   -2.0546 H   0  0  0  0  0  0  0  0  0  0  0  0
   -0.1612   -1.1593   -1.3649 H   0  0  0  0  0  0  0  0  0  0  0  0
    1.0214    2.2230    2.3926 N   0  0  0  0  0  0  0  0  0  0  0  0
    0.9454    3.0484    3.5757 C   0  0  2  0  0  0  0  0  0  0  0  0
    2.0024    4.1385    3.4574 C   0  0  0  0  0  0  0  0  0  0  0  0
    2.9959    4.0346    2.7410 O   0  0  0  0  0  0  0  0  0  0  0  0
    1.1518    2.2260    4.8382 C   0  0  0  0  0  0  0  0  0  0  0  0
    1.8838    2.2445    1.8564 H   0  0  0  0  0  0  0  0  0  0  0  0
   -0.0509    3.5038    3.5802 H   0  0  0  0  0  0  0  0  0  0  0  0
    2.1447    1.7619    4.8517 H   0  0  0  0  0  0  0  0  0  0  0  0
    1.0655    2.8479    5.7353 H   0  0  0  0  0  0  0  0  0  0  0  0
    0.4090    1.4239    4.9066 H   0  0  0  0  0  0  0  0  0  0  0  0
    1.7278    5.2230    4.2787 N   0  0  0  0  0  0  0  0  0  0  0  0
    2.5880    6.3806    4.3551 C   0  0  0  0  0  0  0  0  0  0  0  0
    0.8713    5.2321    4.8246 H   0  0  0  0  0  0  0  0  0  0  0  0
    3.3112    6.2474    5.1732 H   0  0  0  0  0  0  0  0  0  0  0  0
    3.1281    6.4994    3.4042 H   0  0  0  0  0  0  0  0  0  0  0  0
    1.9799    7.2772    4.5459 H   0  0  0  0  0  0  0  0  0  0  0  0
  1  3  1  0  0  0  0
  1  7  1  0  0  0  0
  1  2  2  0  0  0  0
 33 34  1  0  0  0  0
 34 42  1  0  0  0  0
 34 35  2  0  0  0  0
  8  9  1  0  0  0  0
  9 17  1  0  0  0  0
  9 10  2  0  0  0  0
 18 19  1  0  0  0  0
 19 32  1  0  0  0  0
 19 20  2  0  0  0  0
 22 23  1  0  0  0  0
 23 24  1  0  0  0  0
 23 25  2  0  0  0  0
 33 36  1  0  0  0  0
  8 11  1  0  0  0  0
 42 43  1  0  0  0  0
 21 22  1  0  0  0  0
 18 21  1  0  0  0  0
 32 33  1  0  0  0  0
  7  8  1  0  0  0  0
 17 18  1  0  0  0  0
  3  4  1  0  0  0  0
  3  5  1  0  0  0  0
  3  6  1  0  0  0  0
 36 39  1  0  0  0  0
 36 40  1  0  0  0  0
 36 41  1  0  0  0  0
 11 14  1  0  0  0  0
 11 15  1  0  0  0  0
 11 16  1  0  0  0  0
 43 45  1  0  0  0  0
 43 46  1  0  0  0  0
 43 47  1  0  0  0  0
 22 30  1  0  0  0  0
 22 31  1  0  0  0  0
 21 28  1  0  0  0  0
 21 29  1  0  0  0  0
 33 38  1  0  0  0  0
  8 13  1  0  0  0  0
 18 27  1  0  0  0  0
 42 44  1  0  0  0  0
  7 12  1  0  0  0  0
 32 37  1  0  0  0  0
 17 26  1  0  0  0  0
M  CHG  1  24  -1
M  END
$$$$

  -OEChem-05262214473D

 47 46  0     1  0  0  0  0  0999 V2000
    0.5093   -4.7265    3.0306 C   0  0  0  0  0  0  0  0  0  0  0  0
    1.2735   -4.4402    3.9448 O   0  0  0  0  0  0  0  0  0  0  0  0
   -0.4465   -5.8608    3.1982 C   0  0  0  0  0  0  0  0  0  0  0  0
   -0.0219   -6.8213    2.8645 H   0  0  0  0  0  0  0  0  0  0  0  0
   -0.7314   -6.0185    4.2509 H   0  0  0  0  0  0  0  0  0  0  0  0
   -1.3983   -5.7596    2.6527 H   0  0  0  0  0  0  0  0  0  0  0  0
    0.4252   -4.0886    1.8040 N   0  0  0  0  0  0  0  0  0  0  0  0
    1.2532   -2.9707    1.4349 C   0  0  2  0  0  0  0  0  0  0  0  0
    0.3395   -1.8293    1.0083 C   0  0  0  0  0  0  0  0  0  0  0  0
   -0.8136   -2.0027    0.6194 O   0  0  0  0  0  0  0  0  0  0  0  0
    2.2176   -3.3411    0.3189 C   0  0  0  0  0  0  0  0  0  0  0  0
   -0.2574   -4.4279    1.1287 H   0  0  0  0  0  0  0  0  0  0  0  0
    1.8087   -2.6785    2.3327 H   0  0  0  0  0  0  0  0  0  0  0  0
    1.6793   -3.6366   -0.5890 H   0  0  0  0  0  0  0  0  0  0  0  0
    2.8662   -2.4980    0.0589 H   0  0  0  0  0  0  0  0  0  0  0  0
    2.8538   -4.1816    0.6166 H   0  0  0  0  0  0  0  0  0  0  0  0
    0.9758   -0.5952    1.0708 N   0  0  0  0  0  0  0  0  0  0  0  0
    0.3258    0.6374    0.7059 C   0  0  2  0  0  0  0  0  0  0  0  0
   -0.0071    1.3797    1.9958 C   0  0  0  0  0  0  0  0  0  0  0  0
   -0.9528    1.0743    2.7194 O   0  0  0  0  0  0  0  0  0  0  0  0
   -0.9472    0.3942   -0.1137 C   0  0  0  0  0  0  0  0  0  0  0  0
   -0.6777   -0.1998   -1.4956 C   0  0  0  0  0  0  0  0  0  0  0  0
   -1.9098   -0.4902   -2.3589 C   0  0  0  0  0  0  0  0  0  0  0  0
   -3.0130   -0.3293   -1.7618 O   0  5  0  0  0  0  0  0  0  0  0  0
   -1.6884   -0.8367   -3.5519 O   0  0  0  0  0  0  0  0  0  0  0  0
    1.9288   -0.5463    1.4242 H   0  0  0  0  0  0  0  0  0  0  0  0
    1.0586    1.2238    0.1412 H   0  0  0  0  0  0  0  0  0  0  0  0
   -1.5085    1.3306   -0.2220 H   0  0  0  0  0  0  0  0  0  0  0  0
   -1.6069   -0.2909    0.4355 H   0  0  0  0  0  0  0  0  0  0  0  0
    0.0073    0.4489   -2.0546 H   0  0  0  0  0  0  0  0  0  0  0  0
   -0.1612   -1.1593   -1.3649 H   0  0  0  0  0  0  0  0  0  0  0  0
    0.8479    2.4505    2.2169 N   0  0  0  0  0  0  0  0  0  0  0  0
    0.7323    3.3215    3.3636 C   0  0  2  0  0  0  0  0  0  0  0  0
    1.4982    4.6025    3.0602 C   0  0  0  0  0  0  0  0  0  0  0  0
    2.3968    4.6646    2.2238 O   0  0  0  0  0  0  0  0  0  0  0  0
    1.2661    2.6540    4.6214 C   0  0  0  0  0  0  0  0  0  0  0  0
    1.6133    2.6193    1.5709 H   0  0  0  0  0  0  0  0  0  0  0  0
   -0.3325    3.5508    3.4805 H   0  0  0  0  0  0  0  0  0  0  0  0
    2.3317    2.4166    4.5231 H   0  0  0  0  0  0  0  0  0  0  0  0
    1.1516    3.3044    5.4949 H   0  0  0  0  0  0  0  0  0  0  0  0
    0.7341    1.7176    4.8215 H   0  0  0  0  0  0  0  0  0  0  0  0
    1.0895    5.6576    3.8639 N   0  0  0  0  0  0  0  0  0  0  0  0
    1.6734    6.9757    3.7766 C   0  0  0  0  0  0  0  0  0  0  0  0
    0.3241    5.5206    4.5175 H   0  0  0  0  0  0  0  0  0  0  0  0
    2.5006    7.0593    4.4968 H   0  0  0  0  0  0  0  0  0  0  0  0
    2.0557    7.1405    2.7585 H   0  0  0  0  0  0  0  0  0  0  0  0
    0.9083    7.7315    4.0079 H   0  0  0  0  0  0  0  0  0  0  0  0
  1  3  1  0  0  0  0
  1  7  1  0  0  0  0
  1  2  2  0  0  0  0
 33 34  1  0  0  0  0
 34 42  1  0  0  0  0
 34 35  2  0  0  0  0
  8  9  1  0  0  0  0
  9 17  1  0  0  0  0
  9 10  2  0  0  0  0
 18 19  1  0  0  0  0
 19 32  1  0  0  0  0
 19 20  2  0  0  0  0
 22 23  1  0  0  0  0
 23 24  1  0  0  0  0
 23 25  2  0  0  0  0
 33 36  1  0  0  0  0
  8 11  1  0  0  0  0
 42 43  1  0  0  0  0
 21 22  1  0  0  0  0
 18 21  1  0  0  0  0
 32 33  1  0  0  0  0
  7  8  1  0  0  0  0
 17 18  1  0  0  0  0
  3  4  1  0  0  0  0
  3  5  1  0  0  0  0
  3  6  1  0  0  0  0
 36 39  1  0  0  0  0
 36 40  1  0  0  0  0
 36 41  1  0  0  0  0
 11 14  1  0  0  0  0
 11 15  1  0  0  0  0
 11 16  1  0  0  0  0
 43 45  1  0  0  0  0
 43 46  1  0  0  0  0
 43 47  1  0  0  0  0
 22 30  1  0  0  0  0
 22 31  1  0  0  0  0
 21 28  1  0  0  0  0
 21 29  1  0  0  0  0
 33 38  1  0  0  0  0
  8 13  1  0  0  0  0
 18 27  1  0  0  0  0
 42 44  1  0  0  0  0
  7 12  1  0  0  0  0
 32 37  1  0  0  0  0
 17 26  1  0  0  0  0
M  CHG  1  24  -1
M  END
$$$$

  -OEChem-05262214473D

 47 46  0     1  0  0  0  0  0999 V2000
    0.5093   -4.7265    3.0306 C   0  0  0  0  0  0  0  0  0  0  0  0
    1.2735   -4.4402    3.9448 O   0  0  0  0  0  0  0  0  0  0  0  0
   -0.4465   -5.8608    3.1982 C   0  0  0  0  0  0  0  0  0  0  0  0
   -0.0219   -6.8213    2.8645 H   0  0  0  0  0  0  0  0  0  0  0  0
   -0.7314   -6.0185    4.2509 H   0  0  0  0  0  0  0  0  0  0  0  0
   -1.3983   -5.7596    2.6527 H   0  0  0  0  0  0  0  0  0  0  0  0
    0.4252   -4.0886    1.8040 N   0  0  0  0  0  0  0  0  0  0  0  0
    1.2532   -2.9707    1.4349 C   0  0  2  0  0  0  0  0  0  0  0  0
    0.3395   -1.8293    1.0083 C   0  0  0  0  0  0  0  0  0  0  0  0
   -0.8136   -2.0027    0.6194 O   0  0  0  0  0  0  0  0  0  0  0  0
    2.2176   -3.3411    0.3189 C   0  0  0  0  0  0  0  0  0  0  0  0
   -0.2574   -4.4279    1.1287 H   0  0  0  0  0  0  0  0  0  0  0  0
    1.8087   -2.6785    2.3327 H   0  0  0  0  0  0  0  0  0  0  0  0
    1.6793   -3.6366   -0.5890 H   0  0  0  0  0  0  0  0  0  0  0  0
    2.8662   -2.4980    0.0589 H   0  0  0  0  0  0  0  0  0  0  0  0
    2.8538   -4.1816    0.6166 H   0  0  0  0  0  0  0  0  0  0  0  0
    0.9758   -0.5952    1.0708 N   0  0  0  0  0  0  0  0  0  0  0  0
    0.3258    0.6374    0.7059 C   0  0  2  0  0  0  0  0  0  0  0  0
   -0.0071    1.3797    1.9958 C   0  0  0  0  0  0  0  0  0  0  0  0
   -0.7675    0.9297    2.8505 O   0  0  0  0  0  0  0  0  0  0  0  0
   -0.9472    0.3942   -0.1137 C   0  0  0  0  0  0  0  0  0  0  0  0
   -0.6777   -0.1998   -1.4956 C   0  0  0  0  0  0  0  0  0  0  0  0
   -1.9098   -0.4902   -2.3589 C   0  0  0  0  0  0  0  0  0  0  0  0
   -3.0130   -0.3293   -1.7618 O   0  5  0  0  0  0  0  0  0  0  0  0
   -1.6884   -0.8367   -3.5519 O   0  0  0  0  0  0  0  0  0  0  0  0
    1.9288   -0.5463    1.4242 H   0  0  0  0  0  0  0  0  0  0  0  0
    1.0586    1.2238    0.1412 H   0  0  0  0  0  0  0  0  0  0  0  0
   -1.5085    1.3306   -0.2220 H   0  0  0  0  0  0  0  0  0  0  0  0
   -1.6069   -0.2909    0.4355 H   0  0  0  0  0  0  0  0  0  0  0  0
    0.0073    0.4489   -2.0546 H   0  0  0  0  0  0  0  0  0  0  0  0
   -0.1612   -1.1593   -1.3649 H   0  0  0  0  0  0  0  0  0  0  0  0
    0.6083    2.6223    2.0562 N   0  0  0  0  0  0  0  0  0  0  0  0
    0.4400    3.5266    3.1701 C   0  0  2  0  0  0  0  0  0  0  0  0
    0.8596    4.9178    2.7140 C   0  0  0  0  0  0  0  0  0  0  0  0
    1.6151    5.1128    1.7641 O   0  0  0  0  0  0  0  0  0  0  0  0
    1.2555    3.0801    4.3735 C   0  0  0  0  0  0  0  0  0  0  0  0
    1.2340    2.9059    1.3080 H   0  0  0  0  0  0  0  0  0  0  0  0
   -0.6273    3.5290    3.4169 H   0  0  0  0  0  0  0  0  0  0  0  0
    2.3276    3.0713    4.1452 H   0  0  0  0  0  0  0  0  0  0  0  0
    1.1046    3.7505    5.2259 H   0  0  0  0  0  0  0  0  0  0  0  0
    0.9731    2.0676    4.6817 H   0  0  0  0  0  0  0  0  0  0  0  0
    0.3256    5.9142    3.5191 N   0  0  0  0  0  0  0  0  0  0  0  0
    0.5867    7.3176    3.2995 C   0  0  0  0  0  0  0  0  0  0  0  0
   -0.3063    5.6620    4.2734 H   0  0  0  0  0  0  0  0  0  0  0  0
    1.4548    7.6279    3.8997 H   0  0  0  0  0  0  0  0  0  0  0  0
    0.7981    7.4886    2.2336 H   0  0  0  0  0  0  0  0  0  0  0  0
   -0.2940    7.9053    3.5976 H   0  0  0  0  0  0  0  0  0  0  0  0
  1  3  1  0  0  0  0
  1  7  1  0  0  0  0
  1  2  2  0  0  0  0
 33 34  1  0  0  0  0
 34 42  1  0  0  0  0
 34 35  2  0  0  0  0
  8  9  1  0  0  0  0
  9 17  1  0  0  0  0
  9 10  2  0  0  0  0
 18 19  1  0  0  0  0
 19 32  1  0  0  0  0
 19 20  2  0  0  0  0
 22 23  1  0  0  0  0
 23 24  1  0  0  0  0
 23 25  2  0  0  0  0
 33 36  1  0  0  0  0
  8 11  1  0  0  0  0
 42 43  1  0  0  0  0
 21 22  1  0  0  0  0
 18 21  1  0  0  0  0
 32 33  1  0  0  0  0
  7  8  1  0  0  0  0
 17 18  1  0  0  0  0
  3  4  1  0  0  0  0
  3  5  1  0  0  0  0
  3  6  1  0  0  0  0
 36 39  1  0  0  0  0
 36 40  1  0  0  0  0
 36 41  1  0  0  0  0
 11 14  1  0  0  0  0
 11 15  1  0  0  0  0
 11 16  1  0  0  0  0
 43 45  1  0  0  0  0
 43 46  1  0  0  0  0
 43 47  1  0  0  0  0
 22 30  1  0  0  0  0
 22 31  1  0  0  0  0
 21 28  1  0  0  0  0
 21 29  1  0  0  0  0
 33 38  1  0  0  0  0
  8 13  1  0  0  0  0
 18 27  1  0  0  0  0
 42 44  1  0  0  0  0
  7 12  1  0  0  0  0
 32 37  1  0  0  0  0
 17 26  1  0  0  0  0
M  CHG  1  24  -1
M  END
$$$$

  -OEChem-05262214473D

 47 46  0     1  0  0  0  0  0999 V2000
    0.5093   -4.7265    3.0306 C   0  0  0  0  0  0  0  0  0  0  0  0
    1.2735   -4.4402    3.9448 O   0  0  0  0  0  0  0  0  0  0  0  0
   -0.4465   -5.8608    3.1982 C   0  0  0  0  0  0  0  0  0  0  0  0
   -0.0219   -6.8213    2.8645 H   0  0  0  0  0  0  0  0  0  0  0  0
   -0.7314   -6.0185    4.2509 H   0  0  0  0  0  0  0  0  0  0  0  0
   -1.3983   -5.7596    2.6527 H   0  0  0  0  0  0  0  0  0  0  0  0
    0.4252   -4.0886    1.8040 N   0  0  0  0  0  0  0  0  0  0  0  0
    1.2532   -2.9707    1.4349 C   0  0  2  0  0  0  0  0  0  0  0  0
    0.3395   -1.8293    1.0083 C   0  0  0  0  0  0  0  0  0  0  0  0
   -0.8136   -2.0027    0.6194 O   0  0  0  0  0  0  0  0  0  0  0  0
    2.2176   -3.3411    0.3189 C   0  0  0  0  0  0  0  0  0  0  0  0
   -0.2574   -4.4279    1.1287 H   0  0  0  0  0  0  0  0  0  0  0  0
    1.8087   -2.6785    2.3327 H   0  0  0  0  0  0  0  0  0  0  0  0
    1.6793   -3.6366   -0.5890 H   0  0  0  0  0  0  0  0  0  0  0  0
    2.8662   -2.4980    0.0589 H   0  0  0  0  0  0  0  0  0  0  0  0
    2.8538   -4.1816    0.6166 H   0  0  0  0  0  0  0  0  0  0  0  0
    0.9758   -0.5952    1.0708 N   0  0  0  0  0  0  0  0  0  0  0  0
    0.3258    0.6374    0.7059 C   0  0  2  0  0  0  0  0  0  0  0  0
   -0.0071    1.3797    1.9958 C   0  0  0  0  0  0  0  0  0  0  0  0
   -0.5403    0.8379    2.9619 O   0  0  0  0  0  0  0  0  0  0  0  0
   -0.9472    0.3942   -0.1137 C   0  0  0  0  0  0  0  0  0  0  0  0
   -0.6777   -0.1998   -1.4956 C   0  0  0  0  0  0  0  0  0  0  0  0
   -1.9098   -0.4902   -2.3589 C   0  0  0  0  0  0  0  0  0  0  0  0
   -3.0130   -0.3293   -1.7618 O   0  5  0  0  0  0  0  0  0  0  0  0
   -1.6884   -0.8367   -3.5519 O   0  0  0  0  0  0  0  0  0  0  0  0
    1.9288   -0.5463    1.4242 H   0  0  0  0  0  0  0  0  0  0  0  0
    1.0586    1.2238    0.1412 H   0  0  0  0  0  0  0  0  0  0  0  0
   -1.5085    1.3306   -0.2220 H   0  0  0  0  0  0  0  0  0  0  0  0
   -1.6069   -0.2909    0.4355 H   0  0  0  0  0  0  0  0  0  0  0  0
    0.0073    0.4489   -2.0546 H   0  0  0  0  0  0  0  0  0  0  0  0
   -0.1612   -1.1593   -1.3649 H   0  0  0  0  0  0  0  0  0  0  0  0
    0.3191    2.7268    1.9215 N   0  0  0  0  0  0  0  0  0  0  0  0
    0.0883    3.6498    3.0084 C   0  0  2  0  0  0  0  0  0  0  0  0
    0.1301    5.0630    2.4422 C   0  0  0  0  0  0  0  0  0  0  0  0
    0.7040    5.3487    1.3933 O   0  0  0  0  0  0  0  0  0  0  0  0
    1.1208    3.4754    4.1112 C   0  0  0  0  0  0  0  0  0  0  0  0
    0.7718    3.0849    1.0857 H   0  0  0  0  0  0  0  0  0  0  0  0
   -0.9154    3.4398    3.3939 H   0  0  0  0  0  0  0  0  0  0  0  0
    2.1327    3.6816    3.7437 H   0  0  0  0  0  0  0  0  0  0  0  0
    0.9276    4.1560    4.9469 H   0  0  0  0  0  0  0  0  0  0  0  0
    1.1097    2.4502    4.4968 H   0  0  0  0  0  0  0  0  0  0  0  0
   -0.5119    5.9753    3.2678 N   0  0  0  0  0  0  0  0  0  0  0  0
   -0.5978    7.3830    2.9562 C   0  0  0  0  0  0  0  0  0  0  0  0
   -0.9769    5.6469    4.1091 H   0  0  0  0  0  0  0  0  0  0  0  0
    0.2448    7.9144    3.4226 H   0  0  0  0  0  0  0  0  0  0  0  0
   -0.5590    7.5199    1.8655 H   0  0  0  0  0  0  0  0  0  0  0  0
   -1.5451    7.7868    3.3430 H   0  0  0  0  0  0  0  0  0  0  0  0
  1  3  1  0  0  0  0
  1  7  1  0  0  0  0
  1  2  2  0  0  0  0
 33 34  1  0  0  0  0
 34 42  1  0  0  0  0
 34 35  2  0  0  0  0
  8  9  1  0  0  0  0
  9 17  1  0  0  0  0
  9 10  2  0  0  0  0
 18 19  1  0  0  0  0
 19 32  1  0  0  0  0
 19 20  2  0  0  0  0
 22 23  1  0  0  0  0
 23 24  1  0  0  0  0
 23 25  2  0  0  0  0
 33 36  1  0  0  0  0
  8 11  1  0  0  0  0
 42 43  1  0  0  0  0
 21 22  1  0  0  0  0
 18 21  1  0  0  0  0
 32 33  1  0  0  0  0
  7  8  1  0  0  0  0
 17 18  1  0  0  0  0
  3  4  1  0  0  0  0
  3  5  1  0  0  0  0
  3  6  1  0  0  0  0
 36 39  1  0  0  0  0
 36 40  1  0  0  0  0
 36 41  1  0  0  0  0
 11 14  1  0  0  0  0
 11 15  1  0  0  0  0
 11 16  1  0  0  0  0
 43 45  1  0  0  0  0
 43 46  1  0  0  0  0
 43 47  1  0  0  0  0
 22 30  1  0  0  0  0
 22 31  1  0  0  0  0
 21 28  1  0  0  0  0
 21 29  1  0  0  0  0
 33 38  1  0  0  0  0
  8 13  1  0  0  0  0
 18 27  1  0  0  0  0
 42 44  1  0  0  0  0
  7 12  1  0  0  0  0
 32 37  1  0  0  0  0
 17 26  1  0  0  0  0
M  CHG  1  24  -1
M  END
$$$$

  -OEChem-05262214473D

 47 46  0     1  0  0  0  0  0999 V2000
    0.5093   -4.7265    3.0306 C   0  0  0  0  0  0  0  0  0  0  0  0
    1.2735   -4.4402    3.9448 O   0  0  0  0  0  0  0  0  0  0  0  0
   -0.4465   -5.8608    3.1982 C   0  0  0  0  0  0  0  0  0  0  0  0
   -0.0219   -6.8213    2.8645 H   0  0  0  0  0  0  0  0  0  0  0  0
   -0.7314   -6.0185    4.2509 H   0  0  0  0  0  0  0  0  0  0  0  0
   -1.3983   -5.7596    2.6527 H   0  0  0  0  0  0  0  0  0  0  0  0
    0.4252   -4.0886    1.8040 N   0  0  0  0  0  0  0  0  0  0  0  0
    1.2532   -2.9707    1.4349 C   0  0  2  0  0  0  0  0  0  0  0  0
    0.3395   -1.8293    1.0083 C   0  0  0  0  0  0  0  0  0  0  0  0
   -0.8136   -2.0027    0.6194 O   0  0  0  0  0  0  0  0  0  0  0  0
    2.2176   -3.3411    0.3189 C   0  0  0  0  0  0  0  0  0  0  0  0
   -0.2574   -4.4279    1.1287 H   0  0  0  0  0  0  0  0  0  0  0  0
    1.8087   -2.6785    2.3327 H   0  0  0  0  0  0  0  0  0  0  0  0
    1.6793   -3.6366   -0.5890 H   0  0  0  0  0  0  0  0  0  0  0  0
    2.8662   -2.4980    0.0589 H   0  0  0  0  0  0  0  0  0  0  0  0
    2.8538   -4.1816    0.6166 H   0  0  0  0  0  0  0  0  0  0  0  0
    0.9758   -0.5952    1.0708 N   0  0  0  0  0  0  0  0  0  0  0  0
    0.3258    0.6374    0.7059 C   0  0  2  0  0  0  0  0  0  0  0  0
   -0.0071    1.3797    1.9958 C   0  0  0  0  0  0  0  0  0  0  0  0
   -0.2868    0.8053    3.0461 O   0  0  0  0  0  0  0  0  0  0  0  0
   -0.9472    0.3942   -0.1137 C   0  0  0  0  0  0  0  0  0  0  0  0
   -0.6777   -0.1998   -1.4956 C   0  0  0  0  0  0  0  0  0  0  0  0
   -1.9098   -0.4902   -2.3589 C   0  0  0  0  0  0  0  0  0  0  0  0
   -3.0130   -0.3293   -1.7618 O   0  5  0  0  0  0  0  0  0  0  0  0
   -1.6884   -0.8367   -3.5519 O   0  0  0  0  0  0  0  0  0  0  0  0
    1.9288   -0.5463    1.4242 H   0  0  0  0  0  0  0  0  0  0  0  0
    1.0586    1.2238    0.1412 H   0  0  0  0  0  0  0  0  0  0  0  0
   -1.5085    1.3306   -0.2220 H   0  0  0  0  0  0  0  0  0  0  0  0
   -1.6069   -0.2909    0.4355 H   0  0  0  0  0  0  0  0  0  0  0  0
    0.0073    0.4489   -2.0546 H   0  0  0  0  0  0  0  0  0  0  0  0
   -0.1612   -1.1593   -1.3649 H   0  0  0  0  0  0  0  0  0  0  0  0
   -0.0002    2.7567    1.8218 N   0  0  0  0  0  0  0  0  0  0  0  0
   -0.2988    3.6828    2.8896 C   0  0  2  0  0  0  0  0  0  0  0  0
   -0.6406    5.0283    2.2633 C   0  0  0  0  0  0  0  0  0  0  0  0
   -0.2744    5.3561    1.1365 O   0  0  0  0  0  0  0  0  0  0  0  0
    0.8710    3.8129    3.8525 C   0  0  0  0  0  0  0  0  0  0  0  0
    0.2581    3.1441    0.9191 H   0  0  0  0  0  0  0  0  0  0  0  0
   -1.1770    3.2893    3.4131 H   0  0  0  0  0  0  0  0  0  0  0  0
    1.7602    4.2056    3.3460 H   0  0  0  0  0  0  0  0  0  0  0  0
    0.6327    4.4932    4.6768 H   0  0  0  0  0  0  0  0  0  0  0  0
    1.1346    2.8391    4.2793 H   0  0  0  0  0  0  0  0  0  0  0  0
   -1.3659    5.8368    3.1272 N   0  0  0  0  0  0  0  0  0  0  0  0
   -1.7996    7.1674    2.7702 C   0  0  0  0  0  0  0  0  0  0  0  0
   -1.6420    5.4762    4.0357 H   0  0  0  0  0  0  0  0  0  0  0  0
   -1.0468    7.8993    3.0980 H   0  0  0  0  0  0  0  0  0  0  0  0
   -1.9231    7.2323    1.6790 H   0  0  0  0  0  0  0  0  0  0  0  0
   -2.7597    7.3841    3.2613 H   0  0  0  0  0  0  0  0  0  0  0  0
  1  3  1  0  0  0  0
  1  7  1  0  0  0  0
  1  2  2  0  0  0  0
 33 34  1  0  0  0  0
 34 42  1  0  0  0  0
 34 35  2  0  0  0  0
  8  9  1  0  0  0  0
  9 17  1  0  0  0  0
  9 10  2  0  0  0  0
 18 19  1  0  0  0  0
 19 32  1  0  0  0  0
 19 20  2  0  0  0  0
 22 23  1  0  0  0  0
 23 24  1  0  0  0  0
 23 25  2  0  0  0  0
 33 36  1  0  0  0  0
  8 11  1  0  0  0  0
 42 43  1  0  0  0  0
 21 22  1  0  0  0  0
 18 21  1  0  0  0  0
 32 33  1  0  0  0  0
  7  8  1  0  0  0  0
 17 18  1  0  0  0  0
  3  4  1  0  0  0  0
  3  5  1  0  0  0  0
  3  6  1  0  0  0  0
 36 39  1  0  0  0  0
 36 40  1  0  0  0  0
 36 41  1  0  0  0  0
 11 14  1  0  0  0  0
 11 15  1  0  0  0  0
 11 16  1  0  0  0  0
 43 45  1  0  0  0  0
 43 46  1  0  0  0  0
 43 47  1  0  0  0  0
 22 30  1  0  0  0  0
 22 31  1  0  0  0  0
 21 28  1  0  0  0  0
 21 29  1  0  0  0  0
 33 38  1  0  0  0  0
  8 13  1  0  0  0  0
 18 27  1  0  0  0  0
 42 44  1  0  0  0  0
  7 12  1  0  0  0  0
 32 37  1  0  0  0  0
 17 26  1  0  0  0  0
M  CHG  1  24  -1
M  END
$$$$

  -OEChem-05262214473D

 47 46  0     1  0  0  0  0  0999 V2000
    0.5093   -4.7265    3.0306 C   0  0  0  0  0  0  0  0  0  0  0  0
    1.2735   -4.4402    3.9448 O   0  0  0  0  0  0  0  0  0  0  0  0
   -0.4465   -5.8608    3.1982 C   0  0  0  0  0  0  0  0  0  0  0  0
   -0.0219   -6.8213    2.8645 H   0  0  0  0  0  0  0  0  0  0  0  0
   -0.7314   -6.0185    4.2509 H   0  0  0  0  0  0  0  0  0  0  0  0
   -1.3983   -5.7596    2.6527 H   0  0  0  0  0  0  0  0  0  0  0  0
    0.4252   -4.0886    1.8040 N   0  0  0  0  0  0  0  0  0  0  0  0
    1.2532   -2.9707    1.4349 C   0  0  2  0  0  0  0  0  0  0  0  0
    0.3395   -1.8293    1.0083 C   0  0  0  0  0  0  0  0  0  0  0  0
   -0.8136   -2.0027    0.6194 O   0  0  0  0  0  0  0  0  0  0  0  0
    2.2176   -3.3411    0.3189 C   0  0  0  0  0  0  0  0  0  0  0  0
   -0.2574   -4.4279    1.1287 H   0  0  0  0  0  0  0  0  0  0  0  0
    1.8087   -2.6785    2.3327 H   0  0  0  0  0  0  0  0  0  0  0  0
    1.6793   -3.6366   -0.5890 H   0  0  0  0  0  0  0  0  0  0  0  0
    2.8662   -2.4980    0.0589 H   0  0  0  0  0  0  0  0  0  0  0  0
    2.8538   -4.1816    0.6166 H   0  0  0  0  0  0  0  0  0  0  0  0
    0.9758   -0.5952    1.0708 N   0  0  0  0  0  0  0  0  0  0  0  0
    0.3258    0.6374    0.7059 C   0  0  2  0  0  0  0  0  0  0  0  0
   -0.0071    1.3797    1.9958 C   0  0  0  0  0  0  0  0  0  0  0  0
   -0.0242    0.8341    3.0973 O   0  0  0  0  0  0  0  0  0  0  0  0
   -0.9472    0.3942   -0.1137 C   0  0  0  0  0  0  0  0  0  0  0  0
   -0.6777   -0.1998   -1.4956 C   0  0  0  0  0  0  0  0  0  0  0  0
   -1.9098   -0.4902   -2.3589 C   0  0  0  0  0  0  0  0  0  0  0  0
   -3.0130   -0.3293   -1.7618 O   0  5  0  0  0  0  0  0  0  0  0  0
   -1.6884   -0.8367   -3.5519 O   0  0  0  0  0  0  0  0  0  0  0  0
    1.9288   -0.5463    1.4242 H   0  0  0  0  0  0  0  0  0  0  0  0
    1.0586    1.2238    0.1412 H   0  0  0  0  0  0  0  0  0  0  0  0
   -1.5085    1.3306   -0.2220 H   0  0  0  0  0  0  0  0  0  0  0  0
   -1.6069   -0.2909    0.4355 H   0  0  0  0  0  0  0  0  0  0  0  0
    0.0073    0.4489   -2.0546 H   0  0  0  0  0  0  0  0  0  0  0  0
   -0.1612   -1.1593   -1.3649 H   0  0  0  0  0  0  0  0  0  0  0  0
   -0.3276    2.7101    1.7641 N   0  0  0  0  0  0  0  0  0  0  0  0
   -0.6948    3.6231    2.8217 C   0  0  2  0  0  0  0  0  0  0  0  0
   -1.3999    4.8159    2.1896 C   0  0  0  0  0  0  0  0  0  0  0  0
   -1.2535    5.1346    1.0114 O   0  0  0  0  0  0  0  0  0  0  0  0
    0.5234    4.0696    3.6150 C   0  0  0  0  0  0  0  0  0  0  0  0
   -0.2720    3.0794    0.8196 H   0  0  0  0  0  0  0  0  0  0  0  0
   -1.3943    3.0877    3.4730 H   0  0  0  0  0  0  0  0  0  0  0  0
    1.2356    4.6079    2.9791 H   0  0  0  0  0  0  0  0  0  0  0  0
    0.2400    4.7390    4.4340 H   0  0  0  0  0  0  0  0  0  0  0  0
    1.0462    3.2080    4.0442 H   0  0  0  0  0  0  0  0  0  0  0  0
   -2.1782    5.5082    3.1067 N   0  0  0  0  0  0  0  0  0  0  0  0
   -2.9367    6.6856    2.7540 C   0  0  0  0  0  0  0  0  0  0  0  0
   -2.2564    5.1615    4.0583 H   0  0  0  0  0  0  0  0  0  0  0  0
   -2.3319    7.5837    2.9480 H   0  0  0  0  0  0  0  0  0  0  0  0
   -3.2012    6.6453    1.6871 H   0  0  0  0  0  0  0  0  0  0  0  0
   -3.8551    6.7246    3.3583 H   0  0  0  0  0  0  0  0  0  0  0  0
  1  3  1  0  0  0  0
  1  7  1  0  0  0  0
  1  2  2  0  0  0  0
 33 34  1  0  0  0  0
 34 42  1  0  0  0  0
 34 35  2  0  0  0  0
  8  9  1  0  0  0  0
  9 17  1  0  0  0  0
  9 10  2  0  0  0  0
 18 19  1  0  0  0  0
 19 32  1  0  0  0  0
 19 20  2  0  0  0  0
 22 23  1  0  0  0  0
 23 24  1  0  0  0  0
 23 25  2  0  0  0  0
 33 36  1  0  0  0  0
  8 11  1  0  0  0  0
 42 43  1  0  0  0  0
 21 22  1  0  0  0  0
 18 21  1  0  0  0  0
 32 33  1  0  0  0  0
  7  8  1  0  0  0  0
 17 18  1  0  0  0  0
  3  4  1  0  0  0  0
  3  5  1  0  0  0  0
  3  6  1  0  0  0  0
 36 39  1  0  0  0  0
 36 40  1  0  0  0  0
 36 41  1  0  0  0  0
 11 14  1  0  0  0  0
 11 15  1  0  0  0  0
 11 16  1  0  0  0  0
 43 45  1  0  0  0  0
 43 46  1  0  0  0  0
 43 47  1  0  0  0  0
 22 30  1  0  0  0  0
 22 31  1  0  0  0  0
 21 28  1  0  0  0  0
 21 29  1  0  0  0  0
 33 38  1  0  0  0  0
  8 13  1  0  0  0  0
 18 27  1  0  0  0  0
 42 44  1  0  0  0  0
  7 12  1  0  0  0  0
 32 37  1  0  0  0  0
 17 26  1  0  0  0  0
M  CHG  1  24  -1
M  END
$$$$

  -OEChem-05262214473D

 47 46  0     1  0  0  0  0  0999 V2000
    0.5093   -4.7265    3.0306 C   0  0  0  0  0  0  0  0  0  0  0  0
    1.2735   -4.4402    3.9448 O   0  0  0  0  0  0  0  0  0  0  0  0
   -0.4465   -5.8608    3.1982 C   0  0  0  0  0  0  0  0  0  0  0  0
   -0.0219   -6.8213    2.8645 H   0  0  0  0  0  0  0  0  0  0  0  0
   -0.7314   -6.0185    4.2509 H   0  0  0  0  0  0  0  0  0  0  0  0
   -1.3983   -5.7596    2.6527 H   0  0  0  0  0  0  0  0  0  0  0  0
    0.4252   -4.0886    1.8040 N   0  0  0  0  0  0  0  0  0  0  0  0
    1.2532   -2.9707    1.4349 C   0  0  2  0  0  0  0  0  0  0  0  0
    0.3395   -1.8293    1.0083 C   0  0  0  0  0  0  0  0  0  0  0  0
   -0.8136   -2.0027    0.6194 O   0  0  0  0  0  0  0  0  0  0  0  0
    2.2176   -3.3411    0.3189 C   0  0  0  0  0  0  0  0  0  0  0  0
   -0.2574   -4.4279    1.1287 H   0  0  0  0  0  0  0  0  0  0  0  0
    1.8087   -2.6785    2.3327 H   0  0  0  0  0  0  0  0  0  0  0  0
    1.6793   -3.6366   -0.5890 H   0  0  0  0  0  0  0  0  0  0  0  0
    2.8662   -2.4980    0.0589 H   0  0  0  0  0  0  0  0  0  0  0  0
    2.8538   -4.1816    0.6166 H   0  0  0  0  0  0  0  0  0  0  0  0
    0.9758   -0.5952    1.0708 N   0  0  0  0  0  0  0  0  0  0  0  0
    0.3258    0.6374    0.7059 C   0  0  2  0  0  0  0  0  0  0  0  0
    0.3315    1.5403    1.9349 C   0  0  0  0  0  0  0  0  0  0  0  0
    0.7894    1.1905    3.0208 O   0  0  0  0  0  0  0  0  0  0  0  0
   -1.1101    0.4070    0.2196 C   0  0  0  0  0  0  0  0  0  0  0  0
   -1.1904   -0.3540   -1.1031 C   0  0  0  0  0  0  0  0  0  0  0  0
   -2.5989   -0.6393   -1.6348 C   0  0  0  0  0  0  0  0  0  0  0  0
   -3.5292   -0.3276   -0.8367 O   0  5  0  0  0  0  0  0  0  0  0  0
   -2.6705   -1.1306   -2.7949 O   0  0  0  0  0  0  0  0  0  0  0  0
    1.9288   -0.5463    1.4242 H   0  0  0  0  0  0  0  0  0  0  0  0
    0.9422    1.0989   -0.0731 H   0  0  0  0  0  0  0  0  0  0  0  0
   -1.6315    1.3672    0.1206 H   0  0  0  0  0  0  0  0  0  0  0  0
   -1.6641   -0.1599    0.9799 H   0  0  0  0  0  0  0  0  0  0  0  0
   -0.6160    0.1736   -1.8739 H   0  0  0  0  0  0  0  0  0  0  0  0
   -0.7088   -1.3311   -0.9697 H   0  0  0  0  0  0  0  0  0  0  0  0
   -0.2766    2.7630    1.6868 N   0  0  0  0  0  0  0  0  0  0  0  0
   -0.4122    3.7893    2.6942 C   0  0  2  0  0  0  0  0  0  0  0  0
   -1.4885    4.7627    2.2322 C   0  0  0  0  0  0  0  0  0  0  0  0
   -1.8137    4.8934    1.0540 O   0  0  0  0  0  0  0  0  0  0  0  0
    0.9062    4.5093    2.9315 C   0  0  0  0  0  0  0  0  0  0  0  0
   -0.6142    2.9715    0.7518 H   0  0  0  0  0  0  0  0  0  0  0  0
   -0.7403    3.2899    3.6124 H   0  0  0  0  0  0  0  0  0  0  0  0
    1.2509    5.0158    2.0226 H   0  0  0  0  0  0  0  0  0  0  0  0
    0.8087    5.2675    3.7155 H   0  0  0  0  0  0  0  0  0  0  0  0
    1.6867    3.8033    3.2349 H   0  0  0  0  0  0  0  0  0  0  0  0
   -2.0131    5.4990    3.2852 N   0  0  0  0  0  0  0  0  0  0  0  0
   -3.0401    6.4980    3.1026 C   0  0  0  0  0  0  0  0  0  0  0  0
   -1.6978    5.3110    4.2323 H   0  0  0  0  0  0  0  0  0  0  0  0
   -2.5726    7.4832    2.9589 H   0  0  0  0  0  0  0  0  0  0  0  0
   -3.6434    6.2459    2.2181 H   0  0  0  0  0  0  0  0  0  0  0  0
   -3.6869    6.5254    3.9919 H   0  0  0  0  0  0  0  0  0  0  0  0
  1  3  1  0  0  0  0
  1  7  1  0  0  0  0
  1  2  2  0  0  0  0
 33 34  1  0  0  0  0
 34 42  1  0  0  0  0
 34 35  2  0  0  0  0
  8  9  1  0  0  0  0
  9 17  1  0  0  0  0
  9 10  2  0  0  0  0
 18 19  1  0  0  0  0
 19 32  1  0  0  0  0
 19 20  2  0  0  0  0
 22 23  1  0  0  0  0
 23 24  1  0  0  0  0
 23 25  2  0  0  0  0
 33 36  1  0  0  0  0
  8 11  1  0  0  0  0
 42 43  1  0  0  0  0
 21 22  1  0  0  0  0
 18 21  1  0  0  0  0
 32 33  1  0  0  0  0
  7  8  1  0  0  0  0
 17 18  1  0  0  0  0
  3  4  1  0  0  0  0
  3  5  1  0  0  0  0
  3  6  1  0  0  0  0
 36 39  1  0  0  0  0
 36 40  1  0  0  0  0
 36 41  1  0  0  0  0
 11 14  1  0  0  0  0
 11 15  1  0  0  0  0
 11 16  1  0  0  0  0
 43 45  1  0  0  0  0
 43 46  1  0  0  0  0
 43 47  1  0  0  0  0
 22 30  1  0  0  0  0
 22 31  1  0  0  0  0
 21 28  1  0  0  0  0
 21 29  1  0  0  0  0
 33 38  1  0  0  0  0
  8 13  1  0  0  0  0
 18 27  1  0  0  0  0
 42 44  1  0  0  0  0
  7 12  1  0  0  0  0
 32 37  1  0  0  0  0
 17 26  1  0  0  0  0
M  CHG  1  24  -1
M  END
$$$$

  -OEChem-05262214473D

 47 46  0     1  0  0  0  0  0999 V2000
    0.5093   -4.7265    3.0306 C   0  0  0  0  0  0  0  0  0  0  0  0
    1.2735   -4.4402    3.9448 O   0  0  0  0  0  0  0  0  0  0  0  0
   -0.4465   -5.8608    3.1982 C   0  0  0  0  0  0  0  0  0  0  0  0
   -0.0219   -6.8213    2.8645 H   0  0  0  0  0  0  0  0  0  0  0  0
   -0.7314   -6.0185    4.2509 H   0  0  0  0  0  0  0  0  0  0  0  0
   -1.3983   -5.7596    2.6527 H   0  0  0  0  0  0  0  0  0  0  0  0
    0.4252   -4.0886    1.8040 N   0  0  0  0  0  0  0  0  0  0  0  0
    1.2532   -2.9707    1.4349 C   0  0  2  0  0  0  0  0  0  0  0  0
    0.3395   -1.8293    1.0083 C   0  0  0  0  0  0  0  0  0  0  0  0
   -0.8136   -2.0027    0.6194 O   0  0  0  0  0  0  0  0  0  0  0  0
    2.2176   -3.3411    0.3189 C   0  0  0  0  0  0  0  0  0  0  0  0
   -0.2574   -4.4279    1.1287 H   0  0  0  0  0  0  0  0  0  0  0  0
    1.8087   -2.6785    2.3327 H   0  0  0  0  0  0  0  0  0  0  0  0
    1.6793   -3.6366   -0.5890 H   0  0  0  0  0  0  0  0  0  0  0  0
    2.8662   -2.4980    0.0589 H   0  0  0  0  0  0  0  0  0  0  0  0
    2.8538   -4.1816    0.6166 H   0  0  0  0  0  0  0  0  0  0  0  0
    0.9758   -0.5952    1.0708 N   0  0  0  0  0  0  0  0  0  0  0  0
    0.3258    0.6374    0.7059 C   0  0  2  0  0  0  0  0  0  0  0  0
    0.3315    1.5403    1.9349 C   0  0  0  0  0  0  0  0  0  0  0  0
    1.0132    1.3104    2.9317 O   0  0  0  0  0  0  0  0  0  0  0  0
   -1.1101    0.4070    0.2196 C   0  0  0  0  0  0  0  0  0  0  0  0
   -1.1904   -0.3540   -1.1031 C   0  0  0  0  0  0  0  0  0  0  0  0
   -2.5989   -0.6393   -1.6348 C   0  0  0  0  0  0  0  0  0  0  0  0
   -3.5292   -0.3276   -0.8367 O   0  5  0  0  0  0  0  0  0  0  0  0
   -2.6705   -1.1306   -2.7949 O   0  0  0  0  0  0  0  0  0  0  0  0
    1.9288   -0.5463    1.4242 H   0  0  0  0  0  0  0  0  0  0  0  0
    0.9422    1.0989   -0.0731 H   0  0  0  0  0  0  0  0  0  0  0  0
   -1.6315    1.3672    0.1206 H   0  0  0  0  0  0  0  0  0  0  0  0
   -1.6641   -0.1599    0.9799 H   0  0  0  0  0  0  0  0  0  0  0  0
   -0.6160    0.1736   -1.8739 H   0  0  0  0  0  0  0  0  0  0  0  0
   -0.7088   -1.3311   -0.9697 H   0  0  0  0  0  0  0  0  0  0  0  0
   -0.5489    2.6052    1.8039 N   0  0  0  0  0  0  0  0  0  0  0  0
   -0.7393    3.5960    2.8378 C   0  0  2  0  0  0  0  0  0  0  0  0
   -2.0528    4.3161    2.5630 C   0  0  0  0  0  0  0  0  0  0  0  0
   -2.5748    4.3581    1.4508 O   0  0  0  0  0  0  0  0  0  0  0  0
    0.4204    4.5788    2.8828 C   0  0  0  0  0  0  0  0  0  0  0  0
   -1.0618    2.7245    0.9354 H   0  0  0  0  0  0  0  0  0  0  0  0
   -0.8113    3.0531    3.7866 H   0  0  0  0  0  0  0  0  0  0  0  0
    0.5084    5.1321    1.9406 H   0  0  0  0  0  0  0  0  0  0  0  0
    0.2884    5.3118    3.6854 H   0  0  0  0  0  0  0  0  0  0  0  0
    1.3681    4.0559    3.0509 H   0  0  0  0  0  0  0  0  0  0  0  0
   -2.5515    4.9429    3.6964 N   0  0  0  0  0  0  0  0  0  0  0  0
   -3.7798    5.7026    3.6905 C   0  0  0  0  0  0  0  0  0  0  0  0
   -2.0625    4.8392    4.5807 H   0  0  0  0  0  0  0  0  0  0  0  0
   -3.5557    6.7614    3.4938 H   0  0  0  0  0  0  0  0  0  0  0  0
   -4.4457    5.3168    2.9045 H   0  0  0  0  0  0  0  0  0  0  0  0
   -4.2739    5.6081    4.6687 H   0  0  0  0  0  0  0  0  0  0  0  0
  1  3  1  0  0  0  0
  1  7  1  0  0  0  0
  1  2  2  0  0  0  0
 33 34  1  0  0  0  0
 34 42  1  0  0  0  0
 34 35  2  0  0  0  0
  8  9  1  0  0  0  0
  9 17  1  0  0  0  0
  9 10  2  0  0  0  0
 18 19  1  0  0  0  0
 19 32  1  0  0  0  0
 19 20  2  0  0  0  0
 22 23  1  0  0  0  0
 23 24  1  0  0  0  0
 23 25  2  0  0  0  0
 33 36  1  0  0  0  0
  8 11  1  0  0  0  0
 42 43  1  0  0  0  0
 21 22  1  0  0  0  0
 18 21  1  0  0  0  0
 32 33  1  0  0  0  0
  7  8  1  0  0  0  0
 17 18  1  0  0  0  0
  3  4  1  0  0  0  0
  3  5  1  0  0  0  0
  3  6  1  0  0  0  0
 36 39  1  0  0  0  0
 36 40  1  0  0  0  0
 36 41  1  0  0  0  0
 11 14  1  0  0  0  0
 11 15  1  0  0  0  0
 11 16  1  0  0  0  0
 43 45  1  0  0  0  0
 43 46  1  0  0  0  0
 43 47  1  0  0  0  0
 22 30  1  0  0  0  0
 22 31  1  0  0  0  0
 21 28  1  0  0  0  0
 21 29  1  0  0  0  0
 33 38  1  0  0  0  0
  8 13  1  0  0  0  0
 18 27  1  0  0  0  0
 42 44  1  0  0  0  0
  7 12  1  0  0  0  0
 32 37  1  0  0  0  0
 17 26  1  0  0  0  0
M  CHG  1  24  -1
M  END
$$$$

  -OEChem-05262214473D

 47 46  0     1  0  0  0  0  0999 V2000
    0.5093   -4.7265    3.0306 C   0  0  0  0  0  0  0  0  0  0  0  0
    1.2735   -4.4402    3.9448 O   0  0  0  0  0  0  0  0  0  0  0  0
   -0.4465   -5.8608    3.1982 C   0  0  0  0  0  0  0  0  0  0  0  0
   -0.0219   -6.8213    2.8645 H   0  0  0  0  0  0  0  0  0  0  0  0
   -0.7314   -6.0185    4.2509 H   0  0  0  0  0  0  0  0  0  0  0  0
   -1.3983   -5.7596    2.6527 H   0  0  0  0  0  0  0  0  0  0  0  0
    0.4252   -4.0886    1.8040 N   0  0  0  0  0  0  0  0  0  0  0  0
    1.2532   -2.9707    1.4349 C   0  0  2  0  0  0  0  0  0  0  0  0
    0.3395   -1.8293    1.0083 C   0  0  0  0  0  0  0  0  0  0  0  0
   -0.8136   -2.0027    0.6194 O   0  0  0  0  0  0  0  0  0  0  0  0
    2.2176   -3.3411    0.3189 C   0  0  0  0  0  0  0  0  0  0  0  0
   -0.2574   -4.4279    1.1287 H   0  0  0  0  0  0  0  0  0  0  0  0
    1.8087   -2.6785    2.3327 H   0  0  0  0  0  0  0  0  0  0  0  0
    1.6793   -3.6366   -0.5890 H   0  0  0  0  0  0  0  0  0  0  0  0
    2.8662   -2.4980    0.0589 H   0  0  0  0  0  0  0  0  0  0  0  0
    2.8538   -4.1816    0.6166 H   0  0  0  0  0  0  0  0  0  0  0  0
    0.9758   -0.5952    1.0708 N   0  0  0  0  0  0  0  0  0  0  0  0
    0.3258    0.6374    0.7059 C   0  0  2  0  0  0  0  0  0  0  0  0
    0.3315    1.5403    1.9349 C   0  0  0  0  0  0  0  0  0  0  0  0
    1.1908    1.4729    2.8115 O   0  0  0  0  0  0  0  0  0  0  0  0
   -1.1101    0.4070    0.2196 C   0  0  0  0  0  0  0  0  0  0  0  0
   -1.1904   -0.3540   -1.1031 C   0  0  0  0  0  0  0  0  0  0  0  0
   -2.5989   -0.6393   -1.6348 C   0  0  0  0  0  0  0  0  0  0  0  0
   -3.5292   -0.3276   -0.8367 O   0  5  0  0  0  0  0  0  0  0  0  0
   -2.6705   -1.1306   -2.7949 O   0  0  0  0  0  0  0  0  0  0  0  0
    1.9288   -0.5463    1.4242 H   0  0  0  0  0  0  0  0  0  0  0  0
    0.9422    1.0989   -0.0731 H   0  0  0  0  0  0  0  0  0  0  0  0
   -1.6315    1.3672    0.1206 H   0  0  0  0  0  0  0  0  0  0  0  0
   -1.6641   -0.1599    0.9799 H   0  0  0  0  0  0  0  0  0  0  0  0
   -0.6160    0.1736   -1.8739 H   0  0  0  0  0  0  0  0  0  0  0  0
   -0.7088   -1.3311   -0.9697 H   0  0  0  0  0  0  0  0  0  0  0  0
   -0.7610    2.3960    1.9587 N   0  0  0  0  0  0  0  0  0  0  0  0
   -0.9929    3.3408    3.0265 C   0  0  2  0  0  0  0  0  0  0  0  0
   -2.4540    3.7668    2.9684 C   0  0  0  0  0  0  0  0  0  0  0  0
   -3.1375    3.6820    1.9503 O   0  0  0  0  0  0  0  0  0  0  0  0
   -0.0708    4.5445    2.9102 C   0  0  0  0  0  0  0  0  0  0  0  0
   -1.4145    2.3923    1.1811 H   0  0  0  0  0  0  0  0  0  0  0  0
   -0.8039    2.8095    3.9656 H   0  0  0  0  0  0  0  0  0  0  0  0
   -0.2456    5.0896    1.9754 H   0  0  0  0  0  0  0  0  0  0  0  0
   -0.2280    5.2461    3.7362 H   0  0  0  0  0  0  0  0  0  0  0  0
    0.9794    4.2335    2.9222 H   0  0  0  0  0  0  0  0  0  0  0  0
   -2.8926    4.2929    4.1755 N   0  0  0  0  0  0  0  0  0  0  0  0
   -4.2383    4.7795    4.3709 C   0  0  0  0  0  0  0  0  0  0  0  0
   -2.2631    4.3071    4.9726 H   0  0  0  0  0  0  0  0  0  0  0  0
   -4.2728    5.8586    4.1605 H   0  0  0  0  0  0  0  0  0  0  0  0
   -4.9216    4.2512    3.6896 H   0  0  0  0  0  0  0  0  0  0  0  0
   -4.5459    4.5989    5.4114 H   0  0  0  0  0  0  0  0  0  0  0  0
  1  3  1  0  0  0  0
  1  7  1  0  0  0  0
  1  2  2  0  0  0  0
 33 34  1  0  0  0  0
 34 42  1  0  0  0  0
 34 35  2  0  0  0  0
  8  9  1  0  0  0  0
  9 17  1  0  0  0  0
  9 10  2  0  0  0  0
 18 19  1  0  0  0  0
 19 32  1  0  0  0  0
 19 20  2  0  0  0  0
 22 23  1  0  0  0  0
 23 24  1  0  0  0  0
 23 25  2  0  0  0  0
 33 36  1  0  0  0  0
  8 11  1  0  0  0  0
 42 43  1  0  0  0  0
 21 22  1  0  0  0  0
 18 21  1  0  0  0  0
 32 33  1  0  0  0  0
  7  8  1  0  0  0  0
 17 18  1  0  0  0  0
  3  4  1  0  0  0  0
  3  5  1  0  0  0  0
  3  6  1  0  0  0  0
 36 39  1  0  0  0  0
 36 40  1  0  0  0  0
 36 41  1  0  0  0  0
 11 14  1  0  0  0  0
 11 15  1  0  0  0  0
 11 16  1  0  0  0  0
 43 45  1  0  0  0  0
 43 46  1  0  0  0  0
 43 47  1  0  0  0  0
 22 30  1  0  0  0  0
 22 31  1  0  0  0  0
 21 28  1  0  0  0  0
 21 29  1  0  0  0  0
 33 38  1  0  0  0  0
  8 13  1  0  0  0  0
 18 27  1  0  0  0  0
 42 44  1  0  0  0  0
  7 12  1  0  0  0  0
 32 37  1  0  0  0  0
 17 26  1  0  0  0  0
M  CHG  1  24  -1
M  END
$$$$

  -OEChem-05262214473D

 47 46  0     1  0  0  0  0  0999 V2000
    0.5093   -4.7265    3.0306 C   0  0  0  0  0  0  0  0  0  0  0  0
    1.2735   -4.4402    3.9448 O   0  0  0  0  0  0  0  0  0  0  0  0
   -0.4465   -5.8608    3.1982 C   0  0  0  0  0  0  0  0  0  0  0  0
   -0.0219   -6.8213    2.8645 H   0  0  0  0  0  0  0  0  0  0  0  0
   -0.7314   -6.0185    4.2509 H   0  0  0  0  0  0  0  0  0  0  0  0
   -1.3983   -5.7596    2.6527 H   0  0  0  0  0  0  0  0  0  0  0  0
    0.4252   -4.0886    1.8040 N   0  0  0  0  0  0  0  0  0  0  0  0
    1.2532   -2.9707    1.4349 C   0  0  2  0  0  0  0  0  0  0  0  0
    0.3395   -1.8293    1.0083 C   0  0  0  0  0  0  0  0  0  0  0  0
   -0.8136   -2.0027    0.6194 O   0  0  0  0  0  0  0  0  0  0  0  0
    2.2176   -3.3411    0.3189 C   0  0  0  0  0  0  0  0  0  0  0  0
   -0.2574   -4.4279    1.1287 H   0  0  0  0  0  0  0  0  0  0  0  0
    1.8087   -2.6785    2.3327 H   0  0  0  0  0  0  0  0  0  0  0  0
    1.6793   -3.6366   -0.5890 H   0  0  0  0  0  0  0  0  0  0  0  0
    2.8662   -2.4980    0.0589 H   0  0  0  0  0  0  0  0  0  0  0  0
    2.8538   -4.1816    0.6166 H   0  0  0  0  0  0  0  0  0  0  0  0
    0.9758   -0.5952    1.0708 N   0  0  0  0  0  0  0  0  0  0  0  0
    0.3258    0.6374    0.7059 C   0  0  2  0  0  0  0  0  0  0  0  0
    0.3315    1.5403    1.9349 C   0  0  0  0  0  0  0  0  0  0  0  0
    1.3100    1.6671    2.6682 O   0  0  0  0  0  0  0  0  0  0  0  0
   -1.1101    0.4070    0.2196 C   0  0  0  0  0  0  0  0  0  0  0  0
   -1.1904   -0.3540   -1.1031 C   0  0  0  0  0  0  0  0  0  0  0  0
   -2.5989   -0.6393   -1.6348 C   0  0  0  0  0  0  0  0  0  0  0  0
   -3.5292   -0.3276   -0.8367 O   0  5  0  0  0  0  0  0  0  0  0  0
   -2.6705   -1.1306   -2.7949 O   0  0  0  0  0  0  0  0  0  0  0  0
    1.9288   -0.5463    1.4242 H   0  0  0  0  0  0  0  0  0  0  0  0
    0.9422    1.0989   -0.0731 H   0  0  0  0  0  0  0  0  0  0  0  0
   -1.6315    1.3672    0.1206 H   0  0  0  0  0  0  0  0  0  0  0  0
   -1.6641   -0.1599    0.9799 H   0  0  0  0  0  0  0  0  0  0  0  0
   -0.6160    0.1736   -1.8739 H   0  0  0  0  0  0  0  0  0  0  0  0
   -0.7088   -1.3311   -0.9697 H   0  0  0  0  0  0  0  0  0  0  0  0
   -0.8985    2.1494    2.1405 N   0  0  0  0  0  0  0  0  0  0  0  0
   -1.1558    3.0413    3.2473 C   0  0  2  0  0  0  0  0  0  0  0  0
   -2.6648    3.1521    3.4211 C   0  0  0  0  0  0  0  0  0  0  0  0
   -3.4635    2.9110    2.5182 O   0  0  0  0  0  0  0  0  0  0  0  0
   -0.5339    4.4090    3.0120 C   0  0  0  0  0  0  0  0  0  0  0  0
   -1.6482    1.9976    1.4722 H   0  0  0  0  0  0  0  0  0  0  0  0
   -0.7184    2.5755    4.1371 H   0  0  0  0  0  0  0  0  0  0  0  0
   -0.9598    4.8912    2.1245 H   0  0  0  0  0  0  0  0  0  0  0  0
   -0.7054    5.0748    3.8642 H   0  0  0  0  0  0  0  0  0  0  0  0
    0.5472    4.3242    2.8576 H   0  0  0  0  0  0  0  0  0  0  0  0
   -3.0130    3.5935    4.6899 N   0  0  0  0  0  0  0  0  0  0  0  0
   -4.3844    3.7915    5.0974 C   0  0  0  0  0  0  0  0  0  0  0  0
   -2.2857    3.7509    5.3813 H   0  0  0  0  0  0  0  0  0  0  0  0
   -4.6750    4.8364    4.9135 H   0  0  0  0  0  0  0  0  0  0  0  0
   -5.0387    3.1220    4.5198 H   0  0  0  0  0  0  0  0  0  0  0  0
   -4.4843    3.5666    6.1696 H   0  0  0  0  0  0  0  0  0  0  0  0
  1  3  1  0  0  0  0
  1  7  1  0  0  0  0
  1  2  2  0  0  0  0
 33 34  1  0  0  0  0
 34 42  1  0  0  0  0
 34 35  2  0  0  0  0
  8  9  1  0  0  0  0
  9 17  1  0  0  0  0
  9 10  2  0  0  0  0
 18 19  1  0  0  0  0
 19 32  1  0  0  0  0
 19 20  2  0  0  0  0
 22 23  1  0  0  0  0
 23 24  1  0  0  0  0
 23 25  2  0  0  0  0
 33 36  1  0  0  0  0
  8 11  1  0  0  0  0
 42 43  1  0  0  0  0
 21 22  1  0  0  0  0
 18 21  1  0  0  0  0
 32 33  1  0  0  0  0
  7  8  1  0  0  0  0
 17 18  1  0  0  0  0
  3  4  1  0  0  0  0
  3  5  1  0  0  0  0
  3  6  1  0  0  0  0
 36 39  1  0  0  0  0
 36 40  1  0  0  0  0
 36 41  1  0  0  0  0
 11 14  1  0  0  0  0
 11 15  1  0  0  0  0
 11 16  1  0  0  0  0
 43 45  1  0  0  0  0
 43 46  1  0  0  0  0
 43 47  1  0  0  0  0
 22 30  1  0  0  0  0
 22 31  1  0  0  0  0
 21 28  1  0  0  0  0
 21 29  1  0  0  0  0
 33 38  1  0  0  0  0
  8 13  1  0  0  0  0
 18 27  1  0  0  0  0
 42 44  1  0  0  0  0
  7 12  1  0  0  0  0
 32 37  1  0  0  0  0
 17 26  1  0  0  0  0
M  CHG  1  24  -1
M  END
$$$$

  -OEChem-05262214473D

 47 46  0     1  0  0  0  0  0999 V2000
    0.5093   -4.7265    3.0306 C   0  0  0  0  0  0  0  0  0  0  0  0
    1.2735   -4.4402    3.9448 O   0  0  0  0  0  0  0  0  0  0  0  0
   -0.4465   -5.8608    3.1982 C   0  0  0  0  0  0  0  0  0  0  0  0
   -0.0219   -6.8213    2.8645 H   0  0  0  0  0  0  0  0  0  0  0  0
   -0.7314   -6.0185    4.2509 H   0  0  0  0  0  0  0  0  0  0  0  0
   -1.3983   -5.7596    2.6527 H   0  0  0  0  0  0  0  0  0  0  0  0
    0.4252   -4.0886    1.8040 N   0  0  0  0  0  0  0  0  0  0  0  0
    1.2532   -2.9707    1.4349 C   0  0  2  0  0  0  0  0  0  0  0  0
    0.3395   -1.8293    1.0083 C   0  0  0  0  0  0  0  0  0  0  0  0
   -0.8136   -2.0027    0.6194 O   0  0  0  0  0  0  0  0  0  0  0  0
    2.2176   -3.3411    0.3189 C   0  0  0  0  0  0  0  0  0  0  0  0
   -0.2574   -4.4279    1.1287 H   0  0  0  0  0  0  0  0  0  0  0  0
    1.8087   -2.6785    2.3327 H   0  0  0  0  0  0  0  0  0  0  0  0
    1.6793   -3.6366   -0.5890 H   0  0  0  0  0  0  0  0  0  0  0  0
    2.8662   -2.4980    0.0589 H   0  0  0  0  0  0  0  0  0  0  0  0
    2.8538   -4.1816    0.6166 H   0  0  0  0  0  0  0  0  0  0  0  0
    0.9758   -0.5952    1.0708 N   0  0  0  0  0  0  0  0  0  0  0  0
    0.3258    0.6374    0.7059 C   0  0  2  0  0  0  0  0  0  0  0  0
    0.3315    1.5403    1.9349 C   0  0  0  0  0  0  0  0  0  0  0  0
    1.3627    1.8797    2.5118 O   0  0  0  0  0  0  0  0  0  0  0  0
   -1.1101    0.4070    0.2196 C   0  0  0  0  0  0  0  0  0  0  0  0
   -1.1904   -0.3540   -1.1031 C   0  0  0  0  0  0  0  0  0  0  0  0
   -2.5989   -0.6393   -1.6348 C   0  0  0  0  0  0  0  0  0  0  0  0
   -3.5292   -0.3276   -0.8367 O   0  5  0  0  0  0  0  0  0  0  0  0
   -2.6705   -1.1306   -2.7949 O   0  0  0  0  0  0  0  0  0  0  0  0
    1.9288   -0.5463    1.4242 H   0  0  0  0  0  0  0  0  0  0  0  0
    0.9422    1.0989   -0.0731 H   0  0  0  0  0  0  0  0  0  0  0  0
   -1.6315    1.3672    0.1206 H   0  0  0  0  0  0  0  0  0  0  0  0
   -1.6641   -0.1599    0.9799 H   0  0  0  0  0  0  0  0  0  0  0  0
   -0.6160    0.1736   -1.8739 H   0  0  0  0  0  0  0  0  0  0  0  0
   -0.7088   -1.3311   -0.9697 H   0  0  0  0  0  0  0  0  0  0  0  0
   -0.9521    1.8824    2.3369 N   0  0  0  0  0  0  0  0  0  0  0  0
   -1.2168    2.7178    3.4853 C   0  0  2  0  0  0  0  0  0  0  0  0
   -2.6709    2.5140    3.8899 C   0  0  0  0  0  0  0  0  0  0  0  0
   -3.5305    2.0977    3.1161 O   0  0  0  0  0  0  0  0  0  0  0  0
   -0.9374    4.1814    3.1811 C   0  0  0  0  0  0  0  0  0  0  0  0
   -1.7470    1.5673    1.7888 H   0  0  0  0  0  0  0  0  0  0  0  0
   -0.5608    2.3672    4.2894 H   0  0  0  0  0  0  0  0  0  0  0  0
   -1.5853    4.5505    2.3778 H   0  0  0  0  0  0  0  0  0  0  0  0
   -1.1111    4.8097    4.0609 H   0  0  0  0  0  0  0  0  0  0  0  0
    0.1009    4.3217    2.8616 H   0  0  0  0  0  0  0  0  0  0  0  0
   -2.9047    2.8923    5.2046 N   0  0  0  0  0  0  0  0  0  0  0  0
   -4.2081    2.8060    5.8207 C   0  0  0  0  0  0  0  0  0  0  0  0
   -2.1290    3.2086    5.7790 H   0  0  0  0  0  0  0  0  0  0  0  0
   -4.7348    3.7643    5.7014 H   0  0  0  0  0  0  0  0  0  0  0  0
   -4.7891    2.0059    5.3386 H   0  0  0  0  0  0  0  0  0  0  0  0
   -4.0933    2.5816    6.8914 H   0  0  0  0  0  0  0  0  0  0  0  0
  1  3  1  0  0  0  0
  1  7  1  0  0  0  0
  1  2  2  0  0  0  0
 33 34  1  0  0  0  0
 34 42  1  0  0  0  0
 34 35  2  0  0  0  0
  8  9  1  0  0  0  0
  9 17  1  0  0  0  0
  9 10  2  0  0  0  0
 18 19  1  0  0  0  0
 19 32  1  0  0  0  0
 19 20  2  0  0  0  0
 22 23  1  0  0  0  0
 23 24  1  0  0  0  0
 23 25  2  0  0  0  0
 33 36  1  0  0  0  0
  8 11  1  0  0  0  0
 42 43  1  0  0  0  0
 21 22  1  0  0  0  0
 18 21  1  0  0  0  0
 32 33  1  0  0  0  0
  7  8  1  0  0  0  0
 17 18  1  0  0  0  0
  3  4  1  0  0  0  0
  3  5  1  0  0  0  0
  3  6  1  0  0  0  0
 36 39  1  0  0  0  0
 36 40  1  0  0  0  0
 36 41  1  0  0  0  0
 11 14  1  0  0  0  0
 11 15  1  0  0  0  0
 11 16  1  0  0  0  0
 43 45  1  0  0  0  0
 43 46  1  0  0  0  0
 43 47  1  0  0  0  0
 22 30  1  0  0  0  0
 22 31  1  0  0  0  0
 21 28  1  0  0  0  0
 21 29  1  0  0  0  0
 33 38  1  0  0  0  0
  8 13  1  0  0  0  0
 18 27  1  0  0  0  0
 42 44  1  0  0  0  0
  7 12  1  0  0  0  0
 32 37  1  0  0  0  0
 17 26  1  0  0  0  0
M  CHG  1  24  -1
M  END
$$$$

  -OEChem-05262214473D

 47 46  0     1  0  0  0  0  0999 V2000
    0.5093   -4.7265    3.0306 C   0  0  0  0  0  0  0  0  0  0  0  0
    1.2735   -4.4402    3.9448 O   0  0  0  0  0  0  0  0  0  0  0  0
   -0.4465   -5.8608    3.1982 C   0  0  0  0  0  0  0  0  0  0  0  0
   -0.0219   -6.8213    2.8645 H   0  0  0  0  0  0  0  0  0  0  0  0
   -0.7314   -6.0185    4.2509 H   0  0  0  0  0  0  0  0  0  0  0  0
   -1.3983   -5.7596    2.6527 H   0  0  0  0  0  0  0  0  0  0  0  0
    0.4252   -4.0886    1.8040 N   0  0  0  0  0  0  0  0  0  0  0  0
    1.2532   -2.9707    1.4349 C   0  0  2  0  0  0  0  0  0  0  0  0
    0.3395   -1.8293    1.0083 C   0  0  0  0  0  0  0  0  0  0  0  0
   -0.8136   -2.0027    0.6194 O   0  0  0  0  0  0  0  0  0  0  0  0
    2.2176   -3.3411    0.3189 C   0  0  0  0  0  0  0  0  0  0  0  0
   -0.2574   -4.4279    1.1287 H   0  0  0  0  0  0  0  0  0  0  0  0
    1.8087   -2.6785    2.3327 H   0  0  0  0  0  0  0  0  0  0  0  0
    1.6793   -3.6366   -0.5890 H   0  0  0  0  0  0  0  0  0  0  0  0
    2.8662   -2.4980    0.0589 H   0  0  0  0  0  0  0  0  0  0  0  0
    2.8538   -4.1816    0.6166 H   0  0  0  0  0  0  0  0  0  0  0  0
    0.9758   -0.5952    1.0708 N   0  0  0  0  0  0  0  0  0  0  0  0
    0.3258    0.6374    0.7059 C   0  0  2  0  0  0  0  0  0  0  0  0
    0.3315    1.5403    1.9349 C   0  0  0  0  0  0  0  0  0  0  0  0
    1.3453    2.0961    2.3529 O   0  0  0  0  0  0  0  0  0  0  0  0
   -1.1101    0.4070    0.2196 C   0  0  0  0  0  0  0  0  0  0  0  0
   -1.1904   -0.3540   -1.1031 C   0  0  0  0  0  0  0  0  0  0  0  0
   -2.5989   -0.6393   -1.6348 C   0  0  0  0  0  0  0  0  0  0  0  0
   -3.5292   -0.3276   -0.8367 O   0  5  0  0  0  0  0  0  0  0  0  0
   -2.6705   -1.1306   -2.7949 O   0  0  0  0  0  0  0  0  0  0  0  0
    1.9288   -0.5463    1.4242 H   0  0  0  0  0  0  0  0  0  0  0  0
    0.9422    1.0989   -0.0731 H   0  0  0  0  0  0  0  0  0  0  0  0
   -1.6315    1.3672    0.1206 H   0  0  0  0  0  0  0  0  0  0  0  0
   -1.6641   -0.1599    0.9799 H   0  0  0  0  0  0  0  0  0  0  0  0
   -0.6160    0.1736   -1.8739 H   0  0  0  0  0  0  0  0  0  0  0  0
   -0.7088   -1.3311   -0.9697 H   0  0  0  0  0  0  0  0  0  0  0  0
   -0.9180    1.6132    2.5346 N   0  0  0  0  0  0  0  0  0  0  0  0
   -1.1718    2.3924    3.7242 C   0  0  2  0  0  0  0  0  0  0  0  0
   -2.4718    1.8958    4.3432 C   0  0  0  0  0  0  0  0  0  0  0  0
   -3.3340    1.2976    3.7030 O   0  0  0  0  0  0  0  0  0  0  0  0
   -1.2537    3.8772    3.4061 C   0  0  0  0  0  0  0  0  0  0  0  0
   -1.7043    1.1308    2.1093 H   0  0  0  0  0  0  0  0  0  0  0  0
   -0.3417    2.1987    4.4122 H   0  0  0  0  0  0  0  0  0  0  0  0
   -2.0797    4.0907    2.7179 H   0  0  0  0  0  0  0  0  0  0  0  0
   -1.4176    4.4688    4.3128 H   0  0  0  0  0  0  0  0  0  0  0  0
   -0.3290    4.2262    2.9338 H   0  0  0  0  0  0  0  0  0  0  0  0
   -2.5749    2.2371    5.6844 N   0  0  0  0  0  0  0  0  0  0  0  0
   -3.7215    1.8901    6.4913 C   0  0  0  0  0  0  0  0  0  0  0  0
   -1.8035    2.7170    6.1387 H   0  0  0  0  0  0  0  0  0  0  0  0
   -4.4483    2.7155    6.4706 H   0  0  0  0  0  0  0  0  0  0  0  0
   -4.1898    0.9792    6.0902 H   0  0  0  0  0  0  0  0  0  0  0  0
   -3.3996    1.7110    7.5278 H   0  0  0  0  0  0  0  0  0  0  0  0
  1  3  1  0  0  0  0
  1  7  1  0  0  0  0
  1  2  2  0  0  0  0
 33 34  1  0  0  0  0
 34 42  1  0  0  0  0
 34 35  2  0  0  0  0
  8  9  1  0  0  0  0
  9 17  1  0  0  0  0
  9 10  2  0  0  0  0
 18 19  1  0  0  0  0
 19 32  1  0  0  0  0
 19 20  2  0  0  0  0
 22 23  1  0  0  0  0
 23 24  1  0  0  0  0
 23 25  2  0  0  0  0
 33 36  1  0  0  0  0
  8 11  1  0  0  0  0
 42 43  1  0  0  0  0
 21 22  1  0  0  0  0
 18 21  1  0  0  0  0
 32 33  1  0  0  0  0
  7  8  1  0  0  0  0
 17 18  1  0  0  0  0
  3  4  1  0  0  0  0
  3  5  1  0  0  0  0
  3  6  1  0  0  0  0
 36 39  1  0  0  0  0
 36 40  1  0  0  0  0
 36 41  1  0  0  0  0
 11 14  1  0  0  0  0
 11 15  1  0  0  0  0
 11 16  1  0  0  0  0
 43 45  1  0  0  0  0
 43 46  1  0  0  0  0
 43 47  1  0  0  0  0
 22 30  1  0  0  0  0
 22 31  1  0  0  0  0
 21 28  1  0  0  0  0
 21 29  1  0  0  0  0
 33 38  1  0  0  0  0
  8 13  1  0  0  0  0
 18 27  1  0  0  0  0
 42 44  1  0  0  0  0
  7 12  1  0  0  0  0
 32 37  1  0  0  0  0
 17 26  1  0  0  0  0
M  CHG  1  24  -1
M  END
$$$$

  -OEChem-05262214473D

 47 46  0     1  0  0  0  0  0999 V2000
    0.5093   -4.7265    3.0306 C   0  0  0  0  0  0  0  0  0  0  0  0
    1.2735   -4.4402    3.9448 O   0  0  0  0  0  0  0  0  0  0  0  0
   -0.4465   -5.8608    3.1982 C   0  0  0  0  0  0  0  0  0  0  0  0
   -0.0219   -6.8213    2.8645 H   0  0  0  0  0  0  0  0  0  0  0  0
   -0.7314   -6.0185    4.2509 H   0  0  0  0  0  0  0  0  0  0  0  0
   -1.3983   -5.7596    2.6527 H   0  0  0  0  0  0  0  0  0  0  0  0
    0.4252   -4.0886    1.8040 N   0  0  0  0  0  0  0  0  0  0  0  0
    1.2532   -2.9707    1.4349 C   0  0  2  0  0  0  0  0  0  0  0  0
    0.3395   -1.8293    1.0083 C   0  0  0  0  0  0  0  0  0  0  0  0
   -0.8136   -2.0027    0.6194 O   0  0  0  0  0  0  0  0  0  0  0  0
    2.2176   -3.3411    0.3189 C   0  0  0  0  0  0  0  0  0  0  0  0
   -0.2574   -4.4279    1.1287 H   0  0  0  0  0  0  0  0  0  0  0  0
    1.8087   -2.6785    2.3327 H   0  0  0  0  0  0  0  0  0  0  0  0
    1.6793   -3.6366   -0.5890 H   0  0  0  0  0  0  0  0  0  0  0  0
    2.8662   -2.4980    0.0589 H   0  0  0  0  0  0  0  0  0  0  0  0
    2.8538   -4.1816    0.6166 H   0  0  0  0  0  0  0  0  0  0  0  0
    0.9758   -0.5952    1.0708 N   0  0  0  0  0  0  0  0  0  0  0  0
    0.3258    0.6374    0.7059 C   0  0  2  0  0  0  0  0  0  0  0  0
    0.3315    1.5403    1.9349 C   0  0  0  0  0  0  0  0  0  0  0  0
    1.2589    2.3017    2.2022 O   0  0  0  0  0  0  0  0  0  0  0  0
   -1.1101    0.4070    0.2196 C   0  0  0  0  0  0  0  0  0  0  0  0
   -1.1904   -0.3540   -1.1031 C   0  0  0  0  0  0  0  0  0  0  0  0
   -2.5989   -0.6393   -1.6348 C   0  0  0  0  0  0  0  0  0  0  0  0
   -3.5292   -0.3276   -0.8367 O   0  5  0  0  0  0  0  0  0  0  0  0
   -2.6705   -1.1306   -2.7949 O   0  0  0  0  0  0  0  0  0  0  0  0
    1.9288   -0.5463    1.4242 H   0  0  0  0  0  0  0  0  0  0  0  0
    0.9422    1.0989   -0.0731 H   0  0  0  0  0  0  0  0  0  0  0  0
   -1.6315    1.3672    0.1206 H   0  0  0  0  0  0  0  0  0  0  0  0
   -1.6641   -0.1599    0.9799 H   0  0  0  0  0  0  0  0  0  0  0  0
   -0.6160    0.1736   -1.8739 H   0  0  0  0  0  0  0  0  0  0  0  0
   -0.7088   -1.3311   -0.9697 H   0  0  0  0  0  0  0  0  0  0  0  0
   -0.7987    1.3600    2.7200 N   0  0  0  0  0  0  0  0  0  0  0  0
   -1.0239    2.0872    3.9477 C   0  0  2  0  0  0  0  0  0  0  0  0
   -2.0811    1.3398    4.7498 C   0  0  0  0  0  0  0  0  0  0  0  0
   -2.8874    0.5652    4.2390 O   0  0  0  0  0  0  0  0  0  0  0  0
   -1.4613    3.5172    3.6715 C   0  0  0  0  0  0  0  0  0  0  0  0
   -1.5228    0.7177    2.4119 H   0  0  0  0  0  0  0  0  0  0  0  0
   -0.0761    2.0815    4.4970 H   0  0  0  0  0  0  0  0  0  0  0  0
   -2.4092    3.5431    3.1218 H   0  0  0  0  0  0  0  0  0  0  0  0
   -1.6040    4.0754    4.6028 H   0  0  0  0  0  0  0  0  0  0  0  0
   -0.7134    4.0441    3.0693 H   0  0  0  0  0  0  0  0  0  0  0  0
   -2.0462    1.6725    6.0968 N   0  0  0  0  0  0  0  0  0  0  0  0
   -2.9576    1.1063    7.0635 C   0  0  0  0  0  0  0  0  0  0  0  0
   -1.3314    2.3097    6.4357 H   0  0  0  0  0  0  0  0  0  0  0  0
   -3.8350    1.7615    7.1687 H   0  0  0  0  0  0  0  0  0  0  0  0
   -3.2815    0.1117    6.7232 H   0  0  0  0  0  0  0  0  0  0  0  0
   -2.4504    1.0142    8.0353 H   0  0  0  0  0  0  0  0  0  0  0  0
  1  3  1  0  0  0  0
  1  7  1  0  0  0  0
  1  2  2  0  0  0  0
 33 34  1  0  0  0  0
 34 42  1  0  0  0  0
 34 35  2  0  0  0  0
  8  9  1  0  0  0  0
  9 17  1  0  0  0  0
  9 10  2  0  0  0  0
 18 19  1  0  0  0  0
 19 32  1  0  0  0  0
 19 20  2  0  0  0  0
 22 23  1  0  0  0  0
 23 24  1  0  0  0  0
 23 25  2  0  0  0  0
 33 36  1  0  0  0  0
  8 11  1  0  0  0  0
 42 43  1  0  0  0  0
 21 22  1  0  0  0  0
 18 21  1  0  0  0  0
 32 33  1  0  0  0  0
  7  8  1  0  0  0  0
 17 18  1  0  0  0  0
  3  4  1  0  0  0  0
  3  5  1  0  0  0  0
  3  6  1  0  0  0  0
 36 39  1  0  0  0  0
 36 40  1  0  0  0  0
 36 41  1  0  0  0  0
 11 14  1  0  0  0  0
 11 15  1  0  0  0  0
 11 16  1  0  0  0  0
 43 45  1  0  0  0  0
 43 46  1  0  0  0  0
 43 47  1  0  0  0  0
 22 30  1  0  0  0  0
 22 31  1  0  0  0  0
 21 28  1  0  0  0  0
 21 29  1  0  0  0  0
 33 38  1  0  0  0  0
  8 13  1  0  0  0  0
 18 27  1  0  0  0  0
 42 44  1  0  0  0  0
  7 12  1  0  0  0  0
 32 37  1  0  0  0  0
 17 26  1  0  0  0  0
M  CHG  1  24  -1
M  END
$$$$

  -OEChem-05262214473D

 47 46  0     1  0  0  0  0  0999 V2000
    0.5093   -4.7265    3.0306 C   0  0  0  0  0  0  0  0  0  0  0  0
    1.2735   -4.4402    3.9448 O   0  0  0  0  0  0  0  0  0  0  0  0
   -0.4465   -5.8608    3.1982 C   0  0  0  0  0  0  0  0  0  0  0  0
   -0.0219   -6.8213    2.8645 H   0  0  0  0  0  0  0  0  0  0  0  0
   -0.7314   -6.0185    4.2509 H   0  0  0  0  0  0  0  0  0  0  0  0
   -1.3983   -5.7596    2.6527 H   0  0  0  0  0  0  0  0  0  0  0  0
    0.4252   -4.0886    1.8040 N   0  0  0  0  0  0  0  0  0  0  0  0
    1.2532   -2.9707    1.4349 C   0  0  2  0  0  0  0  0  0  0  0  0
    0.3395   -1.8293    1.0083 C   0  0  0  0  0  0  0  0  0  0  0  0
   -0.8136   -2.0027    0.6194 O   0  0  0  0  0  0  0  0  0  0  0  0
    2.2176   -3.3411    0.3189 C   0  0  0  0  0  0  0  0  0  0  0  0
   -0.2574   -4.4279    1.1287 H   0  0  0  0  0  0  0  0  0  0  0  0
    1.8087   -2.6785    2.3327 H   0  0  0  0  0  0  0  0  0  0  0  0
    1.6793   -3.6366   -0.5890 H   0  0  0  0  0  0  0  0  0  0  0  0
    2.8662   -2.4980    0.0589 H   0  0  0  0  0  0  0  0  0  0  0  0
    2.8538   -4.1816    0.6166 H   0  0  0  0  0  0  0  0  0  0  0  0
    0.9758   -0.5952    1.0708 N   0  0  0  0  0  0  0  0  0  0  0  0
    0.3258    0.6374    0.7059 C   0  0  2  0  0  0  0  0  0  0  0  0
    0.3315    1.5403    1.9349 C   0  0  0  0  0  0  0  0  0  0  0  0
    1.1096    2.4824    2.0701 O   0  0  0  0  0  0  0  0  0  0  0  0
   -1.1101    0.4070    0.2196 C   0  0  0  0  0  0  0  0  0  0  0  0
   -1.1904   -0.3540   -1.1031 C   0  0  0  0  0  0  0  0  0  0  0  0
   -2.5989   -0.6393   -1.6348 C   0  0  0  0  0  0  0  0  0  0  0  0
   -3.5292   -0.3276   -0.8367 O   0  5  0  0  0  0  0  0  0  0  0  0
   -2.6705   -1.1306   -2.7949 O   0  0  0  0  0  0  0  0  0  0  0  0
    1.9288   -0.5463    1.4242 H   0  0  0  0  0  0  0  0  0  0  0  0
    0.9422    1.0989   -0.0731 H   0  0  0  0  0  0  0  0  0  0  0  0
   -1.6315    1.3672    0.1206 H   0  0  0  0  0  0  0  0  0  0  0  0
   -1.6641   -0.1599    0.9799 H   0  0  0  0  0  0  0  0  0  0  0  0
   -0.6160    0.1736   -1.8739 H   0  0  0  0  0  0  0  0  0  0  0  0
   -0.7088   -1.3311   -0.9697 H   0  0  0  0  0  0  0  0  0  0  0  0
   -0.6022    1.1402    2.8806 N   0  0  0  0  0  0  0  0  0  0  0  0
   -0.7831    1.8230    4.1407 C   0  0  2  0  0  0  0  0  0  0  0  0
   -1.5254    0.8839    5.0822 C   0  0  0  0  0  0  0  0  0  0  0  0
   -2.2210   -0.0497    4.6876 O   0  0  0  0  0  0  0  0  0  0  0  0
   -1.5461    3.1259    3.9594 C   0  0  0  0  0  0  0  0  0  0  0  0
   -1.2149    0.3563    2.6760 H   0  0  0  0  0  0  0  0  0  0  0  0
    0.2178    2.0236    4.5382 H   0  0  0  0  0  0  0  0  0  0  0  0
   -2.5514    2.9451    3.5619 H   0  0  0  0  0  0  0  0  0  0  0  0
   -1.6575    3.6562    4.9110 H   0  0  0  0  0  0  0  0  0  0  0  0
   -1.0258    3.7880    3.2589 H   0  0  0  0  0  0  0  0  0  0  0  0
   -1.3545    1.2371    6.4134 N   0  0  0  0  0  0  0  0  0  0  0  0
   -1.9686    0.5080    7.4985 C   0  0  0  0  0  0  0  0  0  0  0  0
   -0.7450    2.0144    6.6499 H   0  0  0  0  0  0  0  0  0  0  0  0
   -2.9365    0.9672    7.7480 H   0  0  0  0  0  0  0  0  0  0  0  0
   -2.1263   -0.5374    7.1947 H   0  0  0  0  0  0  0  0  0  0  0  0
   -1.3105    0.5386    8.3794 H   0  0  0  0  0  0  0  0  0  0  0  0
  1  3  1  0  0  0  0
  1  7  1  0  0  0  0
  1  2  2  0  0  0  0
 33 34  1  0  0  0  0
 34 42  1  0  0  0  0
 34 35  2  0  0  0  0
  8  9  1  0  0  0  0
  9 17  1  0  0  0  0
  9 10  2  0  0  0  0
 18 19  1  0  0  0  0
 19 32  1  0  0  0  0
 19 20  2  0  0  0  0
 22 23  1  0  0  0  0
 23 24  1  0  0  0  0
 23 25  2  0  0  0  0
 33 36  1  0  0  0  0
  8 11  1  0  0  0  0
 42 43  1  0  0  0  0
 21 22  1  0  0  0  0
 18 21  1  0  0  0  0
 32 33  1  0  0  0  0
  7  8  1  0  0  0  0
 17 18  1  0  0  0  0
  3  4  1  0  0  0  0
  3  5  1  0  0  0  0
  3  6  1  0  0  0  0
 36 39  1  0  0  0  0
 36 40  1  0  0  0  0
 36 41  1  0  0  0  0
 11 14  1  0  0  0  0
 11 15  1  0  0  0  0
 11 16  1  0  0  0  0
 43 45  1  0  0  0  0
 43 46  1  0  0  0  0
 43 47  1  0  0  0  0
 22 30  1  0  0  0  0
 22 31  1  0  0  0  0
 21 28  1  0  0  0  0
 21 29  1  0  0  0  0
 33 38  1  0  0  0  0
  8 13  1  0  0  0  0
 18 27  1  0  0  0  0
 42 44  1  0  0  0  0
  7 12  1  0  0  0  0
 32 37  1  0  0  0  0
 17 26  1  0  0  0  0
M  CHG  1  24  -1
M  END
$$$$

  -OEChem-05262214473D

 47 46  0     1  0  0  0  0  0999 V2000
    0.5093   -4.7265    3.0306 C   0  0  0  0  0  0  0  0  0  0  0  0
    1.2735   -4.4402    3.9448 O   0  0  0  0  0  0  0  0  0  0  0  0
   -0.4465   -5.8608    3.1982 C   0  0  0  0  0  0  0  0  0  0  0  0
   -0.0219   -6.8213    2.8645 H   0  0  0  0  0  0  0  0  0  0  0  0
   -0.7314   -6.0185    4.2509 H   0  0  0  0  0  0  0  0  0  0  0  0
   -1.3983   -5.7596    2.6527 H   0  0  0  0  0  0  0  0  0  0  0  0
    0.4252   -4.0886    1.8040 N   0  0  0  0  0  0  0  0  0  0  0  0
    1.2532   -2.9707    1.4349 C   0  0  2  0  0  0  0  0  0  0  0  0
    0.3395   -1.8293    1.0083 C   0  0  0  0  0  0  0  0  0  0  0  0
   -0.8136   -2.0027    0.6194 O   0  0  0  0  0  0  0  0  0  0  0  0
    2.2176   -3.3411    0.3189 C   0  0  0  0  0  0  0  0  0  0  0  0
   -0.2574   -4.4279    1.1287 H   0  0  0  0  0  0  0  0  0  0  0  0
    1.8087   -2.6785    2.3327 H   0  0  0  0  0  0  0  0  0  0  0  0
    1.6793   -3.6366   -0.5890 H   0  0  0  0  0  0  0  0  0  0  0  0
    2.8662   -2.4980    0.0589 H   0  0  0  0  0  0  0  0  0  0  0  0
    2.8538   -4.1816    0.6166 H   0  0  0  0  0  0  0  0  0  0  0  0
    0.9758   -0.5952    1.0708 N   0  0  0  0  0  0  0  0  0  0  0  0
    0.3258    0.6374    0.7059 C   0  0  2  0  0  0  0  0  0  0  0  0
    0.3315    1.5403    1.9349 C   0  0  0  0  0  0  0  0  0  0  0  0
    0.9074    2.6260    1.9656 O   0  0  0  0  0  0  0  0  0  0  0  0
   -1.1101    0.4070    0.2196 C   0  0  0  0  0  0  0  0  0  0  0  0
   -1.1904   -0.3540   -1.1031 C   0  0  0  0  0  0  0  0  0  0  0  0
   -2.5989   -0.6393   -1.6348 C   0  0  0  0  0  0  0  0  0  0  0  0
   -3.5292   -0.3276   -0.8367 O   0  5  0  0  0  0  0  0  0  0  0  0
   -2.6705   -1.1306   -2.7949 O   0  0  0  0  0  0  0  0  0  0  0  0
    1.9288   -0.5463    1.4242 H   0  0  0  0  0  0  0  0  0  0  0  0
    0.9422    1.0989   -0.0731 H   0  0  0  0  0  0  0  0  0  0  0  0
   -1.6315    1.3672    0.1206 H   0  0  0  0  0  0  0  0  0  0  0  0
   -1.6641   -0.1599    0.9799 H   0  0  0  0  0  0  0  0  0  0  0  0
   -0.6160    0.1736   -1.8739 H   0  0  0  0  0  0  0  0  0  0  0  0
   -0.7088   -1.3311   -0.9697 H   0  0  0  0  0  0  0  0  0  0  0  0
   -0.3419    0.9686    3.0054 N   0  0  0  0  0  0  0  0  0  0  0  0
   -0.4658    1.6179    4.2899 C   0  0  2  0  0  0  0  0  0  0  0  0
   -0.8426    0.5590    5.3176 C   0  0  0  0  0  0  0  0  0  0  0  0
   -1.3804   -0.5050    5.0182 O   0  0  0  0  0  0  0  0  0  0  0  0
   -1.5023    2.7300    4.2501 C   0  0  0  0  0  0  0  0  0  0  0  0
   -0.8017    0.0712    2.8835 H   0  0  0  0  0  0  0  0  0  0  0  0
    0.5201    2.0289    4.5329 H   0  0  0  0  0  0  0  0  0  0  0  0
   -2.4966    2.3373    4.0081 H   0  0  0  0  0  0  0  0  0  0  0  0
   -1.5745    3.2398    5.2165 H   0  0  0  0  0  0  0  0  0  0  0  0
   -1.2452    3.4753    3.4897 H   0  0  0  0  0  0  0  0  0  0  0  0
   -0.5471    0.9604    6.6129 N   0  0  0  0  0  0  0  0  0  0  0  0
   -0.8218    0.1359    7.7665 C   0  0  0  0  0  0  0  0  0  0  0  0
   -0.0841    1.8513    6.7666 H   0  0  0  0  0  0  0  0  0  0  0  0
   -1.8143    0.3868    8.1691 H   0  0  0  0  0  0  0  0  0  0  0  0
   -0.8028   -0.9239    7.4724 H   0  0  0  0  0  0  0  0  0  0  0  0
   -0.0574    0.3165    8.5366 H   0  0  0  0  0  0  0  0  0  0  0  0
  1  3  1  0  0  0  0
  1  7  1  0  0  0  0
  1  2  2  0  0  0  0
 33 34  1  0  0  0  0
 34 42  1  0  0  0  0
 34 35  2  0  0  0  0
  8  9  1  0  0  0  0
  9 17  1  0  0  0  0
  9 10  2  0  0  0  0
 18 19  1  0  0  0  0
 19 32  1  0  0  0  0
 19 20  2  0  0  0  0
 22 23  1  0  0  0  0
 23 24  1  0  0  0  0
 23 25  2  0  0  0  0
 33 36  1  0  0  0  0
  8 11  1  0  0  0  0
 42 43  1  0  0  0  0
 21 22  1  0  0  0  0
 18 21  1  0  0  0  0
 32 33  1  0  0  0  0
  7  8  1  0  0  0  0
 17 18  1  0  0  0  0
  3  4  1  0  0  0  0
  3  5  1  0  0  0  0
  3  6  1  0  0  0  0
 36 39  1  0  0  0  0
 36 40  1  0  0  0  0
 36 41  1  0  0  0  0
 11 14  1  0  0  0  0
 11 15  1  0  0  0  0
 11 16  1  0  0  0  0
 43 45  1  0  0  0  0
 43 46  1  0  0  0  0
 43 47  1  0  0  0  0
 22 30  1  0  0  0  0
 22 31  1  0  0  0  0
 21 28  1  0  0  0  0
 21 29  1  0  0  0  0
 33 38  1  0  0  0  0
  8 13  1  0  0  0  0
 18 27  1  0  0  0  0
 42 44  1  0  0  0  0
  7 12  1  0  0  0  0
 32 37  1  0  0  0  0
 17 26  1  0  0  0  0
M  CHG  1  24  -1
M  END
$$$$

  -OEChem-05262214473D

 47 46  0     1  0  0  0  0  0999 V2000
    0.5093   -4.7265    3.0306 C   0  0  0  0  0  0  0  0  0  0  0  0
    1.2735   -4.4402    3.9448 O   0  0  0  0  0  0  0  0  0  0  0  0
   -0.4465   -5.8608    3.1982 C   0  0  0  0  0  0  0  0  0  0  0  0
   -0.0219   -6.8213    2.8645 H   0  0  0  0  0  0  0  0  0  0  0  0
   -0.7314   -6.0185    4.2509 H   0  0  0  0  0  0  0  0  0  0  0  0
   -1.3983   -5.7596    2.6527 H   0  0  0  0  0  0  0  0  0  0  0  0
    0.4252   -4.0886    1.8040 N   0  0  0  0  0  0  0  0  0  0  0  0
    1.2532   -2.9707    1.4349 C   0  0  2  0  0  0  0  0  0  0  0  0
    0.3395   -1.8293    1.0083 C   0  0  0  0  0  0  0  0  0  0  0  0
   -0.8136   -2.0027    0.6194 O   0  0  0  0  0  0  0  0  0  0  0  0
    2.2176   -3.3411    0.3189 C   0  0  0  0  0  0  0  0  0  0  0  0
   -0.2574   -4.4279    1.1287 H   0  0  0  0  0  0  0  0  0  0  0  0
    1.8087   -2.6785    2.3327 H   0  0  0  0  0  0  0  0  0  0  0  0
    1.6793   -3.6366   -0.5890 H   0  0  0  0  0  0  0  0  0  0  0  0
    2.8662   -2.4980    0.0589 H   0  0  0  0  0  0  0  0  0  0  0  0
    2.8538   -4.1816    0.6166 H   0  0  0  0  0  0  0  0  0  0  0  0
    0.9758   -0.5952    1.0708 N   0  0  0  0  0  0  0  0  0  0  0  0
    0.3258    0.6374    0.7059 C   0  0  2  0  0  0  0  0  0  0  0  0
    0.3315    1.5403    1.9349 C   0  0  0  0  0  0  0  0  0  0  0  0
    0.6661    2.7226    1.8958 O   0  0  0  0  0  0  0  0  0  0  0  0
   -1.1101    0.4070    0.2196 C   0  0  0  0  0  0  0  0  0  0  0  0
   -1.1904   -0.3540   -1.1031 C   0  0  0  0  0  0  0  0  0  0  0  0
   -2.5989   -0.6393   -1.6348 C   0  0  0  0  0  0  0  0  0  0  0  0
   -3.5292   -0.3276   -0.8367 O   0  5  0  0  0  0  0  0  0  0  0  0
   -2.6705   -1.1306   -2.7949 O   0  0  0  0  0  0  0  0  0  0  0  0
    1.9288   -0.5463    1.4242 H   0  0  0  0  0  0  0  0  0  0  0  0
    0.9422    1.0989   -0.0731 H   0  0  0  0  0  0  0  0  0  0  0  0
   -1.6315    1.3672    0.1206 H   0  0  0  0  0  0  0  0  0  0  0  0
   -1.6641   -0.1599    0.9799 H   0  0  0  0  0  0  0  0  0  0  0  0
   -0.6160    0.1736   -1.8739 H   0  0  0  0  0  0  0  0  0  0  0  0
   -0.7088   -1.3311   -0.9697 H   0  0  0  0  0  0  0  0  0  0  0  0
   -0.0356    0.8571    3.0859 N   0  0  0  0  0  0  0  0  0  0  0  0
   -0.0936    1.4858    4.3852 C   0  0  2  0  0  0  0  0  0  0  0  0
   -0.0793    0.3874    5.4401 C   0  0  0  0  0  0  0  0  0  0  0  0
   -0.4228   -0.7699    5.2083 O   0  0  0  0  0  0  0  0  0  0  0  0
   -1.3328    2.3564    4.5238 C   0  0  0  0  0  0  0  0  0  0  0  0
   -0.3113   -0.1183    3.0204 H   0  0  0  0  0  0  0  0  0  0  0  0
    0.8102    2.0971    4.4814 H   0  0  0  0  0  0  0  0  0  0  0  0
   -2.2485    1.7612    4.4302 H   0  0  0  0  0  0  0  0  0  0  0  0
   -1.3606    2.8546    5.4985 H   0  0  0  0  0  0  0  0  0  0  0  0
   -1.3565    3.1273    3.7460 H   0  0  0  0  0  0  0  0  0  0  0  0
    0.3211    0.8613    6.6816 N   0  0  0  0  0  0  0  0  0  0  0  0
    0.4045    0.0154    7.8492 C   0  0  0  0  0  0  0  0  0  0  0  0
    0.6061    1.8315    6.7779 H   0  0  0  0  0  0  0  0  0  0  0  0
   -0.5446    0.0598    8.4034 H   0  0  0  0  0  0  0  0  0  0  0  0
    0.5988   -1.0215    7.5375 H   0  0  0  0  0  0  0  0  0  0  0  0
    1.2233    0.3633    8.4962 H   0  0  0  0  0  0  0  0  0  0  0  0
  1  3  1  0  0  0  0
  1  7  1  0  0  0  0
  1  2  2  0  0  0  0
 33 34  1  0  0  0  0
 34 42  1  0  0  0  0
 34 35  2  0  0  0  0
  8  9  1  0  0  0  0
  9 17  1  0  0  0  0
  9 10  2  0  0  0  0
 18 19  1  0  0  0  0
 19 32  1  0  0  0  0
 19 20  2  0  0  0  0
 22 23  1  0  0  0  0
 23 24  1  0  0  0  0
 23 25  2  0  0  0  0
 33 36  1  0  0  0  0
  8 11  1  0  0  0  0
 42 43  1  0  0  0  0
 21 22  1  0  0  0  0
 18 21  1  0  0  0  0
 32 33  1  0  0  0  0
  7  8  1  0  0  0  0
 17 18  1  0  0  0  0
  3  4  1  0  0  0  0
  3  5  1  0  0  0  0
  3  6  1  0  0  0  0
 36 39  1  0  0  0  0
 36 40  1  0  0  0  0
 36 41  1  0  0  0  0
 11 14  1  0  0  0  0
 11 15  1  0  0  0  0
 11 16  1  0  0  0  0
 43 45  1  0  0  0  0
 43 46  1  0  0  0  0
 43 47  1  0  0  0  0
 22 30  1  0  0  0  0
 22 31  1  0  0  0  0
 21 28  1  0  0  0  0
 21 29  1  0  0  0  0
 33 38  1  0  0  0  0
  8 13  1  0  0  0  0
 18 27  1  0  0  0  0
 42 44  1  0  0  0  0
  7 12  1  0  0  0  0
 32 37  1  0  0  0  0
 17 26  1  0  0  0  0
M  CHG  1  24  -1
M  END
$$$$

  -OEChem-05262214473D

 47 46  0     1  0  0  0  0  0999 V2000
    0.5093   -4.7265    3.0306 C   0  0  0  0  0  0  0  0  0  0  0  0
    1.2735   -4.4402    3.9448 O   0  0  0  0  0  0  0  0  0  0  0  0
   -0.4465   -5.8608    3.1982 C   0  0  0  0  0  0  0  0  0  0  0  0
   -0.0219   -6.8213    2.8645 H   0  0  0  0  0  0  0  0  0  0  0  0
   -0.7314   -6.0185    4.2509 H   0  0  0  0  0  0  0  0  0  0  0  0
   -1.3983   -5.7596    2.6527 H   0  0  0  0  0  0  0  0  0  0  0  0
    0.4252   -4.0886    1.8040 N   0  0  0  0  0  0  0  0  0  0  0  0
    1.2532   -2.9707    1.4349 C   0  0  2  0  0  0  0  0  0  0  0  0
    0.3395   -1.8293    1.0083 C   0  0  0  0  0  0  0  0  0  0  0  0
   -0.8136   -2.0027    0.6194 O   0  0  0  0  0  0  0  0  0  0  0  0
    2.2176   -3.3411    0.3189 C   0  0  0  0  0  0  0  0  0  0  0  0
   -0.2574   -4.4279    1.1287 H   0  0  0  0  0  0  0  0  0  0  0  0
    1.8087   -2.6785    2.3327 H   0  0  0  0  0  0  0  0  0  0  0  0
    1.6793   -3.6366   -0.5890 H   0  0  0  0  0  0  0  0  0  0  0  0
    2.8662   -2.4980    0.0589 H   0  0  0  0  0  0  0  0  0  0  0  0
    2.8538   -4.1816    0.6166 H   0  0  0  0  0  0  0  0  0  0  0  0
    0.9758   -0.5952    1.0708 N   0  0  0  0  0  0  0  0  0  0  0  0
    0.3258    0.6374    0.7059 C   0  0  2  0  0  0  0  0  0  0  0  0
    0.3315    1.5403    1.9349 C   0  0  0  0  0  0  0  0  0  0  0  0
    0.4022    2.7656    1.8654 O   0  0  0  0  0  0  0  0  0  0  0  0
   -1.1101    0.4070    0.2196 C   0  0  0  0  0  0  0  0  0  0  0  0
   -1.1904   -0.3540   -1.1031 C   0  0  0  0  0  0  0  0  0  0  0  0
   -2.5989   -0.6393   -1.6348 C   0  0  0  0  0  0  0  0  0  0  0  0
   -3.5292   -0.3276   -0.8367 O   0  5  0  0  0  0  0  0  0  0  0  0
   -2.6705   -1.1306   -2.7949 O   0  0  0  0  0  0  0  0  0  0  0  0
    1.9288   -0.5463    1.4242 H   0  0  0  0  0  0  0  0  0  0  0  0
    0.9422    1.0989   -0.0731 H   0  0  0  0  0  0  0  0  0  0  0  0
   -1.6315    1.3672    0.1206 H   0  0  0  0  0  0  0  0  0  0  0  0
   -1.6641   -0.1599    0.9799 H   0  0  0  0  0  0  0  0  0  0  0  0
   -0.6160    0.1736   -1.8739 H   0  0  0  0  0  0  0  0  0  0  0  0
   -0.7088   -1.3311   -0.9697 H   0  0  0  0  0  0  0  0  0  0  0  0
    0.2958    0.8132    3.1166 N   0  0  0  0  0  0  0  0  0  0  0  0
    0.3080    1.4357    4.4201 C   0  0  2  0  0  0  0  0  0  0  0  0
    0.7126    0.3807    5.4413 C   0  0  0  0  0  0  0  0  0  0  0  0
    0.5865   -0.8262    5.2449 O   0  0  0  0  0  0  0  0  0  0  0  0
   -1.0492    2.0306    4.7618 C   0  0  0  0  0  0  0  0  0  0  0  0
    0.2228   -0.1991    3.0773 H   0  0  0  0  0  0  0  0  0  0  0  0
    1.0683    2.2236    4.3872 H   0  0  0  0  0  0  0  0  0  0  0  0
   -1.8240    1.2561    4.7993 H   0  0  0  0  0  0  0  0  0  0  0  0
   -1.0305    2.5269    5.7377 H   0  0  0  0  0  0  0  0  0  0  0  0
   -1.3521    2.7676    4.0102 H   0  0  0  0  0  0  0  0  0  0  0  0
    1.1909    0.9467    6.6148 N   0  0  0  0  0  0  0  0  0  0  0  0
    1.6269    0.1547    7.7411 C   0  0  0  0  0  0  0  0  0  0  0  0
    1.2787    1.9564    6.6830 H   0  0  0  0  0  0  0  0  0  0  0  0
    0.7858    0.0086    8.4348 H   0  0  0  0  0  0  0  0  0  0  0  0
    1.9830   -0.8234    7.3855 H   0  0  0  0  0  0  0  0  0  0  0  0
    2.4445    0.6757    8.2609 H   0  0  0  0  0  0  0  0  0  0  0  0
  1  3  1  0  0  0  0
  1  7  1  0  0  0  0
  1  2  2  0  0  0  0
 33 34  1  0  0  0  0
 34 42  1  0  0  0  0
 34 35  2  0  0  0  0
  8  9  1  0  0  0  0
  9 17  1  0  0  0  0
  9 10  2  0  0  0  0
 18 19  1  0  0  0  0
 19 32  1  0  0  0  0
 19 20  2  0  0  0  0
 22 23  1  0  0  0  0
 23 24  1  0  0  0  0
 23 25  2  0  0  0  0
 33 36  1  0  0  0  0
  8 11  1  0  0  0  0
 42 43  1  0  0  0  0
 21 22  1  0  0  0  0
 18 21  1  0  0  0  0
 32 33  1  0  0  0  0
  7  8  1  0  0  0  0
 17 18  1  0  0  0  0
  3  4  1  0  0  0  0
  3  5  1  0  0  0  0
  3  6  1  0  0  0  0
 36 39  1  0  0  0  0
 36 40  1  0  0  0  0
 36 41  1  0  0  0  0
 11 14  1  0  0  0  0
 11 15  1  0  0  0  0
 11 16  1  0  0  0  0
 43 45  1  0  0  0  0
 43 46  1  0  0  0  0
 43 47  1  0  0  0  0
 22 30  1  0  0  0  0
 22 31  1  0  0  0  0
 21 28  1  0  0  0  0
 21 29  1  0  0  0  0
 33 38  1  0  0  0  0
  8 13  1  0  0  0  0
 18 27  1  0  0  0  0
 42 44  1  0  0  0  0
  7 12  1  0  0  0  0
 32 37  1  0  0  0  0
 17 26  1  0  0  0  0
M  CHG  1  24  -1
M  END
$$$$

  -OEChem-05262214473D

 47 46  0     1  0  0  0  0  0999 V2000
    0.5093   -4.7265    3.0306 C   0  0  0  0  0  0  0  0  0  0  0  0
    1.2735   -4.4402    3.9448 O   0  0  0  0  0  0  0  0  0  0  0  0
   -0.4465   -5.8608    3.1982 C   0  0  0  0  0  0  0  0  0  0  0  0
   -0.0219   -6.8213    2.8645 H   0  0  0  0  0  0  0  0  0  0  0  0
   -0.7314   -6.0185    4.2509 H   0  0  0  0  0  0  0  0  0  0  0  0
   -1.3983   -5.7596    2.6527 H   0  0  0  0  0  0  0  0  0  0  0  0
    0.4252   -4.0886    1.8040 N   0  0  0  0  0  0  0  0  0  0  0  0
    1.2532   -2.9707    1.4349 C   0  0  2  0  0  0  0  0  0  0  0  0
    0.3395   -1.8293    1.0083 C   0  0  0  0  0  0  0  0  0  0  0  0
   -0.8136   -2.0027    0.6194 O   0  0  0  0  0  0  0  0  0  0  0  0
    2.2176   -3.3411    0.3189 C   0  0  0  0  0  0  0  0  0  0  0  0
   -0.2574   -4.4279    1.1287 H   0  0  0  0  0  0  0  0  0  0  0  0
    1.8087   -2.6785    2.3327 H   0  0  0  0  0  0  0  0  0  0  0  0
    1.6793   -3.6366   -0.5890 H   0  0  0  0  0  0  0  0  0  0  0  0
    2.8662   -2.4980    0.0589 H   0  0  0  0  0  0  0  0  0  0  0  0
    2.8538   -4.1816    0.6166 H   0  0  0  0  0  0  0  0  0  0  0  0
    0.9758   -0.5952    1.0708 N   0  0  0  0  0  0  0  0  0  0  0  0
    0.3258    0.6374    0.7059 C   0  0  2  0  0  0  0  0  0  0  0  0
    0.3315    1.5403    1.9349 C   0  0  0  0  0  0  0  0  0  0  0  0
    0.1337    2.7522    1.8765 O   0  0  0  0  0  0  0  0  0  0  0  0
   -1.1101    0.4070    0.2196 C   0  0  0  0  0  0  0  0  0  0  0  0
   -1.1904   -0.3540   -1.1031 C   0  0  0  0  0  0  0  0  0  0  0  0
   -2.5989   -0.6393   -1.6348 C   0  0  0  0  0  0  0  0  0  0  0  0
   -3.5292   -0.3276   -0.8367 O   0  5  0  0  0  0  0  0  0  0  0  0
   -2.6705   -1.1306   -2.7949 O   0  0  0  0  0  0  0  0  0  0  0  0
    1.9288   -0.5463    1.4242 H   0  0  0  0  0  0  0  0  0  0  0  0
    0.9422    1.0989   -0.0731 H   0  0  0  0  0  0  0  0  0  0  0  0
   -1.6315    1.3672    0.1206 H   0  0  0  0  0  0  0  0  0  0  0  0
   -1.6641   -0.1599    0.9799 H   0  0  0  0  0  0  0  0  0  0  0  0
   -0.6160    0.1736   -1.8739 H   0  0  0  0  0  0  0  0  0  0  0  0
   -0.7088   -1.3311   -0.9697 H   0  0  0  0  0  0  0  0  0  0  0  0
    0.6299    0.8399    3.0954 N   0  0  0  0  0  0  0  0  0  0  0  0
    0.7117    1.4710    4.3922 C   0  0  2  0  0  0  0  0  0  0  0  0
    1.4791    0.5395    5.3211 C   0  0  0  0  0  0  0  0  0  0  0  0
    1.5788   -0.6700    5.1255 O   0  0  0  0  0  0  0  0  0  0  0  0
   -0.6709    1.7748    4.9480 C   0  0  0  0  0  0  0  0  0  0  0  0
    0.7644   -0.1659    3.0503 H   0  0  0  0  0  0  0  0  0  0  0  0
    1.2768    2.3997    4.2569 H   0  0  0  0  0  0  0  0  0  0  0  0
   -1.2520    0.8564    5.0903 H   0  0  0  0  0  0  0  0  0  0  0  0
   -0.6067    2.2789    5.9179 H   0  0  0  0  0  0  0  0  0  0  0  0
   -1.2324    2.4208    4.2644 H   0  0  0  0  0  0  0  0  0  0  0  0
    2.0031    1.2106    6.4170 N   0  0  0  0  0  0  0  0  0  0  0  0
    2.7621    0.5443    7.4495 C   0  0  0  0  0  0  0  0  0  0  0  0
    1.8878    2.2173    6.4884 H   0  0  0  0  0  0  0  0  0  0  0  0
    2.0864    0.2365    8.2611 H   0  0  0  0  0  0  0  0  0  0  0  0
    3.2554   -0.3433    7.0267 H   0  0  0  0  0  0  0  0  0  0  0  0
    3.5228    1.2323    7.8469 H   0  0  0  0  0  0  0  0  0  0  0  0
  1  3  1  0  0  0  0
  1  7  1  0  0  0  0
  1  2  2  0  0  0  0
 33 34  1  0  0  0  0
 34 42  1  0  0  0  0
 34 35  2  0  0  0  0
  8  9  1  0  0  0  0
  9 17  1  0  0  0  0
  9 10  2  0  0  0  0
 18 19  1  0  0  0  0
 19 32  1  0  0  0  0
 19 20  2  0  0  0  0
 22 23  1  0  0  0  0
 23 24  1  0  0  0  0
 23 25  2  0  0  0  0
 33 36  1  0  0  0  0
  8 11  1  0  0  0  0
 42 43  1  0  0  0  0
 21 22  1  0  0  0  0
 18 21  1  0  0  0  0
 32 33  1  0  0  0  0
  7  8  1  0  0  0  0
 17 18  1  0  0  0  0
  3  4  1  0  0  0  0
  3  5  1  0  0  0  0
  3  6  1  0  0  0  0
 36 39  1  0  0  0  0
 36 40  1  0  0  0  0
 36 41  1  0  0  0  0
 11 14  1  0  0  0  0
 11 15  1  0  0  0  0
 11 16  1  0  0  0  0
 43 45  1  0  0  0  0
 43 46  1  0  0  0  0
 43 47  1  0  0  0  0
 22 30  1  0  0  0  0
 22 31  1  0  0  0  0
 21 28  1  0  0  0  0
 21 29  1  0  0  0  0
 33 38  1  0  0  0  0
  8 13  1  0  0  0  0
 18 27  1  0  0  0  0
 42 44  1  0  0  0  0
  7 12  1  0  0  0  0
 32 37  1  0  0  0  0
 17 26  1  0  0  0  0
M  CHG  1  24  -1
M  END
$$$$

  -OEChem-05262214473D

 47 46  0     1  0  0  0  0  0999 V2000
    0.5093   -4.7265    3.0306 C   0  0  0  0  0  0  0  0  0  0  0  0
    1.2735   -4.4402    3.9448 O   0  0  0  0  0  0  0  0  0  0  0  0
   -0.4465   -5.8608    3.1982 C   0  0  0  0  0  0  0  0  0  0  0  0
   -0.0219   -6.8213    2.8645 H   0  0  0  0  0  0  0  0  0  0  0  0
   -0.7314   -6.0185    4.2509 H   0  0  0  0  0  0  0  0  0  0  0  0
   -1.3983   -5.7596    2.6527 H   0  0  0  0  0  0  0  0  0  0  0  0
    0.4252   -4.0886    1.8040 N   0  0  0  0  0  0  0  0  0  0  0  0
    1.2532   -2.9707    1.4349 C   0  0  2  0  0  0  0  0  0  0  0  0
    0.3395   -1.8293    1.0083 C   0  0  0  0  0  0  0  0  0  0  0  0
   -0.8136   -2.0027    0.6194 O   0  0  0  0  0  0  0  0  0  0  0  0
    2.2176   -3.3411    0.3189 C   0  0  0  0  0  0  0  0  0  0  0  0
   -0.2574   -4.4279    1.1287 H   0  0  0  0  0  0  0  0  0  0  0  0
    1.8087   -2.6785    2.3327 H   0  0  0  0  0  0  0  0  0  0  0  0
    1.6793   -3.6366   -0.5890 H   0  0  0  0  0  0  0  0  0  0  0  0
    2.8662   -2.4980    0.0589 H   0  0  0  0  0  0  0  0  0  0  0  0
    2.8538   -4.1816    0.6166 H   0  0  0  0  0  0  0  0  0  0  0  0
    0.9758   -0.5952    1.0708 N   0  0  0  0  0  0  0  0  0  0  0  0
    0.3258    0.6374    0.7059 C   0  0  2  0  0  0  0  0  0  0  0  0
    0.3315    1.5403    1.9349 C   0  0  0  0  0  0  0  0  0  0  0  0
   -0.1212    2.6832    1.9284 O   0  0  0  0  0  0  0  0  0  0  0  0
   -1.1101    0.4070    0.2196 C   0  0  0  0  0  0  0  0  0  0  0  0
   -1.1904   -0.3540   -1.1031 C   0  0  0  0  0  0  0  0  0  0  0  0
   -2.5989   -0.6393   -1.6348 C   0  0  0  0  0  0  0  0  0  0  0  0
   -3.5292   -0.3276   -0.8367 O   0  5  0  0  0  0  0  0  0  0  0  0
   -2.6705   -1.1306   -2.7949 O   0  0  0  0  0  0  0  0  0  0  0  0
    1.9288   -0.5463    1.4242 H   0  0  0  0  0  0  0  0  0  0  0  0
    0.9422    1.0989   -0.0731 H   0  0  0  0  0  0  0  0  0  0  0  0
   -1.6315    1.3672    0.1206 H   0  0  0  0  0  0  0  0  0  0  0  0
   -1.6641   -0.1599    0.9799 H   0  0  0  0  0  0  0  0  0  0  0  0
   -0.6160    0.1736   -1.8739 H   0  0  0  0  0  0  0  0  0  0  0  0
   -0.7088   -1.3311   -0.9697 H   0  0  0  0  0  0  0  0  0  0  0  0
    0.9437    0.9354    3.0238 N   0  0  0  0  0  0  0  0  0  0  0  0
    1.0900    1.5894    4.3035 C   0  0  2  0  0  0  0  0  0  0  0  0
    2.1679    0.8528    5.0876 C   0  0  0  0  0  0  0  0  0  0  0  0
    2.4864   -0.3121    4.8583 O   0  0  0  0  0  0  0  0  0  0  0  0
   -0.2236    1.6065    5.0695 C   0  0  0  0  0  0  0  0  0  0  0  0
    1.2764   -0.0208    2.9413 H   0  0  0  0  0  0  0  0  0  0  0  0
    1.4215    2.6133    4.0992 H   0  0  0  0  0  0  0  0  0  0  0  0
   -0.5716    0.5893    5.2833 H   0  0  0  0  0  0  0  0  0  0  0  0
   -0.1179    2.1277    6.0267 H   0  0  0  0  0  0  0  0  0  0  0  0
   -1.0055    2.1106    4.4913 H   0  0  0  0  0  0  0  0  0  0  0  0
    2.7022    1.6352    6.1018 N   0  0  0  0  0  0  0  0  0  0  0  0
    3.7325    1.1577    6.9942 C   0  0  0  0  0  0  0  0  0  0  0  0
    2.3919    2.5966    6.2074 H   0  0  0  0  0  0  0  0  0  0  0  0
    3.2686    0.7282    7.8944 H   0  0  0  0  0  0  0  0  0  0  0  0
    4.3293    0.3862    6.4857 H   0  0  0  0  0  0  0  0  0  0  0  0
    4.3849    1.9953    7.2823 H   0  0  0  0  0  0  0  0  0  0  0  0
  1  3  1  0  0  0  0
  1  7  1  0  0  0  0
  1  2  2  0  0  0  0
 33 34  1  0  0  0  0
 34 42  1  0  0  0  0
 34 35  2  0  0  0  0
  8  9  1  0  0  0  0
  9 17  1  0  0  0  0
  9 10  2  0  0  0  0
 18 19  1  0  0  0  0
 19 32  1  0  0  0  0
 19 20  2  0  0  0  0
 22 23  1  0  0  0  0
 23 24  1  0  0  0  0
 23 25  2  0  0  0  0
 33 36  1  0  0  0  0
  8 11  1  0  0  0  0
 42 43  1  0  0  0  0
 21 22  1  0  0  0  0
 18 21  1  0  0  0  0
 32 33  1  0  0  0  0
  7  8  1  0  0  0  0
 17 18  1  0  0  0  0
  3  4  1  0  0  0  0
  3  5  1  0  0  0  0
  3  6  1  0  0  0  0
 36 39  1  0  0  0  0
 36 40  1  0  0  0  0
 36 41  1  0  0  0  0
 11 14  1  0  0  0  0
 11 15  1  0  0  0  0
 11 16  1  0  0  0  0
 43 45  1  0  0  0  0
 43 46  1  0  0  0  0
 43 47  1  0  0  0  0
 22 30  1  0  0  0  0
 22 31  1  0  0  0  0
 21 28  1  0  0  0  0
 21 29  1  0  0  0  0
 33 38  1  0  0  0  0
  8 13  1  0  0  0  0
 18 27  1  0  0  0  0
 42 44  1  0  0  0  0
  7 12  1  0  0  0  0
 32 37  1  0  0  0  0
 17 26  1  0  0  0  0
M  CHG  1  24  -1
M  END
$$$$

  -OEChem-05262214473D

 47 46  0     1  0  0  0  0  0999 V2000
    0.5093   -4.7265    3.0306 C   0  0  0  0  0  0  0  0  0  0  0  0
    1.2735   -4.4402    3.9448 O   0  0  0  0  0  0  0  0  0  0  0  0
   -0.4465   -5.8608    3.1982 C   0  0  0  0  0  0  0  0  0  0  0  0
   -0.0219   -6.8213    2.8645 H   0  0  0  0  0  0  0  0  0  0  0  0
   -0.7314   -6.0185    4.2509 H   0  0  0  0  0  0  0  0  0  0  0  0
   -1.3983   -5.7596    2.6527 H   0  0  0  0  0  0  0  0  0  0  0  0
    0.4252   -4.0886    1.8040 N   0  0  0  0  0  0  0  0  0  0  0  0
    1.2532   -2.9707    1.4349 C   0  0  2  0  0  0  0  0  0  0  0  0
    0.3395   -1.8293    1.0083 C   0  0  0  0  0  0  0  0  0  0  0  0
   -0.8136   -2.0027    0.6194 O   0  0  0  0  0  0  0  0  0  0  0  0
    2.2176   -3.3411    0.3189 C   0  0  0  0  0  0  0  0  0  0  0  0
   -0.2574   -4.4279    1.1287 H   0  0  0  0  0  0  0  0  0  0  0  0
    1.8087   -2.6785    2.3327 H   0  0  0  0  0  0  0  0  0  0  0  0
    1.6793   -3.6366   -0.5890 H   0  0  0  0  0  0  0  0  0  0  0  0
    2.8662   -2.4980    0.0589 H   0  0  0  0  0  0  0  0  0  0  0  0
    2.8538   -4.1816    0.6166 H   0  0  0  0  0  0  0  0  0  0  0  0
    0.9758   -0.5952    1.0708 N   0  0  0  0  0  0  0  0  0  0  0  0
    0.3258    0.6374    0.7059 C   0  0  2  0  0  0  0  0  0  0  0  0
    0.3315    1.5403    1.9349 C   0  0  0  0  0  0  0  0  0  0  0  0
   -0.3451    2.5633    2.0176 O   0  0  0  0  0  0  0  0  0  0  0  0
   -1.1101    0.4070    0.2196 C   0  0  0  0  0  0  0  0  0  0  0  0
   -1.1904   -0.3540   -1.1031 C   0  0  0  0  0  0  0  0  0  0  0  0
   -2.5989   -0.6393   -1.6348 C   0  0  0  0  0  0  0  0  0  0  0  0
   -3.5292   -0.3276   -0.8367 O   0  5  0  0  0  0  0  0  0  0  0  0
   -2.6705   -1.1306   -2.7949 O   0  0  0  0  0  0  0  0  0  0  0  0
    1.9288   -0.5463    1.4242 H   0  0  0  0  0  0  0  0  0  0  0  0
    0.9422    1.0989   -0.0731 H   0  0  0  0  0  0  0  0  0  0  0  0
   -1.6315    1.3672    0.1206 H   0  0  0  0  0  0  0  0  0  0  0  0
   -1.6641   -0.1599    0.9799 H   0  0  0  0  0  0  0  0  0  0  0  0
   -0.6160    0.1736   -1.8739 H   0  0  0  0  0  0  0  0  0  0  0  0
   -0.7088   -1.3311   -0.9697 H   0  0  0  0  0  0  0  0  0  0  0  0
    1.2159    1.0931    2.9066 N   0  0  0  0  0  0  0  0  0  0  0  0
    1.4171    1.7828    4.1599 C   0  0  2  0  0  0  0  0  0  0  0  0
    2.7321    1.2993    4.7569 C   0  0  0  0  0  0  0  0  0  0  0  0
    3.2475    0.2231    4.4614 O   0  0  0  0  0  0  0  0  0  0  0  0
    0.2622    1.5371    5.1182 C   0  0  0  0  0  0  0  0  0  0  0  0
    1.7241    0.2263    2.7577 H   0  0  0  0  0  0  0  0  0  0  0  0
    1.4925    2.8501    3.9250 H   0  0  0  0  0  0  0  0  0  0  0  0
    0.1709    0.4731    5.3652 H   0  0  0  0  0  0  0  0  0  0  0  0
    0.4024    2.0834    6.0568 H   0  0  0  0  0  0  0  0  0  0  0  0
   -0.6868    1.8581    4.6753 H   0  0  0  0  0  0  0  0  0  0  0  0
    3.2406    2.1913    5.6907 N   0  0  0  0  0  0  0  0  0  0  0  0
    4.4722    1.9531    6.4064 C   0  0  0  0  0  0  0  0  0  0  0  0
    2.7566    3.0684    5.8590 H   0  0  0  0  0  0  0  0  0  0  0  0
    4.2517    1.4500    7.3594 H   0  0  0  0  0  0  0  0  0  0  0  0
    5.1315    1.3154    5.7992 H   0  0  0  0  0  0  0  0  0  0  0  0
    4.9719    2.9126    6.6055 H   0  0  0  0  0  0  0  0  0  0  0  0
  1  3  1  0  0  0  0
  1  7  1  0  0  0  0
  1  2  2  0  0  0  0
 33 34  1  0  0  0  0
 34 42  1  0  0  0  0
 34 35  2  0  0  0  0
  8  9  1  0  0  0  0
  9 17  1  0  0  0  0
  9 10  2  0  0  0  0
 18 19  1  0  0  0  0
 19 32  1  0  0  0  0
 19 20  2  0  0  0  0
 22 23  1  0  0  0  0
 23 24  1  0  0  0  0
 23 25  2  0  0  0  0
 33 36  1  0  0  0  0
  8 11  1  0  0  0  0
 42 43  1  0  0  0  0
 21 22  1  0  0  0  0
 18 21  1  0  0  0  0
 32 33  1  0  0  0  0
  7  8  1  0  0  0  0
 17 18  1  0  0  0  0
  3  4  1  0  0  0  0
  3  5  1  0  0  0  0
  3  6  1  0  0  0  0
 36 39  1  0  0  0  0
 36 40  1  0  0  0  0
 36 41  1  0  0  0  0
 11 14  1  0  0  0  0
 11 15  1  0  0  0  0
 11 16  1  0  0  0  0
 43 45  1  0  0  0  0
 43 46  1  0  0  0  0
 43 47  1  0  0  0  0
 22 30  1  0  0  0  0
 22 31  1  0  0  0  0
 21 28  1  0  0  0  0
 21 29  1  0  0  0  0
 33 38  1  0  0  0  0
  8 13  1  0  0  0  0
 18 27  1  0  0  0  0
 42 44  1  0  0  0  0
  7 12  1  0  0  0  0
 32 37  1  0  0  0  0
 17 26  1  0  0  0  0
M  CHG  1  24  -1
M  END
$$$$

  -OEChem-05262214473D

 47 46  0     1  0  0  0  0  0999 V2000
    0.5093   -4.7265    3.0306 C   0  0  0  0  0  0  0  0  0  0  0  0
    1.2735   -4.4402    3.9448 O   0  0  0  0  0  0  0  0  0  0  0  0
   -0.4465   -5.8608    3.1982 C   0  0  0  0  0  0  0  0  0  0  0  0
   -0.0219   -6.8213    2.8645 H   0  0  0  0  0  0  0  0  0  0  0  0
   -0.7314   -6.0185    4.2509 H   0  0  0  0  0  0  0  0  0  0  0  0
   -1.3983   -5.7596    2.6527 H   0  0  0  0  0  0  0  0  0  0  0  0
    0.4252   -4.0886    1.8040 N   0  0  0  0  0  0  0  0  0  0  0  0
    1.2532   -2.9707    1.4349 C   0  0  2  0  0  0  0  0  0  0  0  0
    0.3395   -1.8293    1.0083 C   0  0  0  0  0  0  0  0  0  0  0  0
   -0.8136   -2.0027    0.6194 O   0  0  0  0  0  0  0  0  0  0  0  0
    2.2176   -3.3411    0.3189 C   0  0  0  0  0  0  0  0  0  0  0  0
   -0.2574   -4.4279    1.1287 H   0  0  0  0  0  0  0  0  0  0  0  0
    1.8087   -2.6785    2.3327 H   0  0  0  0  0  0  0  0  0  0  0  0
    1.6793   -3.6366   -0.5890 H   0  0  0  0  0  0  0  0  0  0  0  0
    2.8662   -2.4980    0.0589 H   0  0  0  0  0  0  0  0  0  0  0  0
    2.8538   -4.1816    0.6166 H   0  0  0  0  0  0  0  0  0  0  0  0
    0.9758   -0.5952    1.0708 N   0  0  0  0  0  0  0  0  0  0  0  0
    0.3258    0.6374    0.7059 C   0  0  2  0  0  0  0  0  0  0  0  0
    0.3315    1.5403    1.9349 C   0  0  0  0  0  0  0  0  0  0  0  0
   -0.5226    2.4008    2.1378 O   0  0  0  0  0  0  0  0  0  0  0  0
   -1.1101    0.4070    0.2196 C   0  0  0  0  0  0  0  0  0  0  0  0
   -1.1904   -0.3540   -1.1031 C   0  0  0  0  0  0  0  0  0  0  0  0
   -2.5989   -0.6393   -1.6348 C   0  0  0  0  0  0  0  0  0  0  0  0
   -3.5292   -0.3276   -0.8367 O   0  5  0  0  0  0  0  0  0  0  0  0
   -2.6705   -1.1306   -2.7949 O   0  0  0  0  0  0  0  0  0  0  0  0
    1.9288   -0.5463    1.4242 H   0  0  0  0  0  0  0  0  0  0  0  0
    0.9422    1.0989   -0.0731 H   0  0  0  0  0  0  0  0  0  0  0  0
   -1.6315    1.3672    0.1206 H   0  0  0  0  0  0  0  0  0  0  0  0
   -1.6641   -0.1599    0.9799 H   0  0  0  0  0  0  0  0  0  0  0  0
   -0.6160    0.1736   -1.8739 H   0  0  0  0  0  0  0  0  0  0  0  0
   -0.7088   -1.3311   -0.9697 H   0  0  0  0  0  0  0  0  0  0  0  0
    1.4281    1.3024    2.7519 N   0  0  0  0  0  0  0  0  0  0  0  0
    1.6708    2.0379    3.9712 C   0  0  2  0  0  0  0  0  0  0  0  0
    3.1333    1.8486    4.3514 C   0  0  0  0  0  0  0  0  0  0  0  0
    3.8102    0.8993    3.9620 O   0  0  0  0  0  0  0  0  0  0  0  0
    0.7534    1.5713    5.0908 C   0  0  0  0  0  0  0  0  0  0  0  0
    2.0767    0.5585    2.5119 H   0  0  0  0  0  0  0  0  0  0  0  0
    1.4851    3.0937    3.7460 H   0  0  0  0  0  0  0  0  0  0  0  0
    0.9249    0.5156    5.3304 H   0  0  0  0  0  0  0  0  0  0  0  0
    0.9188    2.1491    6.0061 H   0  0  0  0  0  0  0  0  0  0  0  0
   -0.2981    1.6804    4.8040 H   0  0  0  0  0  0  0  0  0  0  0  0
    3.5817    2.8413    5.2115 N   0  0  0  0  0  0  0  0  0  0  0  0
    4.9308    2.8762    5.7260 C   0  0  0  0  0  0  0  0  0  0  0  0
    2.9571    3.6005    5.4672 H   0  0  0  0  0  0  0  0  0  0  0  0
    4.9688    2.3528    6.6927 H   0  0  0  0  0  0  0  0  0  0  0  0
    5.6075    2.3809    5.0141 H   0  0  0  0  0  0  0  0  0  0  0  0
    5.2439    3.9218    5.8628 H   0  0  0  0  0  0  0  0  0  0  0  0
  1  3  1  0  0  0  0
  1  7  1  0  0  0  0
  1  2  2  0  0  0  0
 33 34  1  0  0  0  0
 34 42  1  0  0  0  0
 34 35  2  0  0  0  0
  8  9  1  0  0  0  0
  9 17  1  0  0  0  0
  9 10  2  0  0  0  0
 18 19  1  0  0  0  0
 19 32  1  0  0  0  0
 19 20  2  0  0  0  0
 22 23  1  0  0  0  0
 23 24  1  0  0  0  0
 23 25  2  0  0  0  0
 33 36  1  0  0  0  0
  8 11  1  0  0  0  0
 42 43  1  0  0  0  0
 21 22  1  0  0  0  0
 18 21  1  0  0  0  0
 32 33  1  0  0  0  0
  7  8  1  0  0  0  0
 17 18  1  0  0  0  0
  3  4  1  0  0  0  0
  3  5  1  0  0  0  0
  3  6  1  0  0  0  0
 36 39  1  0  0  0  0
 36 40  1  0  0  0  0
 36 41  1  0  0  0  0
 11 14  1  0  0  0  0
 11 15  1  0  0  0  0
 11 16  1  0  0  0  0
 43 45  1  0  0  0  0
 43 46  1  0  0  0  0
 43 47  1  0  0  0  0
 22 30  1  0  0  0  0
 22 31  1  0  0  0  0
 21 28  1  0  0  0  0
 21 29  1  0  0  0  0
 33 38  1  0  0  0  0
  8 13  1  0  0  0  0
 18 27  1  0  0  0  0
 42 44  1  0  0  0  0
  7 12  1  0  0  0  0
 32 37  1  0  0  0  0
 17 26  1  0  0  0  0
M  CHG  1  24  -1
M  END
$$$$

  -OEChem-05262214473D

 47 46  0     1  0  0  0  0  0999 V2000
    0.5093   -4.7265    3.0306 C   0  0  0  0  0  0  0  0  0  0  0  0
    1.2735   -4.4402    3.9448 O   0  0  0  0  0  0  0  0  0  0  0  0
   -0.4465   -5.8608    3.1982 C   0  0  0  0  0  0  0  0  0  0  0  0
   -0.0219   -6.8213    2.8645 H   0  0  0  0  0  0  0  0  0  0  0  0
   -0.7314   -6.0185    4.2509 H   0  0  0  0  0  0  0  0  0  0  0  0
   -1.3983   -5.7596    2.6527 H   0  0  0  0  0  0  0  0  0  0  0  0
    0.4252   -4.0886    1.8040 N   0  0  0  0  0  0  0  0  0  0  0  0
    1.2532   -2.9707    1.4349 C   0  0  2  0  0  0  0  0  0  0  0  0
    0.3395   -1.8293    1.0083 C   0  0  0  0  0  0  0  0  0  0  0  0
   -0.8136   -2.0027    0.6194 O   0  0  0  0  0  0  0  0  0  0  0  0
    2.2176   -3.3411    0.3189 C   0  0  0  0  0  0  0  0  0  0  0  0
   -0.2574   -4.4279    1.1287 H   0  0  0  0  0  0  0  0  0  0  0  0
    1.8087   -2.6785    2.3327 H   0  0  0  0  0  0  0  0  0  0  0  0
    1.6793   -3.6366   -0.5890 H   0  0  0  0  0  0  0  0  0  0  0  0
    2.8662   -2.4980    0.0589 H   0  0  0  0  0  0  0  0  0  0  0  0
    2.8538   -4.1816    0.6166 H   0  0  0  0  0  0  0  0  0  0  0  0
    0.9758   -0.5952    1.0708 N   0  0  0  0  0  0  0  0  0  0  0  0
    0.3258    0.6374    0.7059 C   0  0  2  0  0  0  0  0  0  0  0  0
    0.3315    1.5403    1.9349 C   0  0  0  0  0  0  0  0  0  0  0  0
   -0.6418    2.2066    2.2810 O   0  0  0  0  0  0  0  0  0  0  0  0
   -1.1101    0.4070    0.2196 C   0  0  0  0  0  0  0  0  0  0  0  0
   -1.1904   -0.3540   -1.1031 C   0  0  0  0  0  0  0  0  0  0  0  0
   -2.5989   -0.6393   -1.6348 C   0  0  0  0  0  0  0  0  0  0  0  0
   -3.5292   -0.3276   -0.8367 O   0  5  0  0  0  0  0  0  0  0  0  0
   -2.6705   -1.1306   -2.7949 O   0  0  0  0  0  0  0  0  0  0  0  0
    1.9288   -0.5463    1.4242 H   0  0  0  0  0  0  0  0  0  0  0  0
    0.9422    1.0989   -0.0731 H   0  0  0  0  0  0  0  0  0  0  0  0
   -1.6315    1.3672    0.1206 H   0  0  0  0  0  0  0  0  0  0  0  0
   -1.6641   -0.1599    0.9799 H   0  0  0  0  0  0  0  0  0  0  0  0
   -0.6160    0.1736   -1.8739 H   0  0  0  0  0  0  0  0  0  0  0  0
   -0.7088   -1.3311   -0.9697 H   0  0  0  0  0  0  0  0  0  0  0  0
    1.5656    1.5489    2.5701 N   0  0  0  0  0  0  0  0  0  0  0  0
    1.8337    2.3374    3.7504 C   0  0  2  0  0  0  0  0  0  0  0  0
    3.3442    2.4633    3.8988 C   0  0  0  0  0  0  0  0  0  0  0  0
    4.1362    1.6703    3.3940 O   0  0  0  0  0  0  0  0  0  0  0  0
    1.2165    1.7069    4.9890 C   0  0  0  0  0  0  0  0  0  0  0  0
    2.3105    0.9532    2.2209 H   0  0  0  0  0  0  0  0  0  0  0  0
    1.3996    3.3277    3.5745 H   0  0  0  0  0  0  0  0  0  0  0  0
    1.6390    0.7139    5.1814 H   0  0  0  0  0  0  0  0  0  0  0  0
    1.3962    2.3204    5.8780 H   0  0  0  0  0  0  0  0  0  0  0  0
    0.1341    1.5898    4.8686 H   0  0  0  0  0  0  0  0  0  0  0  0
    3.7021    3.5407    4.6971 N   0  0  0  0  0  0  0  0  0  0  0  0
    5.0769    3.8642    4.9994 C   0  0  0  0  0  0  0  0  0  0  0  0
    2.9798    4.1567    5.0584 H   0  0  0  0  0  0  0  0  0  0  0  0
    5.3710    3.3751    5.9398 H   0  0  0  0  0  0  0  0  0  0  0  0
    5.7246    3.5102    4.1839 H   0  0  0  0  0  0  0  0  0  0  0  0
    5.1823    4.9541    5.1046 H   0  0  0  0  0  0  0  0  0  0  0  0
  1  3  1  0  0  0  0
  1  7  1  0  0  0  0
  1  2  2  0  0  0  0
 33 34  1  0  0  0  0
 34 42  1  0  0  0  0
 34 35  2  0  0  0  0
  8  9  1  0  0  0  0
  9 17  1  0  0  0  0
  9 10  2  0  0  0  0
 18 19  1  0  0  0  0
 19 32  1  0  0  0  0
 19 20  2  0  0  0  0
 22 23  1  0  0  0  0
 23 24  1  0  0  0  0
 23 25  2  0  0  0  0
 33 36  1  0  0  0  0
  8 11  1  0  0  0  0
 42 43  1  0  0  0  0
 21 22  1  0  0  0  0
 18 21  1  0  0  0  0
 32 33  1  0  0  0  0
  7  8  1  0  0  0  0
 17 18  1  0  0  0  0
  3  4  1  0  0  0  0
  3  5  1  0  0  0  0
  3  6  1  0  0  0  0
 36 39  1  0  0  0  0
 36 40  1  0  0  0  0
 36 41  1  0  0  0  0
 11 14  1  0  0  0  0
 11 15  1  0  0  0  0
 11 16  1  0  0  0  0
 43 45  1  0  0  0  0
 43 46  1  0  0  0  0
 43 47  1  0  0  0  0
 22 30  1  0  0  0  0
 22 31  1  0  0  0  0
 21 28  1  0  0  0  0
 21 29  1  0  0  0  0
 33 38  1  0  0  0  0
  8 13  1  0  0  0  0
 18 27  1  0  0  0  0
 42 44  1  0  0  0  0
  7 12  1  0  0  0  0
 32 37  1  0  0  0  0
 17 26  1  0  0  0  0
M  CHG  1  24  -1
M  END
$$$$

  -OEChem-05262214473D

 47 46  0     1  0  0  0  0  0999 V2000
    0.5093   -4.7265    3.0306 C   0  0  0  0  0  0  0  0  0  0  0  0
    1.2735   -4.4402    3.9448 O   0  0  0  0  0  0  0  0  0  0  0  0
   -0.4465   -5.8608    3.1982 C   0  0  0  0  0  0  0  0  0  0  0  0
   -0.0219   -6.8213    2.8645 H   0  0  0  0  0  0  0  0  0  0  0  0
   -0.7314   -6.0185    4.2509 H   0  0  0  0  0  0  0  0  0  0  0  0
   -1.3983   -5.7596    2.6527 H   0  0  0  0  0  0  0  0  0  0  0  0
    0.4252   -4.0886    1.8040 N   0  0  0  0  0  0  0  0  0  0  0  0
    1.2532   -2.9707    1.4349 C   0  0  2  0  0  0  0  0  0  0  0  0
    0.3395   -1.8293    1.0083 C   0  0  0  0  0  0  0  0  0  0  0  0
   -0.8136   -2.0027    0.6194 O   0  0  0  0  0  0  0  0  0  0  0  0
    2.2176   -3.3411    0.3189 C   0  0  0  0  0  0  0  0  0  0  0  0
   -0.2574   -4.4279    1.1287 H   0  0  0  0  0  0  0  0  0  0  0  0
    1.8087   -2.6785    2.3327 H   0  0  0  0  0  0  0  0  0  0  0  0
    1.6793   -3.6366   -0.5890 H   0  0  0  0  0  0  0  0  0  0  0  0
    2.8662   -2.4980    0.0589 H   0  0  0  0  0  0  0  0  0  0  0  0
    2.8538   -4.1816    0.6166 H   0  0  0  0  0  0  0  0  0  0  0  0
    0.9758   -0.5952    1.0708 N   0  0  0  0  0  0  0  0  0  0  0  0
    0.3258    0.6374    0.7059 C   0  0  2  0  0  0  0  0  0  0  0  0
    0.3315    1.5403    1.9349 C   0  0  0  0  0  0  0  0  0  0  0  0
   -0.6945    1.9941    2.4374 O   0  0  0  0  0  0  0  0  0  0  0  0
   -1.1101    0.4070    0.2196 C   0  0  0  0  0  0  0  0  0  0  0  0
   -1.1904   -0.3540   -1.1031 C   0  0  0  0  0  0  0  0  0  0  0  0
   -2.5989   -0.6393   -1.6348 C   0  0  0  0  0  0  0  0  0  0  0  0
   -3.5292   -0.3276   -0.8367 O   0  5  0  0  0  0  0  0  0  0  0  0
   -2.6705   -1.1306   -2.7949 O   0  0  0  0  0  0  0  0  0  0  0  0
    1.9288   -0.5463    1.4242 H   0  0  0  0  0  0  0  0  0  0  0  0
    0.9422    1.0989   -0.0731 H   0  0  0  0  0  0  0  0  0  0  0  0
   -1.6315    1.3672    0.1206 H   0  0  0  0  0  0  0  0  0  0  0  0
   -1.6641   -0.1599    0.9799 H   0  0  0  0  0  0  0  0  0  0  0  0
   -0.6160    0.1736   -1.8739 H   0  0  0  0  0  0  0  0  0  0  0  0
   -0.7088   -1.3311   -0.9697 H   0  0  0  0  0  0  0  0  0  0  0  0
    1.6192    1.8159    2.3737 N   0  0  0  0  0  0  0  0  0  0  0  0
    1.8947    2.6609    3.5124 C   0  0  2  0  0  0  0  0  0  0  0  0
    3.3502    3.1015    3.4299 C   0  0  0  0  0  0  0  0  0  0  0  0
    4.2032    2.4835    2.7962 O   0  0  0  0  0  0  0  0  0  0  0  0
    1.6199    1.9345    4.8199 C   0  0  0  0  0  0  0  0  0  0  0  0
    2.4093    1.3835    1.9043 H   0  0  0  0  0  0  0  0  0  0  0  0
    1.2420    3.5360    3.4222 H   0  0  0  0  0  0  0  0  0  0  0  0
    2.2646    1.0546    4.9281 H   0  0  0  0  0  0  0  0  0  0  0  0
    1.8019    2.5855    5.6813 H   0  0  0  0  0  0  0  0  0  0  0  0
    0.5804    1.5923    4.8646 H   0  0  0  0  0  0  0  0  0  0  0  0
    3.5938    4.2419    4.1824 N   0  0  0  0  0  0  0  0  0  0  0  0
    4.9006    4.8497    4.2762 C   0  0  0  0  0  0  0  0  0  0  0  0
    2.8230    4.6990    4.6607 H   0  0  0  0  0  0  0  0  0  0  0  0
    5.4308    4.4471    5.1518 H   0  0  0  0  0  0  0  0  0  0  0  0
    5.4750    4.6262    3.3651 H   0  0  0  0  0  0  0  0  0  0  0  0
    4.7913    5.9391    4.3828 H   0  0  0  0  0  0  0  0  0  0  0  0
  1  3  1  0  0  0  0
  1  7  1  0  0  0  0
  1  2  2  0  0  0  0
 33 34  1  0  0  0  0
 34 42  1  0  0  0  0
 34 35  2  0  0  0  0
  8  9  1  0  0  0  0
  9 17  1  0  0  0  0
  9 10  2  0  0  0  0
 18 19  1  0  0  0  0
 19 32  1  0  0  0  0
 19 20  2  0  0  0  0
 22 23  1  0  0  0  0
 23 24  1  0  0  0  0
 23 25  2  0  0  0  0
 33 36  1  0  0  0  0
  8 11  1  0  0  0  0
 42 43  1  0  0  0  0
 21 22  1  0  0  0  0
 18 21  1  0  0  0  0
 32 33  1  0  0  0  0
  7  8  1  0  0  0  0
 17 18  1  0  0  0  0
  3  4  1  0  0  0  0
  3  5  1  0  0  0  0
  3  6  1  0  0  0  0
 36 39  1  0  0  0  0
 36 40  1  0  0  0  0
 36 41  1  0  0  0  0
 11 14  1  0  0  0  0
 11 15  1  0  0  0  0
 11 16  1  0  0  0  0
 43 45  1  0  0  0  0
 43 46  1  0  0  0  0
 43 47  1  0  0  0  0
 22 30  1  0  0  0  0
 22 31  1  0  0  0  0
 21 28  1  0  0  0  0
 21 29  1  0  0  0  0
 33 38  1  0  0  0  0
  8 13  1  0  0  0  0
 18 27  1  0  0  0  0
 42 44  1  0  0  0  0
  7 12  1  0  0  0  0
 32 37  1  0  0  0  0
 17 26  1  0  0  0  0
M  CHG  1  24  -1
M  END
$$$$

  -OEChem-05262214473D

 47 46  0     1  0  0  0  0  0999 V2000
    0.5093   -4.7265    3.0306 C   0  0  0  0  0  0  0  0  0  0  0  0
    1.2735   -4.4402    3.9448 O   0  0  0  0  0  0  0  0  0  0  0  0
   -0.4465   -5.8608    3.1982 C   0  0  0  0  0  0  0  0  0  0  0  0
   -0.0219   -6.8213    2.8645 H   0  0  0  0  0  0  0  0  0  0  0  0
   -0.7314   -6.0185    4.2509 H   0  0  0  0  0  0  0  0  0  0  0  0
   -1.3983   -5.7596    2.6527 H   0  0  0  0  0  0  0  0  0  0  0  0
    0.4252   -4.0886    1.8040 N   0  0  0  0  0  0  0  0  0  0  0  0
    1.2532   -2.9707    1.4349 C   0  0  2  0  0  0  0  0  0  0  0  0
    0.3395   -1.8293    1.0083 C   0  0  0  0  0  0  0  0  0  0  0  0
   -0.8136   -2.0027    0.6194 O   0  0  0  0  0  0  0  0  0  0  0  0
    2.2176   -3.3411    0.3189 C   0  0  0  0  0  0  0  0  0  0  0  0
   -0.2574   -4.4279    1.1287 H   0  0  0  0  0  0  0  0  0  0  0  0
    1.8087   -2.6785    2.3327 H   0  0  0  0  0  0  0  0  0  0  0  0
    1.6793   -3.6366   -0.5890 H   0  0  0  0  0  0  0  0  0  0  0  0
    2.8662   -2.4980    0.0589 H   0  0  0  0  0  0  0  0  0  0  0  0
    2.8538   -4.1816    0.6166 H   0  0  0  0  0  0  0  0  0  0  0  0
    0.9758   -0.5952    1.0708 N   0  0  0  0  0  0  0  0  0  0  0  0
    0.3258    0.6374    0.7059 C   0  0  2  0  0  0  0  0  0  0  0  0
    0.3315    1.5403    1.9349 C   0  0  0  0  0  0  0  0  0  0  0  0
   -0.6771    1.7776    2.5964 O   0  0  0  0  0  0  0  0  0  0  0  0
   -1.1101    0.4070    0.2196 C   0  0  0  0  0  0  0  0  0  0  0  0
   -1.1904   -0.3540   -1.1031 C   0  0  0  0  0  0  0  0  0  0  0  0
   -2.5989   -0.6393   -1.6348 C   0  0  0  0  0  0  0  0  0  0  0  0
   -3.5292   -0.3276   -0.8367 O   0  5  0  0  0  0  0  0  0  0  0  0
   -2.6705   -1.1306   -2.7949 O   0  0  0  0  0  0  0  0  0  0  0  0
    1.9288   -0.5463    1.4242 H   0  0  0  0  0  0  0  0  0  0  0  0
    0.9422    1.0989   -0.0731 H   0  0  0  0  0  0  0  0  0  0  0  0
   -1.6315    1.3672    0.1206 H   0  0  0  0  0  0  0  0  0  0  0  0
   -1.6641   -0.1599    0.9799 H   0  0  0  0  0  0  0  0  0  0  0  0
   -0.6160    0.1736   -1.8739 H   0  0  0  0  0  0  0  0  0  0  0  0
   -0.7088   -1.3311   -0.9697 H   0  0  0  0  0  0  0  0  0  0  0  0
    1.5851    2.0852    2.1760 N   0  0  0  0  0  0  0  0  0  0  0  0
    1.8497    2.9864    3.2735 C   0  0  2  0  0  0  0  0  0  0  0  0
    3.1511    3.7196    2.9767 C   0  0  0  0  0  0  0  0  0  0  0  0
    4.0067    3.2836    2.2093 O   0  0  0  0  0  0  0  0  0  0  0  0
    1.9362    2.2386    4.5949 C   0  0  0  0  0  0  0  0  0  0  0  0
    2.3665    1.8200    1.5838 H   0  0  0  0  0  0  0  0  0  0  0  0
    1.0229    3.7045    3.2994 H   0  0  0  0  0  0  0  0  0  0  0  0
    2.7590    1.5144    4.5879 H   0  0  0  0  0  0  0  0  0  0  0  0
    2.1084    2.9264    5.4294 H   0  0  0  0  0  0  0  0  0  0  0  0
    1.0103    1.6878    4.7924 H   0  0  0  0  0  0  0  0  0  0  0  0
    3.2640    4.8971    3.7026 N   0  0  0  0  0  0  0  0  0  0  0  0
    4.4139    5.7656    3.6056 C   0  0  0  0  0  0  0  0  0  0  0  0
    2.4975    5.1906    4.3010 H   0  0  0  0  0  0  0  0  0  0  0  0
    5.1443    5.4959    4.3826 H   0  0  0  0  0  0  0  0  0  0  0  0
    4.8757    5.6530    2.6136 H   0  0  0  0  0  0  0  0  0  0  0  0
    4.0976    6.8097    3.7464 H   0  0  0  0  0  0  0  0  0  0  0  0
  1  3  1  0  0  0  0
  1  7  1  0  0  0  0
  1  2  2  0  0  0  0
 33 34  1  0  0  0  0
 34 42  1  0  0  0  0
 34 35  2  0  0  0  0
  8  9  1  0  0  0  0
  9 17  1  0  0  0  0
  9 10  2  0  0  0  0
 18 19  1  0  0  0  0
 19 32  1  0  0  0  0
 19 20  2  0  0  0  0
 22 23  1  0  0  0  0
 23 24  1  0  0  0  0
 23 25  2  0  0  0  0
 33 36  1  0  0  0  0
  8 11  1  0  0  0  0
 42 43  1  0  0  0  0
 21 22  1  0  0  0  0
 18 21  1  0  0  0  0
 32 33  1  0  0  0  0
  7  8  1  0  0  0  0
 17 18  1  0  0  0  0
  3  4  1  0  0  0  0
  3  5  1  0  0  0  0
  3  6  1  0  0  0  0
 36 39  1  0  0  0  0
 36 40  1  0  0  0  0
 36 41  1  0  0  0  0
 11 14  1  0  0  0  0
 11 15  1  0  0  0  0
 11 16  1  0  0  0  0
 43 45  1  0  0  0  0
 43 46  1  0  0  0  0
 43 47  1  0  0  0  0
 22 30  1  0  0  0  0
 22 31  1  0  0  0  0
 21 28  1  0  0  0  0
 21 29  1  0  0  0  0
 33 38  1  0  0  0  0
  8 13  1  0  0  0  0
 18 27  1  0  0  0  0
 42 44  1  0  0  0  0
  7 12  1  0  0  0  0
 32 37  1  0  0  0  0
 17 26  1  0  0  0  0
M  CHG  1  24  -1
M  END
$$$$

  -OEChem-05262214473D

 47 46  0     1  0  0  0  0  0999 V2000
    0.5093   -4.7265    3.0306 C   0  0  0  0  0  0  0  0  0  0  0  0
    1.2735   -4.4402    3.9448 O   0  0  0  0  0  0  0  0  0  0  0  0
   -0.4465   -5.8608    3.1982 C   0  0  0  0  0  0  0  0  0  0  0  0
   -0.0219   -6.8213    2.8645 H   0  0  0  0  0  0  0  0  0  0  0  0
   -0.7314   -6.0185    4.2509 H   0  0  0  0  0  0  0  0  0  0  0  0
   -1.3983   -5.7596    2.6527 H   0  0  0  0  0  0  0  0  0  0  0  0
    0.4252   -4.0886    1.8040 N   0  0  0  0  0  0  0  0  0  0  0  0
    1.2532   -2.9707    1.4349 C   0  0  2  0  0  0  0  0  0  0  0  0
    0.3395   -1.8293    1.0083 C   0  0  0  0  0  0  0  0  0  0  0  0
   -0.8136   -2.0027    0.6194 O   0  0  0  0  0  0  0  0  0  0  0  0
    2.2176   -3.3411    0.3189 C   0  0  0  0  0  0  0  0  0  0  0  0
   -0.2574   -4.4279    1.1287 H   0  0  0  0  0  0  0  0  0  0  0  0
    1.8087   -2.6785    2.3327 H   0  0  0  0  0  0  0  0  0  0  0  0
    1.6793   -3.6366   -0.5890 H   0  0  0  0  0  0  0  0  0  0  0  0
    2.8662   -2.4980    0.0589 H   0  0  0  0  0  0  0  0  0  0  0  0
    2.8538   -4.1816    0.6166 H   0  0  0  0  0  0  0  0  0  0  0  0
    0.9758   -0.5952    1.0708 N   0  0  0  0  0  0  0  0  0  0  0  0
    0.3258    0.6374    0.7059 C   0  0  2  0  0  0  0  0  0  0  0  0
    0.3315    1.5403    1.9349 C   0  0  0  0  0  0  0  0  0  0  0  0
   -0.5908    1.5720    2.7470 O   0  0  0  0  0  0  0  0  0  0  0  0
   -1.1101    0.4070    0.2196 C   0  0  0  0  0  0  0  0  0  0  0  0
   -1.1904   -0.3540   -1.1031 C   0  0  0  0  0  0  0  0  0  0  0  0
   -2.5989   -0.6393   -1.6348 C   0  0  0  0  0  0  0  0  0  0  0  0
   -3.5292   -0.3276   -0.8367 O   0  5  0  0  0  0  0  0  0  0  0  0
   -2.6705   -1.1306   -2.7949 O   0  0  0  0  0  0  0  0  0  0  0  0
    1.9288   -0.5463    1.4242 H   0  0  0  0  0  0  0  0  0  0  0  0
    0.9422    1.0989   -0.0731 H   0  0  0  0  0  0  0  0  0  0  0  0
   -1.6315    1.3672    0.1206 H   0  0  0  0  0  0  0  0  0  0  0  0
   -1.6641   -0.1599    0.9799 H   0  0  0  0  0  0  0  0  0  0  0  0
   -0.6160    0.1736   -1.8739 H   0  0  0  0  0  0  0  0  0  0  0  0
   -0.7088   -1.3311   -0.9697 H   0  0  0  0  0  0  0  0  0  0  0  0
    1.4658    2.3383    1.9905 N   0  0  0  0  0  0  0  0  0  0  0  0
    1.7017    3.2916    3.0500 C   0  0  2  0  0  0  0  0  0  0  0  0
    2.7604    4.2756    2.5701 C   0  0  0  0  0  0  0  0  0  0  0  0
    3.5601    4.0161    1.6732 O   0  0  0  0  0  0  0  0  0  0  0  0
    2.1439    2.5986    4.3295 C   0  0  0  0  0  0  0  0  0  0  0  0
    2.1850    2.2330    1.2811 H   0  0  0  0  0  0  0  0  0  0  0  0
    0.7573    3.8217    3.2145 H   0  0  0  0  0  0  0  0  0  0  0  0
    3.0885    2.0620    4.1841 H   0  0  0  0  0  0  0  0  0  0  0  0
    2.2947    3.3198    5.1395 H   0  0  0  0  0  0  0  0  0  0  0  0
    1.3946    1.8698    4.6569 H   0  0  0  0  0  0  0  0  0  0  0  0
    2.7353    5.4617    3.2903 N   0  0  0  0  0  0  0  0  0  0  0  0
    3.6500    6.5494    3.0333 C   0  0  0  0  0  0  0  0  0  0  0  0
    2.0255    5.5979    4.0040 H   0  0  0  0  0  0  0  0  0  0  0  0
    4.5310    6.4499    3.6846 H   0  0  0  0  0  0  0  0  0  0  0  0
    3.9674    6.5205    1.9805 H   0  0  0  0  0  0  0  0  0  0  0  0
    3.1484    7.5065    3.2389 H   0  0  0  0  0  0  0  0  0  0  0  0
  1  3  1  0  0  0  0
  1  7  1  0  0  0  0
  1  2  2  0  0  0  0
 33 34  1  0  0  0  0
 34 42  1  0  0  0  0
 34 35  2  0  0  0  0
  8  9  1  0  0  0  0
  9 17  1  0  0  0  0
  9 10  2  0  0  0  0
 18 19  1  0  0  0  0
 19 32  1  0  0  0  0
 19 20  2  0  0  0  0
 22 23  1  0  0  0  0
 23 24  1  0  0  0  0
 23 25  2  0  0  0  0
 33 36  1  0  0  0  0
  8 11  1  0  0  0  0
 42 43  1  0  0  0  0
 21 22  1  0  0  0  0
 18 21  1  0  0  0  0
 32 33  1  0  0  0  0
  7  8  1  0  0  0  0
 17 18  1  0  0  0  0
  3  4  1  0  0  0  0
  3  5  1  0  0  0  0
  3  6  1  0  0  0  0
 36 39  1  0  0  0  0
 36 40  1  0  0  0  0
 36 41  1  0  0  0  0
 11 14  1  0  0  0  0
 11 15  1  0  0  0  0
 11 16  1  0  0  0  0
 43 45  1  0  0  0  0
 43 46  1  0  0  0  0
 43 47  1  0  0  0  0
 22 30  1  0  0  0  0
 22 31  1  0  0  0  0
 21 28  1  0  0  0  0
 21 29  1  0  0  0  0
 33 38  1  0  0  0  0
  8 13  1  0  0  0  0
 18 27  1  0  0  0  0
 42 44  1  0  0  0  0
  7 12  1  0  0  0  0
 32 37  1  0  0  0  0
 17 26  1  0  0  0  0
M  CHG  1  24  -1
M  END
$$$$

  -OEChem-05262214473D

 47 46  0     1  0  0  0  0  0999 V2000
    0.5093   -4.7265    3.0306 C   0  0  0  0  0  0  0  0  0  0  0  0
    1.2735   -4.4402    3.9448 O   0  0  0  0  0  0  0  0  0  0  0  0
   -0.4465   -5.8608    3.1982 C   0  0  0  0  0  0  0  0  0  0  0  0
   -0.0219   -6.8213    2.8645 H   0  0  0  0  0  0  0  0  0  0  0  0
   -0.7314   -6.0185    4.2509 H   0  0  0  0  0  0  0  0  0  0  0  0
   -1.3983   -5.7596    2.6527 H   0  0  0  0  0  0  0  0  0  0  0  0
    0.4252   -4.0886    1.8040 N   0  0  0  0  0  0  0  0  0  0  0  0
    1.2532   -2.9707    1.4349 C   0  0  2  0  0  0  0  0  0  0  0  0
    0.3395   -1.8293    1.0083 C   0  0  0  0  0  0  0  0  0  0  0  0
   -0.8136   -2.0027    0.6194 O   0  0  0  0  0  0  0  0  0  0  0  0
    2.2176   -3.3411    0.3189 C   0  0  0  0  0  0  0  0  0  0  0  0
   -0.2574   -4.4279    1.1287 H   0  0  0  0  0  0  0  0  0  0  0  0
    1.8087   -2.6785    2.3327 H   0  0  0  0  0  0  0  0  0  0  0  0
    1.6793   -3.6366   -0.5890 H   0  0  0  0  0  0  0  0  0  0  0  0
    2.8662   -2.4980    0.0589 H   0  0  0  0  0  0  0  0  0  0  0  0
    2.8538   -4.1816    0.6166 H   0  0  0  0  0  0  0  0  0  0  0  0
    0.9758   -0.5952    1.0708 N   0  0  0  0  0  0  0  0  0  0  0  0
    0.3258    0.6374    0.7059 C   0  0  2  0  0  0  0  0  0  0  0  0
    0.3315    1.5403    1.9349 C   0  0  0  0  0  0  0  0  0  0  0  0
   -0.4414    1.3913    2.8791 O   0  0  0  0  0  0  0  0  0  0  0  0
   -1.1101    0.4070    0.2196 C   0  0  0  0  0  0  0  0  0  0  0  0
   -1.1904   -0.3540   -1.1031 C   0  0  0  0  0  0  0  0  0  0  0  0
   -2.5989   -0.6393   -1.6348 C   0  0  0  0  0  0  0  0  0  0  0  0
   -3.5292   -0.3276   -0.8367 O   0  5  0  0  0  0  0  0  0  0  0  0
   -2.6705   -1.1306   -2.7949 O   0  0  0  0  0  0  0  0  0  0  0  0
    1.9288   -0.5463    1.4242 H   0  0  0  0  0  0  0  0  0  0  0  0
    0.9422    1.0989   -0.0731 H   0  0  0  0  0  0  0  0  0  0  0  0
   -1.6315    1.3672    0.1206 H   0  0  0  0  0  0  0  0  0  0  0  0
   -1.6641   -0.1599    0.9799 H   0  0  0  0  0  0  0  0  0  0  0  0
   -0.6160    0.1736   -1.8739 H   0  0  0  0  0  0  0  0  0  0  0  0
   -0.7088   -1.3311   -0.9697 H   0  0  0  0  0  0  0  0  0  0  0  0
    1.2693    2.5582    1.8300 N   0  0  0  0  0  0  0  0  0  0  0  0
    1.4609    3.5557    2.8570 C   0  0  2  0  0  0  0  0  0  0  0  0
    2.2048    4.7316    2.2377 C   0  0  0  0  0  0  0  0  0  0  0  0
    2.8938    4.6309    1.2246 O   0  0  0  0  0  0  0  0  0  0  0  0
    2.2287    2.9899    4.0416 C   0  0  0  0  0  0  0  0  0  0  0  0
    1.8772    2.5944    1.0171 H   0  0  0  0  0  0  0  0  0  0  0  0
    0.4634    3.8796    3.1734 H   0  0  0  0  0  0  0  0  0  0  0  0
    3.2307    2.6601    3.7440 H   0  0  0  0  0  0  0  0  0  0  0  0
    2.3482    3.7390    4.8313 H   0  0  0  0  0  0  0  0  0  0  0  0
    1.7071    2.1259    4.4672 H   0  0  0  0  0  0  0  0  0  0  0  0
    2.0436    5.8971    2.9736 N   0  0  0  0  0  0  0  0  0  0  0  0
    2.6610    7.1477    2.5984 C   0  0  0  0  0  0  0  0  0  0  0  0
    1.4390    5.8932    3.7898 H   0  0  0  0  0  0  0  0  0  0  0  0
    3.6325    7.2442    3.1052 H   0  0  0  0  0  0  0  0  0  0  0  0
    2.8122    7.1696    1.5090 H   0  0  0  0  0  0  0  0  0  0  0  0
    2.0085    7.9822    2.8948 H   0  0  0  0  0  0  0  0  0  0  0  0
  1  3  1  0  0  0  0
  1  7  1  0  0  0  0
  1  2  2  0  0  0  0
 33 34  1  0  0  0  0
 34 42  1  0  0  0  0
 34 35  2  0  0  0  0
  8  9  1  0  0  0  0
  9 17  1  0  0  0  0
  9 10  2  0  0  0  0
 18 19  1  0  0  0  0
 19 32  1  0  0  0  0
 19 20  2  0  0  0  0
 22 23  1  0  0  0  0
 23 24  1  0  0  0  0
 23 25  2  0  0  0  0
 33 36  1  0  0  0  0
  8 11  1  0  0  0  0
 42 43  1  0  0  0  0
 21 22  1  0  0  0  0
 18 21  1  0  0  0  0
 32 33  1  0  0  0  0
  7  8  1  0  0  0  0
 17 18  1  0  0  0  0
  3  4  1  0  0  0  0
  3  5  1  0  0  0  0
  3  6  1  0  0  0  0
 36 39  1  0  0  0  0
 36 40  1  0  0  0  0
 36 41  1  0  0  0  0
 11 14  1  0  0  0  0
 11 15  1  0  0  0  0
 11 16  1  0  0  0  0
 43 45  1  0  0  0  0
 43 46  1  0  0  0  0
 43 47  1  0  0  0  0
 22 30  1  0  0  0  0
 22 31  1  0  0  0  0
 21 28  1  0  0  0  0
 21 29  1  0  0  0  0
 33 38  1  0  0  0  0
  8 13  1  0  0  0  0
 18 27  1  0  0  0  0
 42 44  1  0  0  0  0
  7 12  1  0  0  0  0
 32 37  1  0  0  0  0
 17 26  1  0  0  0  0
M  CHG  1  24  -1
M  END
$$$$

  -OEChem-05262214473D

 47 46  0     1  0  0  0  0  0999 V2000
    0.5093   -4.7265    3.0306 C   0  0  0  0  0  0  0  0  0  0  0  0
    1.2735   -4.4402    3.9448 O   0  0  0  0  0  0  0  0  0  0  0  0
   -0.4465   -5.8608    3.1982 C   0  0  0  0  0  0  0  0  0  0  0  0
   -0.0219   -6.8213    2.8645 H   0  0  0  0  0  0  0  0  0  0  0  0
   -0.7314   -6.0185    4.2509 H   0  0  0  0  0  0  0  0  0  0  0  0
   -1.3983   -5.7596    2.6527 H   0  0  0  0  0  0  0  0  0  0  0  0
    0.4252   -4.0886    1.8040 N   0  0  0  0  0  0  0  0  0  0  0  0
    1.2532   -2.9707    1.4349 C   0  0  2  0  0  0  0  0  0  0  0  0
    0.3395   -1.8293    1.0083 C   0  0  0  0  0  0  0  0  0  0  0  0
   -0.8136   -2.0027    0.6194 O   0  0  0  0  0  0  0  0  0  0  0  0
    2.2176   -3.3411    0.3189 C   0  0  0  0  0  0  0  0  0  0  0  0
   -0.2574   -4.4279    1.1287 H   0  0  0  0  0  0  0  0  0  0  0  0
    1.8087   -2.6785    2.3327 H   0  0  0  0  0  0  0  0  0  0  0  0
    1.6793   -3.6366   -0.5890 H   0  0  0  0  0  0  0  0  0  0  0  0
    2.8662   -2.4980    0.0589 H   0  0  0  0  0  0  0  0  0  0  0  0
    2.8538   -4.1816    0.6166 H   0  0  0  0  0  0  0  0  0  0  0  0
    0.9758   -0.5952    1.0708 N   0  0  0  0  0  0  0  0  0  0  0  0
    0.3258    0.6374    0.7059 C   0  0  2  0  0  0  0  0  0  0  0  0
    0.3315    1.5403    1.9349 C   0  0  0  0  0  0  0  0  0  0  0  0
   -0.2392    1.2477    2.9836 O   0  0  0  0  0  0  0  0  0  0  0  0
   -1.1101    0.4070    0.2196 C   0  0  0  0  0  0  0  0  0  0  0  0
   -1.1904   -0.3540   -1.1031 C   0  0  0  0  0  0  0  0  0  0  0  0
   -2.5989   -0.6393   -1.6348 C   0  0  0  0  0  0  0  0  0  0  0  0
   -3.5292   -0.3276   -0.8367 O   0  5  0  0  0  0  0  0  0  0  0  0
   -2.6705   -1.1306   -2.7949 O   0  0  0  0  0  0  0  0  0  0  0  0
    1.9288   -0.5463    1.4242 H   0  0  0  0  0  0  0  0  0  0  0  0
    0.9422    1.0989   -0.0731 H   0  0  0  0  0  0  0  0  0  0  0  0
   -1.6315    1.3672    0.1206 H   0  0  0  0  0  0  0  0  0  0  0  0
   -1.6641   -0.1599    0.9799 H   0  0  0  0  0  0  0  0  0  0  0  0
   -0.6160    0.1736   -1.8739 H   0  0  0  0  0  0  0  0  0  0  0  0
   -0.7088   -1.3311   -0.9697 H   0  0  0  0  0  0  0  0  0  0  0  0
    1.0090    2.7297    1.7052 N   0  0  0  0  0  0  0  0  0  0  0  0
    1.1436    3.7609    2.7078 C   0  0  2  0  0  0  0  0  0  0  0  0
    1.5220    5.0564    2.0022 C   0  0  0  0  0  0  0  0  0  0  0  0
    2.0532    5.0863    0.8940 O   0  0  0  0  0  0  0  0  0  0  0  0
    2.1848    3.3859    3.7509 C   0  0  0  0  0  0  0  0  0  0  0  0
    1.4640    2.8796    0.8095 H   0  0  0  0  0  0  0  0  0  0  0  0
    0.1611    3.8743    3.1787 H   0  0  0  0  0  0  0  0  0  0  0  0
    3.1759    3.2678    3.2977 H   0  0  0  0  0  0  0  0  0  0  0  0
    2.2652    4.1554    4.5257 H   0  0  0  0  0  0  0  0  0  0  0  0
    1.9265    2.4386    4.2364 H   0  0  0  0  0  0  0  0  0  0  0  0
    1.2362    6.1738    2.7741 N   0  0  0  0  0  0  0  0  0  0  0  0
    1.5143    7.5198    2.3304 C   0  0  0  0  0  0  0  0  0  0  0  0
    0.7782    6.0563    3.6731 H   0  0  0  0  0  0  0  0  0  0  0  0
    2.5103    7.8246    2.6841 H   0  0  0  0  0  0  0  0  0  0  0  0
    1.4886    7.5561    1.2313 H   0  0  0  0  0  0  0  0  0  0  0  0
    0.7554    8.2042    2.7376 H   0  0  0  0  0  0  0  0  0  0  0  0
  1  3  1  0  0  0  0
  1  7  1  0  0  0  0
  1  2  2  0  0  0  0
 33 34  1  0  0  0  0
 34 42  1  0  0  0  0
 34 35  2  0  0  0  0
  8  9  1  0  0  0  0
  9 17  1  0  0  0  0
  9 10  2  0  0  0  0
 18 19  1  0  0  0  0
 19 32  1  0  0  0  0
 19 20  2  0  0  0  0
 22 23  1  0  0  0  0
 23 24  1  0  0  0  0
 23 25  2  0  0  0  0
 33 36  1  0  0  0  0
  8 11  1  0  0  0  0
 42 43  1  0  0  0  0
 21 22  1  0  0  0  0
 18 21  1  0  0  0  0
 32 33  1  0  0  0  0
  7  8  1  0  0  0  0
 17 18  1  0  0  0  0
  3  4  1  0  0  0  0
  3  5  1  0  0  0  0
  3  6  1  0  0  0  0
 36 39  1  0  0  0  0
 36 40  1  0  0  0  0
 36 41  1  0  0  0  0
 11 14  1  0  0  0  0
 11 15  1  0  0  0  0
 11 16  1  0  0  0  0
 43 45  1  0  0  0  0
 43 46  1  0  0  0  0
 43 47  1  0  0  0  0
 22 30  1  0  0  0  0
 22 31  1  0  0  0  0
 21 28  1  0  0  0  0
 21 29  1  0  0  0  0
 33 38  1  0  0  0  0
  8 13  1  0  0  0  0
 18 27  1  0  0  0  0
 42 44  1  0  0  0  0
  7 12  1  0  0  0  0
 32 37  1  0  0  0  0
 17 26  1  0  0  0  0
M  CHG  1  24  -1
M  END
$$$$

  -OEChem-05262214473D

 47 46  0     1  0  0  0  0  0999 V2000
    0.5093   -4.7265    3.0306 C   0  0  0  0  0  0  0  0  0  0  0  0
    1.2735   -4.4402    3.9448 O   0  0  0  0  0  0  0  0  0  0  0  0
   -0.4465   -5.8608    3.1982 C   0  0  0  0  0  0  0  0  0  0  0  0
   -0.0219   -6.8213    2.8645 H   0  0  0  0  0  0  0  0  0  0  0  0
   -0.7314   -6.0185    4.2509 H   0  0  0  0  0  0  0  0  0  0  0  0
   -1.3983   -5.7596    2.6527 H   0  0  0  0  0  0  0  0  0  0  0  0
    0.4252   -4.0886    1.8040 N   0  0  0  0  0  0  0  0  0  0  0  0
    1.2532   -2.9707    1.4349 C   0  0  2  0  0  0  0  0  0  0  0  0
    0.3395   -1.8293    1.0083 C   0  0  0  0  0  0  0  0  0  0  0  0
   -0.8136   -2.0027    0.6194 O   0  0  0  0  0  0  0  0  0  0  0  0
    2.2176   -3.3411    0.3189 C   0  0  0  0  0  0  0  0  0  0  0  0
   -0.2574   -4.4279    1.1287 H   0  0  0  0  0  0  0  0  0  0  0  0
    1.8087   -2.6785    2.3327 H   0  0  0  0  0  0  0  0  0  0  0  0
    1.6793   -3.6366   -0.5890 H   0  0  0  0  0  0  0  0  0  0  0  0
    2.8662   -2.4980    0.0589 H   0  0  0  0  0  0  0  0  0  0  0  0
    2.8538   -4.1816    0.6166 H   0  0  0  0  0  0  0  0  0  0  0  0
    0.9758   -0.5952    1.0708 N   0  0  0  0  0  0  0  0  0  0  0  0
    0.3258    0.6374    0.7059 C   0  0  2  0  0  0  0  0  0  0  0  0
    0.3315    1.5403    1.9349 C   0  0  0  0  0  0  0  0  0  0  0  0
    0.0021    1.1511    3.0535 O   0  0  0  0  0  0  0  0  0  0  0  0
   -1.1101    0.4070    0.2196 C   0  0  0  0  0  0  0  0  0  0  0  0
   -1.1904   -0.3540   -1.1031 C   0  0  0  0  0  0  0  0  0  0  0  0
   -2.5989   -0.6393   -1.6348 C   0  0  0  0  0  0  0  0  0  0  0  0
   -3.5292   -0.3276   -0.8367 O   0  5  0  0  0  0  0  0  0  0  0  0
   -2.6705   -1.1306   -2.7949 O   0  0  0  0  0  0  0  0  0  0  0  0
    1.9288   -0.5463    1.4242 H   0  0  0  0  0  0  0  0  0  0  0  0
    0.9422    1.0989   -0.0731 H   0  0  0  0  0  0  0  0  0  0  0  0
   -1.6315    1.3672    0.1206 H   0  0  0  0  0  0  0  0  0  0  0  0
   -1.6641   -0.1599    0.9799 H   0  0  0  0  0  0  0  0  0  0  0  0
   -0.6160    0.1736   -1.8739 H   0  0  0  0  0  0  0  0  0  0  0  0
   -0.7088   -1.3311   -0.9697 H   0  0  0  0  0  0  0  0  0  0  0  0
    0.7027    2.8412    1.6247 N   0  0  0  0  0  0  0  0  0  0  0  0
    0.7715    3.8930    2.6125 C   0  0  2  0  0  0  0  0  0  0  0  0
    0.7587    5.2280    1.8797 C   0  0  0  0  0  0  0  0  0  0  0  0
    1.0956    5.3511    0.7040 O   0  0  0  0  0  0  0  0  0  0  0  0
    2.0154    3.7595    3.4772 C   0  0  0  0  0  0  0  0  0  0  0  0
    0.9736    3.0691    0.6726 H   0  0  0  0  0  0  0  0  0  0  0  0
   -0.1290    3.8061    3.2302 H   0  0  0  0  0  0  0  0  0  0  0  0
    2.9278    3.8439    2.8757 H   0  0  0  0  0  0  0  0  0  0  0  0
    2.0514    4.5406    4.2438 H   0  0  0  0  0  0  0  0  0  0  0  0
    2.0378    2.7867    3.9802 H   0  0  0  0  0  0  0  0  0  0  0  0
    0.3680    6.2729    2.7055 N   0  0  0  0  0  0  0  0  0  0  0  0
    0.2879    7.6403    2.2477 C   0  0  0  0  0  0  0  0  0  0  0  0
    0.0880    6.0761    3.6618 H   0  0  0  0  0  0  0  0  0  0  0  0
    1.2406    8.1516    2.4498 H   0  0  0  0  0  0  0  0  0  0  0  0
    0.0870    7.6536    1.1662 H   0  0  0  0  0  0  0  0  0  0  0  0
   -0.5253    8.1574    2.7780 H   0  0  0  0  0  0  0  0  0  0  0  0
  1  3  1  0  0  0  0
  1  7  1  0  0  0  0
  1  2  2  0  0  0  0
 33 34  1  0  0  0  0
 34 42  1  0  0  0  0
 34 35  2  0  0  0  0
  8  9  1  0  0  0  0
  9 17  1  0  0  0  0
  9 10  2  0  0  0  0
 18 19  1  0  0  0  0
 19 32  1  0  0  0  0
 19 20  2  0  0  0  0
 22 23  1  0  0  0  0
 23 24  1  0  0  0  0
 23 25  2  0  0  0  0
 33 36  1  0  0  0  0
  8 11  1  0  0  0  0
 42 43  1  0  0  0  0
 21 22  1  0  0  0  0
 18 21  1  0  0  0  0
 32 33  1  0  0  0  0
  7  8  1  0  0  0  0
 17 18  1  0  0  0  0
  3  4  1  0  0  0  0
  3  5  1  0  0  0  0
  3  6  1  0  0  0  0
 36 39  1  0  0  0  0
 36 40  1  0  0  0  0
 36 41  1  0  0  0  0
 11 14  1  0  0  0  0
 11 15  1  0  0  0  0
 11 16  1  0  0  0  0
 43 45  1  0  0  0  0
 43 46  1  0  0  0  0
 43 47  1  0  0  0  0
 22 30  1  0  0  0  0
 22 31  1  0  0  0  0
 21 28  1  0  0  0  0
 21 29  1  0  0  0  0
 33 38  1  0  0  0  0
  8 13  1  0  0  0  0
 18 27  1  0  0  0  0
 42 44  1  0  0  0  0
  7 12  1  0  0  0  0
 32 37  1  0  0  0  0
 17 26  1  0  0  0  0
M  CHG  1  24  -1
M  END
$$$$

  -OEChem-05262214473D

 47 46  0     1  0  0  0  0  0999 V2000
    0.5093   -4.7265    3.0306 C   0  0  0  0  0  0  0  0  0  0  0  0
    1.2735   -4.4402    3.9448 O   0  0  0  0  0  0  0  0  0  0  0  0
   -0.4465   -5.8608    3.1982 C   0  0  0  0  0  0  0  0  0  0  0  0
   -0.0219   -6.8213    2.8645 H   0  0  0  0  0  0  0  0  0  0  0  0
   -0.7314   -6.0185    4.2509 H   0  0  0  0  0  0  0  0  0  0  0  0
   -1.3983   -5.7596    2.6527 H   0  0  0  0  0  0  0  0  0  0  0  0
    0.4252   -4.0886    1.8040 N   0  0  0  0  0  0  0  0  0  0  0  0
    1.2532   -2.9707    1.4349 C   0  0  2  0  0  0  0  0  0  0  0  0
    0.3395   -1.8293    1.0083 C   0  0  0  0  0  0  0  0  0  0  0  0
   -0.8136   -2.0027    0.6194 O   0  0  0  0  0  0  0  0  0  0  0  0
    2.2176   -3.3411    0.3189 C   0  0  0  0  0  0  0  0  0  0  0  0
   -0.2574   -4.4279    1.1287 H   0  0  0  0  0  0  0  0  0  0  0  0
    1.8087   -2.6785    2.3327 H   0  0  0  0  0  0  0  0  0  0  0  0
    1.6793   -3.6366   -0.5890 H   0  0  0  0  0  0  0  0  0  0  0  0
    2.8662   -2.4980    0.0589 H   0  0  0  0  0  0  0  0  0  0  0  0
    2.8538   -4.1816    0.6166 H   0  0  0  0  0  0  0  0  0  0  0  0
    0.9758   -0.5952    1.0708 N   0  0  0  0  0  0  0  0  0  0  0  0
    0.3258    0.6374    0.7059 C   0  0  2  0  0  0  0  0  0  0  0  0
    0.3315    1.5403    1.9349 C   0  0  0  0  0  0  0  0  0  0  0  0
    0.2660    1.1081    3.0839 O   0  0  0  0  0  0  0  0  0  0  0  0
   -1.1101    0.4070    0.2196 C   0  0  0  0  0  0  0  0  0  0  0  0
   -1.1904   -0.3540   -1.1031 C   0  0  0  0  0  0  0  0  0  0  0  0
   -2.5989   -0.6393   -1.6348 C   0  0  0  0  0  0  0  0  0  0  0  0
   -3.5292   -0.3276   -0.8367 O   0  5  0  0  0  0  0  0  0  0  0  0
   -2.6705   -1.1306   -2.7949 O   0  0  0  0  0  0  0  0  0  0  0  0
    1.9288   -0.5463    1.4242 H   0  0  0  0  0  0  0  0  0  0  0  0
    0.9422    1.0989   -0.0731 H   0  0  0  0  0  0  0  0  0  0  0  0
   -1.6315    1.3672    0.1206 H   0  0  0  0  0  0  0  0  0  0  0  0
   -1.6641   -0.1599    0.9799 H   0  0  0  0  0  0  0  0  0  0  0  0
   -0.6160    0.1736   -1.8739 H   0  0  0  0  0  0  0  0  0  0  0  0
   -0.7088   -1.3311   -0.9697 H   0  0  0  0  0  0  0  0  0  0  0  0
    0.3712    2.8851    1.5940 N   0  0  0  0  0  0  0  0  0  0  0  0
    0.3699    3.9431    2.5776 C   0  0  2  0  0  0  0  0  0  0  0  0
   -0.0332    5.2347    1.8786 C   0  0  0  0  0  0  0  0  0  0  0  0
    0.0862    5.4074    0.6674 O   0  0  0  0  0  0  0  0  0  0  0  0
    1.7318    4.0852    3.2392 C   0  0  0  0  0  0  0  0  0  0  0  0
    0.4394    3.1499    0.6157 H   0  0  0  0  0  0  0  0  0  0  0  0
   -0.3871    3.6796    3.3243 H   0  0  0  0  0  0  0  0  0  0  0  0
    2.5033    4.3490    2.5066 H   0  0  0  0  0  0  0  0  0  0  0  0
    1.7213    4.8683    4.0045 H   0  0  0  0  0  0  0  0  0  0  0  0
    2.0334    3.1464    3.7160 H   0  0  0  0  0  0  0  0  0  0  0  0
   -0.5018    6.1875    2.7723 N   0  0  0  0  0  0  0  0  0  0  0  0
   -0.9345    7.5010    2.3558 C   0  0  0  0  0  0  0  0  0  0  0  0
   -0.5846    5.9512    3.7567 H   0  0  0  0  0  0  0  0  0  0  0  0
   -0.0898    8.2029    2.4185 H   0  0  0  0  0  0  0  0  0  0  0  0
   -1.2971    7.4556    1.3183 H   0  0  0  0  0  0  0  0  0  0  0  0
   -1.7465    7.8451    3.0133 H   0  0  0  0  0  0  0  0  0  0  0  0
  1  3  1  0  0  0  0
  1  7  1  0  0  0  0
  1  2  2  0  0  0  0
 33 34  1  0  0  0  0
 34 42  1  0  0  0  0
 34 35  2  0  0  0  0
  8  9  1  0  0  0  0
  9 17  1  0  0  0  0
  9 10  2  0  0  0  0
 18 19  1  0  0  0  0
 19 32  1  0  0  0  0
 19 20  2  0  0  0  0
 22 23  1  0  0  0  0
 23 24  1  0  0  0  0
 23 25  2  0  0  0  0
 33 36  1  0  0  0  0
  8 11  1  0  0  0  0
 42 43  1  0  0  0  0
 21 22  1  0  0  0  0
 18 21  1  0  0  0  0
 32 33  1  0  0  0  0
  7  8  1  0  0  0  0
 17 18  1  0  0  0  0
  3  4  1  0  0  0  0
  3  5  1  0  0  0  0
  3  6  1  0  0  0  0
 36 39  1  0  0  0  0
 36 40  1  0  0  0  0
 36 41  1  0  0  0  0
 11 14  1  0  0  0  0
 11 15  1  0  0  0  0
 11 16  1  0  0  0  0
 43 45  1  0  0  0  0
 43 46  1  0  0  0  0
 43 47  1  0  0  0  0
 22 30  1  0  0  0  0
 22 31  1  0  0  0  0
 21 28  1  0  0  0  0
 21 29  1  0  0  0  0
 33 38  1  0  0  0  0
  8 13  1  0  0  0  0
 18 27  1  0  0  0  0
 42 44  1  0  0  0  0
  7 12  1  0  0  0  0
 32 37  1  0  0  0  0
 17 26  1  0  0  0  0
M  CHG  1  24  -1
M  END
$$$$

  -OEChem-05262214473D

 47 46  0     1  0  0  0  0  0999 V2000
    0.5093   -4.7265    3.0306 C   0  0  0  0  0  0  0  0  0  0  0  0
    1.2735   -4.4402    3.9448 O   0  0  0  0  0  0  0  0  0  0  0  0
   -0.4465   -5.8608    3.1982 C   0  0  0  0  0  0  0  0  0  0  0  0
   -0.0219   -6.8213    2.8645 H   0  0  0  0  0  0  0  0  0  0  0  0
   -0.7314   -6.0185    4.2509 H   0  0  0  0  0  0  0  0  0  0  0  0
   -1.3983   -5.7596    2.6527 H   0  0  0  0  0  0  0  0  0  0  0  0
    0.4252   -4.0886    1.8040 N   0  0  0  0  0  0  0  0  0  0  0  0
    1.2532   -2.9707    1.4349 C   0  0  2  0  0  0  0  0  0  0  0  0
    0.3395   -1.8293    1.0083 C   0  0  0  0  0  0  0  0  0  0  0  0
   -0.8136   -2.0027    0.6194 O   0  0  0  0  0  0  0  0  0  0  0  0
    2.2176   -3.3411    0.3189 C   0  0  0  0  0  0  0  0  0  0  0  0
   -0.2574   -4.4279    1.1287 H   0  0  0  0  0  0  0  0  0  0  0  0
    1.8087   -2.6785    2.3327 H   0  0  0  0  0  0  0  0  0  0  0  0
    1.6793   -3.6366   -0.5890 H   0  0  0  0  0  0  0  0  0  0  0  0
    2.8662   -2.4980    0.0589 H   0  0  0  0  0  0  0  0  0  0  0  0
    2.8538   -4.1816    0.6166 H   0  0  0  0  0  0  0  0  0  0  0  0
    0.9758   -0.5952    1.0708 N   0  0  0  0  0  0  0  0  0  0  0  0
    0.3258    0.6374    0.7059 C   0  0  2  0  0  0  0  0  0  0  0  0
    0.3315    1.5403    1.9349 C   0  0  0  0  0  0  0  0  0  0  0  0
    0.5345    1.1215    3.0727 O   0  0  0  0  0  0  0  0  0  0  0  0
   -1.1101    0.4070    0.2196 C   0  0  0  0  0  0  0  0  0  0  0  0
   -1.1904   -0.3540   -1.1031 C   0  0  0  0  0  0  0  0  0  0  0  0
   -2.5989   -0.6393   -1.6348 C   0  0  0  0  0  0  0  0  0  0  0  0
   -3.5292   -0.3276   -0.8367 O   0  5  0  0  0  0  0  0  0  0  0  0
   -2.6705   -1.1306   -2.7949 O   0  0  0  0  0  0  0  0  0  0  0  0
    1.9288   -0.5463    1.4242 H   0  0  0  0  0  0  0  0  0  0  0  0
    0.9422    1.0989   -0.0731 H   0  0  0  0  0  0  0  0  0  0  0  0
   -1.6315    1.3672    0.1206 H   0  0  0  0  0  0  0  0  0  0  0  0
   -1.6641   -0.1599    0.9799 H   0  0  0  0  0  0  0  0  0  0  0  0
   -0.6160    0.1736   -1.8739 H   0  0  0  0  0  0  0  0  0  0  0  0
   -0.7088   -1.3311   -0.9697 H   0  0  0  0  0  0  0  0  0  0  0  0
    0.0372    2.8585    1.6151 N   0  0  0  0  0  0  0  0  0  0  0  0
   -0.0338    3.9077    2.6055 C   0  0  2  0  0  0  0  0  0  0  0  0
   -0.7997    5.0760    1.9988 C   0  0  0  0  0  0  0  0  0  0  0  0
   -0.9061    5.2513    0.7868 O   0  0  0  0  0  0  0  0  0  0  0  0
    1.3535    4.3410    3.0530 C   0  0  0  0  0  0  0  0  0  0  0  0
   -0.1021    3.1166    0.6427 H   0  0  0  0  0  0  0  0  0  0  0  0
   -0.5956    3.5036    3.4547 H   0  0  0  0  0  0  0  0  0  0  0  0
    1.9313    4.7487    2.2156 H   0  0  0  0  0  0  0  0  0  0  0  0
    1.2975    5.1162    3.8244 H   0  0  0  0  0  0  0  0  0  0  0  0
    1.9137    3.4931    3.4618 H   0  0  0  0  0  0  0  0  0  0  0  0
   -1.3140    5.9236    2.9700 N   0  0  0  0  0  0  0  0  0  0  0  0
   -2.0696    7.1114    2.6474 C   0  0  0  0  0  0  0  0  0  0  0  0
   -1.1937    5.6903    3.9513 H   0  0  0  0  0  0  0  0  0  0  0  0
   -1.3904    7.9749    2.5921 H   0  0  0  0  0  0  0  0  0  0  0  0
   -2.5695    6.9755    1.6770 H   0  0  0  0  0  0  0  0  0  0  0  0
   -2.8248    7.2884    3.4273 H   0  0  0  0  0  0  0  0  0  0  0  0
  1  3  1  0  0  0  0
  1  7  1  0  0  0  0
  1  2  2  0  0  0  0
 33 34  1  0  0  0  0
 34 42  1  0  0  0  0
 34 35  2  0  0  0  0
  8  9  1  0  0  0  0
  9 17  1  0  0  0  0
  9 10  2  0  0  0  0
 18 19  1  0  0  0  0
 19 32  1  0  0  0  0
 19 20  2  0  0  0  0
 22 23  1  0  0  0  0
 23 24  1  0  0  0  0
 23 25  2  0  0  0  0
 33 36  1  0  0  0  0
  8 11  1  0  0  0  0
 42 43  1  0  0  0  0
 21 22  1  0  0  0  0
 18 21  1  0  0  0  0
 32 33  1  0  0  0  0
  7  8  1  0  0  0  0
 17 18  1  0  0  0  0
  3  4  1  0  0  0  0
  3  5  1  0  0  0  0
  3  6  1  0  0  0  0
 36 39  1  0  0  0  0
 36 40  1  0  0  0  0
 36 41  1  0  0  0  0
 11 14  1  0  0  0  0
 11 15  1  0  0  0  0
 11 16  1  0  0  0  0
 43 45  1  0  0  0  0
 43 46  1  0  0  0  0
 43 47  1  0  0  0  0
 22 30  1  0  0  0  0
 22 31  1  0  0  0  0
 21 28  1  0  0  0  0
 21 29  1  0  0  0  0
 33 38  1  0  0  0  0
  8 13  1  0  0  0  0
 18 27  1  0  0  0  0
 42 44  1  0  0  0  0
  7 12  1  0  0  0  0
 32 37  1  0  0  0  0
 17 26  1  0  0  0  0
M  CHG  1  24  -1
M  END
$$$$

  -OEChem-05262214473D

 47 46  0     1  0  0  0  0  0999 V2000
    0.5093   -4.7265    3.0306 C   0  0  0  0  0  0  0  0  0  0  0  0
    1.2735   -4.4402    3.9448 O   0  0  0  0  0  0  0  0  0  0  0  0
   -0.4465   -5.8608    3.1982 C   0  0  0  0  0  0  0  0  0  0  0  0
   -0.0219   -6.8213    2.8645 H   0  0  0  0  0  0  0  0  0  0  0  0
   -0.7314   -6.0185    4.2509 H   0  0  0  0  0  0  0  0  0  0  0  0
   -1.3983   -5.7596    2.6527 H   0  0  0  0  0  0  0  0  0  0  0  0
    0.4252   -4.0886    1.8040 N   0  0  0  0  0  0  0  0  0  0  0  0
    1.2532   -2.9707    1.4349 C   0  0  2  0  0  0  0  0  0  0  0  0
    0.3395   -1.8293    1.0083 C   0  0  0  0  0  0  0  0  0  0  0  0
   -0.8136   -2.0027    0.6194 O   0  0  0  0  0  0  0  0  0  0  0  0
    2.2176   -3.3411    0.3189 C   0  0  0  0  0  0  0  0  0  0  0  0
   -0.2574   -4.4279    1.1287 H   0  0  0  0  0  0  0  0  0  0  0  0
    1.8087   -2.6785    2.3327 H   0  0  0  0  0  0  0  0  0  0  0  0
    1.6793   -3.6366   -0.5890 H   0  0  0  0  0  0  0  0  0  0  0  0
    2.8662   -2.4980    0.0589 H   0  0  0  0  0  0  0  0  0  0  0  0
    2.8538   -4.1816    0.6166 H   0  0  0  0  0  0  0  0  0  0  0  0
    0.9758   -0.5952    1.0708 N   0  0  0  0  0  0  0  0  0  0  0  0
    0.3258    0.6374    0.7059 C   0  0  2  0  0  0  0  0  0  0  0  0
    0.6557    1.6661    1.7823 C   0  0  0  0  0  0  0  0  0  0  0  0
    1.3275    1.4023    2.7775 O   0  0  0  0  0  0  0  0  0  0  0  0
   -1.1928    0.4689    0.5761 C   0  0  0  0  0  0  0  0  0  0  0  0
   -1.6089   -0.4235   -0.5924 C   0  0  0  0  0  0  0  0  0  0  0  0
   -3.1139   -0.6535   -0.7653 C   0  0  0  0  0  0  0  0  0  0  0  0
   -3.8228   -0.1841    0.1711 O   0  5  0  0  0  0  0  0  0  0  0  0
   -3.4708   -1.2616   -1.8118 O   0  0  0  0  0  0  0  0  0  0  0  0
    1.9288   -0.5463    1.4242 H   0  0  0  0  0  0  0  0  0  0  0  0
    0.7741    0.9610   -0.2397 H   0  0  0  0  0  0  0  0  0  0  0  0
   -1.6720    1.4506    0.4744 H   0  0  0  0  0  0  0  0  0  0  0  0
   -1.5901    0.0340    1.5031 H   0  0  0  0  0  0  0  0  0  0  0  0
   -1.1962   -0.0303   -1.5291 H   0  0  0  0  0  0  0  0  0  0  0  0
   -1.1616   -1.4151   -0.4468 H   0  0  0  0  0  0  0  0  0  0  0  0
    0.0722    2.8983    1.5226 N   0  0  0  0  0  0  0  0  0  0  0  0
    0.2212    4.0362    2.4000 C   0  0  2  0  0  0  0  0  0  0  0  0
   -0.8791    5.0348    2.0660 C   0  0  0  0  0  0  0  0  0  0  0  0
   -1.4541    5.0611    0.9798 O   0  0  0  0  0  0  0  0  0  0  0  0
    1.5949    4.6718    2.2534 C   0  0  0  0  0  0  0  0  0  0  0  0
   -0.4560    3.0292    0.6649 H   0  0  0  0  0  0  0  0  0  0  0  0
    0.0826    3.6676    3.4222 H   0  0  0  0  0  0  0  0  0  0  0  0
    1.7520    5.0471    1.2355 H   0  0  0  0  0  0  0  0  0  0  0  0
    1.7165    5.5165    2.9395 H   0  0  0  0  0  0  0  0  0  0  0  0
    2.3857    3.9440    2.4650 H   0  0  0  0  0  0  0  0  0  0  0  0
   -1.1135    5.9210    3.1081 N   0  0  0  0  0  0  0  0  0  0  0  0
   -2.1015    6.9717    3.0307 C   0  0  0  0  0  0  0  0  0  0  0  0
   -0.6032    5.8135    3.9797 H   0  0  0  0  0  0  0  0  0  0  0  0
   -1.6274    7.8955    2.6674 H   0  0  0  0  0  0  0  0  0  0  0  0
   -2.9010    6.6727    2.3369 H   0  0  0  0  0  0  0  0  0  0  0  0
   -2.5289    7.1472    4.0289 H   0  0  0  0  0  0  0  0  0  0  0  0
  1  3  1  0  0  0  0
  1  7  1  0  0  0  0
  1  2  2  0  0  0  0
 33 34  1  0  0  0  0
 34 42  1  0  0  0  0
 34 35  2  0  0  0  0
  8  9  1  0  0  0  0
  9 17  1  0  0  0  0
  9 10  2  0  0  0  0
 18 19  1  0  0  0  0
 19 32  1  0  0  0  0
 19 20  2  0  0  0  0
 22 23  1  0  0  0  0
 23 24  1  0  0  0  0
 23 25  2  0  0  0  0
 33 36  1  0  0  0  0
  8 11  1  0  0  0  0
 42 43  1  0  0  0  0
 21 22  1  0  0  0  0
 18 21  1  0  0  0  0
 32 33  1  0  0  0  0
  7  8  1  0  0  0  0
 17 18  1  0  0  0  0
  3  4  1  0  0  0  0
  3  5  1  0  0  0  0
  3  6  1  0  0  0  0
 36 39  1  0  0  0  0
 36 40  1  0  0  0  0
 36 41  1  0  0  0  0
 11 14  1  0  0  0  0
 11 15  1  0  0  0  0
 11 16  1  0  0  0  0
 43 45  1  0  0  0  0
 43 46  1  0  0  0  0
 43 47  1  0  0  0  0
 22 30  1  0  0  0  0
 22 31  1  0  0  0  0
 21 28  1  0  0  0  0
 21 29  1  0  0  0  0
 33 38  1  0  0  0  0
  8 13  1  0  0  0  0
 18 27  1  0  0  0  0
 42 44  1  0  0  0  0
  7 12  1  0  0  0  0
 32 37  1  0  0  0  0
 17 26  1  0  0  0  0
M  CHG  1  24  -1
M  END
$$$$

  -OEChem-05262214473D

 47 46  0     1  0  0  0  0  0999 V2000
    0.5093   -4.7265    3.0306 C   0  0  0  0  0  0  0  0  0  0  0  0
    1.2735   -4.4402    3.9448 O   0  0  0  0  0  0  0  0  0  0  0  0
   -0.4465   -5.8608    3.1982 C   0  0  0  0  0  0  0  0  0  0  0  0
   -0.0219   -6.8213    2.8645 H   0  0  0  0  0  0  0  0  0  0  0  0
   -0.7314   -6.0185    4.2509 H   0  0  0  0  0  0  0  0  0  0  0  0
   -1.3983   -5.7596    2.6527 H   0  0  0  0  0  0  0  0  0  0  0  0
    0.4252   -4.0886    1.8040 N   0  0  0  0  0  0  0  0  0  0  0  0
    1.2532   -2.9707    1.4349 C   0  0  2  0  0  0  0  0  0  0  0  0
    0.3395   -1.8293    1.0083 C   0  0  0  0  0  0  0  0  0  0  0  0
   -0.8136   -2.0027    0.6194 O   0  0  0  0  0  0  0  0  0  0  0  0
    2.2176   -3.3411    0.3189 C   0  0  0  0  0  0  0  0  0  0  0  0
   -0.2574   -4.4279    1.1287 H   0  0  0  0  0  0  0  0  0  0  0  0
    1.8087   -2.6785    2.3327 H   0  0  0  0  0  0  0  0  0  0  0  0
    1.6793   -3.6366   -0.5890 H   0  0  0  0  0  0  0  0  0  0  0  0
    2.8662   -2.4980    0.0589 H   0  0  0  0  0  0  0  0  0  0  0  0
    2.8538   -4.1816    0.6166 H   0  0  0  0  0  0  0  0  0  0  0  0
    0.9758   -0.5952    1.0708 N   0  0  0  0  0  0  0  0  0  0  0  0
    0.3258    0.6374    0.7059 C   0  0  2  0  0  0  0  0  0  0  0  0
    0.6557    1.6661    1.7823 C   0  0  0  0  0  0  0  0  0  0  0  0
    1.5315    1.4937    2.6276 O   0  0  0  0  0  0  0  0  0  0  0  0
   -1.1928    0.4689    0.5761 C   0  0  0  0  0  0  0  0  0  0  0  0
   -1.6089   -0.4235   -0.5924 C   0  0  0  0  0  0  0  0  0  0  0  0
   -3.1139   -0.6535   -0.7653 C   0  0  0  0  0  0  0  0  0  0  0  0
   -3.8228   -0.1841    0.1711 O   0  5  0  0  0  0  0  0  0  0  0  0
   -3.4708   -1.2616   -1.8118 O   0  0  0  0  0  0  0  0  0  0  0  0
    1.9288   -0.5463    1.4242 H   0  0  0  0  0  0  0  0  0  0  0  0
    0.7741    0.9610   -0.2397 H   0  0  0  0  0  0  0  0  0  0  0  0
   -1.6720    1.4506    0.4744 H   0  0  0  0  0  0  0  0  0  0  0  0
   -1.5901    0.0340    1.5031 H   0  0  0  0  0  0  0  0  0  0  0  0
   -1.1962   -0.0303   -1.5291 H   0  0  0  0  0  0  0  0  0  0  0  0
   -1.1616   -1.4151   -0.4468 H   0  0  0  0  0  0  0  0  0  0  0  0
   -0.1746    2.7763    1.7148 N   0  0  0  0  0  0  0  0  0  0  0  0
   -0.0749    3.8861    2.6341 C   0  0  2  0  0  0  0  0  0  0  0  0
   -1.3769    4.6730    2.5644 C   0  0  0  0  0  0  0  0  0  0  0  0
   -2.1332    4.6340    1.5961 O   0  0  0  0  0  0  0  0  0  0  0  0
    1.1150    4.7735    2.3033 C   0  0  0  0  0  0  0  0  0  0  0  0
   -0.8630    2.8398    0.9708 H   0  0  0  0  0  0  0  0  0  0  0  0
    0.0404    3.4577    3.6358 H   0  0  0  0  0  0  0  0  0  0  0  0
    1.0173    5.2118    1.3033 H   0  0  0  0  0  0  0  0  0  0  0  0
    1.2059    5.5981    3.0180 H   0  0  0  0  0  0  0  0  0  0  0  0
    2.0474    4.1992    2.3248 H   0  0  0  0  0  0  0  0  0  0  0  0
   -1.5738    5.4573    3.6923 N   0  0  0  0  0  0  0  0  0  0  0  0
   -2.7303    6.3062    3.8595 C   0  0  0  0  0  0  0  0  0  0  0  0
   -0.9043    5.4129    4.4549 H   0  0  0  0  0  0  0  0  0  0  0  0
   -2.5011    7.3162    3.4889 H   0  0  0  0  0  0  0  0  0  0  0  0
   -3.5755    5.8903    3.2914 H   0  0  0  0  0  0  0  0  0  0  0  0
   -2.9956    6.3584    4.9258 H   0  0  0  0  0  0  0  0  0  0  0  0
  1  3  1  0  0  0  0
  1  7  1  0  0  0  0
  1  2  2  0  0  0  0
 33 34  1  0  0  0  0
 34 42  1  0  0  0  0
 34 35  2  0  0  0  0
  8  9  1  0  0  0  0
  9 17  1  0  0  0  0
  9 10  2  0  0  0  0
 18 19  1  0  0  0  0
 19 32  1  0  0  0  0
 19 20  2  0  0  0  0
 22 23  1  0  0  0  0
 23 24  1  0  0  0  0
 23 25  2  0  0  0  0
 33 36  1  0  0  0  0
  8 11  1  0  0  0  0
 42 43  1  0  0  0  0
 21 22  1  0  0  0  0
 18 21  1  0  0  0  0
 32 33  1  0  0  0  0
  7  8  1  0  0  0  0
 17 18  1  0  0  0  0
  3  4  1  0  0  0  0
  3  5  1  0  0  0  0
  3  6  1  0  0  0  0
 36 39  1  0  0  0  0
 36 40  1  0  0  0  0
 36 41  1  0  0  0  0
 11 14  1  0  0  0  0
 11 15  1  0  0  0  0
 11 16  1  0  0  0  0
 43 45  1  0  0  0  0
 43 46  1  0  0  0  0
 43 47  1  0  0  0  0
 22 30  1  0  0  0  0
 22 31  1  0  0  0  0
 21 28  1  0  0  0  0
 21 29  1  0  0  0  0
 33 38  1  0  0  0  0
  8 13  1  0  0  0  0
 18 27  1  0  0  0  0
 42 44  1  0  0  0  0
  7 12  1  0  0  0  0
 32 37  1  0  0  0  0
 17 26  1  0  0  0  0
M  CHG  1  24  -1
M  END
$$$$

  -OEChem-05262214473D

 47 46  0     1  0  0  0  0  0999 V2000
    0.5093   -4.7265    3.0306 C   0  0  0  0  0  0  0  0  0  0  0  0
    1.2735   -4.4402    3.9448 O   0  0  0  0  0  0  0  0  0  0  0  0
   -0.4465   -5.8608    3.1982 C   0  0  0  0  0  0  0  0  0  0  0  0
   -0.0219   -6.8213    2.8645 H   0  0  0  0  0  0  0  0  0  0  0  0
   -0.7314   -6.0185    4.2509 H   0  0  0  0  0  0  0  0  0  0  0  0
   -1.3983   -5.7596    2.6527 H   0  0  0  0  0  0  0  0  0  0  0  0
    0.4252   -4.0886    1.8040 N   0  0  0  0  0  0  0  0  0  0  0  0
    1.2532   -2.9707    1.4349 C   0  0  2  0  0  0  0  0  0  0  0  0
    0.3395   -1.8293    1.0083 C   0  0  0  0  0  0  0  0  0  0  0  0
   -0.8136   -2.0027    0.6194 O   0  0  0  0  0  0  0  0  0  0  0  0
    2.2176   -3.3411    0.3189 C   0  0  0  0  0  0  0  0  0  0  0  0
   -0.2574   -4.4279    1.1287 H   0  0  0  0  0  0  0  0  0  0  0  0
    1.8087   -2.6785    2.3327 H   0  0  0  0  0  0  0  0  0  0  0  0
    1.6793   -3.6366   -0.5890 H   0  0  0  0  0  0  0  0  0  0  0  0
    2.8662   -2.4980    0.0589 H   0  0  0  0  0  0  0  0  0  0  0  0
    2.8538   -4.1816    0.6166 H   0  0  0  0  0  0  0  0  0  0  0  0
    0.9758   -0.5952    1.0708 N   0  0  0  0  0  0  0  0  0  0  0  0
    0.3258    0.6374    0.7059 C   0  0  2  0  0  0  0  0  0  0  0  0
    0.6557    1.6661    1.7823 C   0  0  0  0  0  0  0  0  0  0  0  0
    1.6856    1.6276    2.4523 O   0  0  0  0  0  0  0  0  0  0  0  0
   -1.1928    0.4689    0.5761 C   0  0  0  0  0  0  0  0  0  0  0  0
   -1.6089   -0.4235   -0.5924 C   0  0  0  0  0  0  0  0  0  0  0  0
   -3.1139   -0.6535   -0.7653 C   0  0  0  0  0  0  0  0  0  0  0  0
   -3.8228   -0.1841    0.1711 O   0  5  0  0  0  0  0  0  0  0  0  0
   -3.4708   -1.2616   -1.8118 O   0  0  0  0  0  0  0  0  0  0  0  0
    1.9288   -0.5463    1.4242 H   0  0  0  0  0  0  0  0  0  0  0  0
    0.7741    0.9610   -0.2397 H   0  0  0  0  0  0  0  0  0  0  0  0
   -1.6720    1.4506    0.4744 H   0  0  0  0  0  0  0  0  0  0  0  0
   -1.5901    0.0340    1.5031 H   0  0  0  0  0  0  0  0  0  0  0  0
   -1.1962   -0.0303   -1.5291 H   0  0  0  0  0  0  0  0  0  0  0  0
   -1.1616   -1.4151   -0.4468 H   0  0  0  0  0  0  0  0  0  0  0  0
   -0.3570    2.6026    1.9368 N   0  0  0  0  0  0  0  0  0  0  0  0
   -0.2925    3.6739    2.9036 C   0  0  2  0  0  0  0  0  0  0  0  0
   -1.7047    4.2046    3.1124 C   0  0  0  0  0  0  0  0  0  0  0  0
   -2.6035    4.0630    2.2860 O   0  0  0  0  0  0  0  0  0  0  0  0
    0.6415    4.7813    2.4410 C   0  0  0  0  0  0  0  0  0  0  0  0
   -1.1682    2.5652    1.3266 H   0  0  0  0  0  0  0  0  0  0  0  0
    0.0752    3.2353    3.8377 H   0  0  0  0  0  0  0  0  0  0  0  0
    0.2893    5.2328    1.5063 H   0  0  0  0  0  0  0  0  0  0  0  0
    0.7114    5.5791    3.1877 H   0  0  0  0  0  0  0  0  0  0  0  0
    1.6496    4.3917    2.2627 H   0  0  0  0  0  0  0  0  0  0  0  0
   -1.8317    4.8926    4.3111 N   0  0  0  0  0  0  0  0  0  0  0  0
   -3.0715    5.5020    4.7326 C   0  0  0  0  0  0  0  0  0  0  0  0
   -1.0390    4.9443    4.9440 H   0  0  0  0  0  0  0  0  0  0  0  0
   -3.0958    6.5510    4.4024 H   0  0  0  0  0  0  0  0  0  0  0  0
   -3.9174    4.9578    4.2873 H   0  0  0  0  0  0  0  0  0  0  0  0
   -3.1457    5.4611    5.8293 H   0  0  0  0  0  0  0  0  0  0  0  0
  1  3  1  0  0  0  0
  1  7  1  0  0  0  0
  1  2  2  0  0  0  0
 33 34  1  0  0  0  0
 34 42  1  0  0  0  0
 34 35  2  0  0  0  0
  8  9  1  0  0  0  0
  9 17  1  0  0  0  0
  9 10  2  0  0  0  0
 18 19  1  0  0  0  0
 19 32  1  0  0  0  0
 19 20  2  0  0  0  0
 22 23  1  0  0  0  0
 23 24  1  0  0  0  0
 23 25  2  0  0  0  0
 33 36  1  0  0  0  0
  8 11  1  0  0  0  0
 42 43  1  0  0  0  0
 21 22  1  0  0  0  0
 18 21  1  0  0  0  0
 32 33  1  0  0  0  0
  7  8  1  0  0  0  0
 17 18  1  0  0  0  0
  3  4  1  0  0  0  0
  3  5  1  0  0  0  0
  3  6  1  0  0  0  0
 36 39  1  0  0  0  0
 36 40  1  0  0  0  0
 36 41  1  0  0  0  0
 11 14  1  0  0  0  0
 11 15  1  0  0  0  0
 11 16  1  0  0  0  0
 43 45  1  0  0  0  0
 43 46  1  0  0  0  0
 43 47  1  0  0  0  0
 22 30  1  0  0  0  0
 22 31  1  0  0  0  0
 21 28  1  0  0  0  0
 21 29  1  0  0  0  0
 33 38  1  0  0  0  0
  8 13  1  0  0  0  0
 18 27  1  0  0  0  0
 42 44  1  0  0  0  0
  7 12  1  0  0  0  0
 32 37  1  0  0  0  0
 17 26  1  0  0  0  0
M  CHG  1  24  -1
M  END
$$$$

  -OEChem-05262214473D

 47 46  0     1  0  0  0  0  0999 V2000
    0.5093   -4.7265    3.0306 C   0  0  0  0  0  0  0  0  0  0  0  0
    1.2735   -4.4402    3.9448 O   0  0  0  0  0  0  0  0  0  0  0  0
   -0.4465   -5.8608    3.1982 C   0  0  0  0  0  0  0  0  0  0  0  0
   -0.0219   -6.8213    2.8645 H   0  0  0  0  0  0  0  0  0  0  0  0
   -0.7314   -6.0185    4.2509 H   0  0  0  0  0  0  0  0  0  0  0  0
   -1.3983   -5.7596    2.6527 H   0  0  0  0  0  0  0  0  0  0  0  0
    0.4252   -4.0886    1.8040 N   0  0  0  0  0  0  0  0  0  0  0  0
    1.2532   -2.9707    1.4349 C   0  0  2  0  0  0  0  0  0  0  0  0
    0.3395   -1.8293    1.0083 C   0  0  0  0  0  0  0  0  0  0  0  0
   -0.8136   -2.0027    0.6194 O   0  0  0  0  0  0  0  0  0  0  0  0
    2.2176   -3.3411    0.3189 C   0  0  0  0  0  0  0  0  0  0  0  0
   -0.2574   -4.4279    1.1287 H   0  0  0  0  0  0  0  0  0  0  0  0
    1.8087   -2.6785    2.3327 H   0  0  0  0  0  0  0  0  0  0  0  0
    1.6793   -3.6366   -0.5890 H   0  0  0  0  0  0  0  0  0  0  0  0
    2.8662   -2.4980    0.0589 H   0  0  0  0  0  0  0  0  0  0  0  0
    2.8538   -4.1816    0.6166 H   0  0  0  0  0  0  0  0  0  0  0  0
    0.9758   -0.5952    1.0708 N   0  0  0  0  0  0  0  0  0  0  0  0
    0.3258    0.6374    0.7059 C   0  0  2  0  0  0  0  0  0  0  0  0
    0.6557    1.6661    1.7823 C   0  0  0  0  0  0  0  0  0  0  0  0
    1.7795    1.7949    2.2636 O   0  0  0  0  0  0  0  0  0  0  0  0
   -1.1928    0.4689    0.5761 C   0  0  0  0  0  0  0  0  0  0  0  0
   -1.6089   -0.4235   -0.5924 C   0  0  0  0  0  0  0  0  0  0  0  0
   -3.1139   -0.6535   -0.7653 C   0  0  0  0  0  0  0  0  0  0  0  0
   -3.8228   -0.1841    0.1711 O   0  5  0  0  0  0  0  0  0  0  0  0
   -3.4708   -1.2616   -1.8118 O   0  0  0  0  0  0  0  0  0  0  0  0
    1.9288   -0.5463    1.4242 H   0  0  0  0  0  0  0  0  0  0  0  0
    0.7741    0.9610   -0.2397 H   0  0  0  0  0  0  0  0  0  0  0  0
   -1.6720    1.4506    0.4744 H   0  0  0  0  0  0  0  0  0  0  0  0
   -1.5901    0.0340    1.5031 H   0  0  0  0  0  0  0  0  0  0  0  0
   -1.1962   -0.0303   -1.5291 H   0  0  0  0  0  0  0  0  0  0  0  0
   -1.1616   -1.4151   -0.4468 H   0  0  0  0  0  0  0  0  0  0  0  0
   -0.4628    2.3890    2.1733 N   0  0  0  0  0  0  0  0  0  0  0  0
   -0.4169    3.4141    3.1901 C   0  0  2  0  0  0  0  0  0  0  0  0
   -1.8400    3.6617    3.6728 C   0  0  0  0  0  0  0  0  0  0  0  0
   -2.8331    3.3869    3.0025 O   0  0  0  0  0  0  0  0  0  0  0  0
    0.2068    4.6946    2.6571 C   0  0  0  0  0  0  0  0  0  0  0  0
   -1.3507    2.2244    1.7083 H   0  0  0  0  0  0  0  0  0  0  0  0
    0.1848    3.0155    4.0142 H   0  0  0  0  0  0  0  0  0  0  0  0
   -0.3822    5.1088    1.8307 H   0  0  0  0  0  0  0  0  0  0  0  0
    0.2669    5.4611    3.4368 H   0  0  0  0  0  0  0  0  0  0  0  0
    1.2193    4.5085    2.2830 H   0  0  0  0  0  0  0  0  0  0  0  0
   -1.8697    4.2653    4.9222 N   0  0  0  0  0  0  0  0  0  0  0  0
   -3.1016    4.6140    5.5905 C   0  0  0  0  0  0  0  0  0  0  0  0
   -0.9980    4.4397    5.4137 H   0  0  0  0  0  0  0  0  0  0  0  0
   -3.3710    5.6521    5.3458 H   0  0  0  0  0  0  0  0  0  0  0  0
   -3.9034    3.9389    5.2568 H   0  0  0  0  0  0  0  0  0  0  0  0
   -2.9690    4.5164    6.6781 H   0  0  0  0  0  0  0  0  0  0  0  0
  1  3  1  0  0  0  0
  1  7  1  0  0  0  0
  1  2  2  0  0  0  0
 33 34  1  0  0  0  0
 34 42  1  0  0  0  0
 34 35  2  0  0  0  0
  8  9  1  0  0  0  0
  9 17  1  0  0  0  0
  9 10  2  0  0  0  0
 18 19  1  0  0  0  0
 19 32  1  0  0  0  0
 19 20  2  0  0  0  0
 22 23  1  0  0  0  0
 23 24  1  0  0  0  0
 23 25  2  0  0  0  0
 33 36  1  0  0  0  0
  8 11  1  0  0  0  0
 42 43  1  0  0  0  0
 21 22  1  0  0  0  0
 18 21  1  0  0  0  0
 32 33  1  0  0  0  0
  7  8  1  0  0  0  0
 17 18  1  0  0  0  0
  3  4  1  0  0  0  0
  3  5  1  0  0  0  0
  3  6  1  0  0  0  0
 36 39  1  0  0  0  0
 36 40  1  0  0  0  0
 36 41  1  0  0  0  0
 11 14  1  0  0  0  0
 11 15  1  0  0  0  0
 11 16  1  0  0  0  0
 43 45  1  0  0  0  0
 43 46  1  0  0  0  0
 43 47  1  0  0  0  0
 22 30  1  0  0  0  0
 22 31  1  0  0  0  0
 21 28  1  0  0  0  0
 21 29  1  0  0  0  0
 33 38  1  0  0  0  0
  8 13  1  0  0  0  0
 18 27  1  0  0  0  0
 42 44  1  0  0  0  0
  7 12  1  0  0  0  0
 32 37  1  0  0  0  0
 17 26  1  0  0  0  0
M  CHG  1  24  -1
M  END
$$$$

  -OEChem-05262214473D

 47 46  0     1  0  0  0  0  0999 V2000
    0.5093   -4.7265    3.0306 C   0  0  0  0  0  0  0  0  0  0  0  0
    1.2735   -4.4402    3.9448 O   0  0  0  0  0  0  0  0  0  0  0  0
   -0.4465   -5.8608    3.1982 C   0  0  0  0  0  0  0  0  0  0  0  0
   -0.0219   -6.8213    2.8645 H   0  0  0  0  0  0  0  0  0  0  0  0
   -0.7314   -6.0185    4.2509 H   0  0  0  0  0  0  0  0  0  0  0  0
   -1.3983   -5.7596    2.6527 H   0  0  0  0  0  0  0  0  0  0  0  0
    0.4252   -4.0886    1.8040 N   0  0  0  0  0  0  0  0  0  0  0  0
    1.2532   -2.9707    1.4349 C   0  0  2  0  0  0  0  0  0  0  0  0
    0.3395   -1.8293    1.0083 C   0  0  0  0  0  0  0  0  0  0  0  0
   -0.8136   -2.0027    0.6194 O   0  0  0  0  0  0  0  0  0  0  0  0
    2.2176   -3.3411    0.3189 C   0  0  0  0  0  0  0  0  0  0  0  0
   -0.2574   -4.4279    1.1287 H   0  0  0  0  0  0  0  0  0  0  0  0
    1.8087   -2.6785    2.3327 H   0  0  0  0  0  0  0  0  0  0  0  0
    1.6793   -3.6366   -0.5890 H   0  0  0  0  0  0  0  0  0  0  0  0
    2.8662   -2.4980    0.0589 H   0  0  0  0  0  0  0  0  0  0  0  0
    2.8538   -4.1816    0.6166 H   0  0  0  0  0  0  0  0  0  0  0  0
    0.9758   -0.5952    1.0708 N   0  0  0  0  0  0  0  0  0  0  0  0
    0.3258    0.6374    0.7059 C   0  0  2  0  0  0  0  0  0  0  0  0
    0.6557    1.6661    1.7823 C   0  0  0  0  0  0  0  0  0  0  0  0
    1.8066    1.9843    2.0744 O   0  0  0  0  0  0  0  0  0  0  0  0
   -1.1928    0.4689    0.5761 C   0  0  0  0  0  0  0  0  0  0  0  0
   -1.6089   -0.4235   -0.5924 C   0  0  0  0  0  0  0  0  0  0  0  0
   -3.1139   -0.6535   -0.7653 C   0  0  0  0  0  0  0  0  0  0  0  0
   -3.8228   -0.1841    0.1711 O   0  5  0  0  0  0  0  0  0  0  0  0
   -3.4708   -1.2616   -1.8118 O   0  0  0  0  0  0  0  0  0  0  0  0
    1.9288   -0.5463    1.4242 H   0  0  0  0  0  0  0  0  0  0  0  0
    0.7741    0.9610   -0.2397 H   0  0  0  0  0  0  0  0  0  0  0  0
   -1.6720    1.4506    0.4744 H   0  0  0  0  0  0  0  0  0  0  0  0
   -1.5901    0.0340    1.5031 H   0  0  0  0  0  0  0  0  0  0  0  0
   -1.1962   -0.0303   -1.5291 H   0  0  0  0  0  0  0  0  0  0  0  0
   -1.1616   -1.4151   -0.4468 H   0  0  0  0  0  0  0  0  0  0  0  0
   -0.4846    2.1501    2.4083 N   0  0  0  0  0  0  0  0  0  0  0  0
   -0.4396    3.1244    3.4739 C   0  0  2  0  0  0  0  0  0  0  0  0
   -1.7736    3.0811    4.2073 C   0  0  0  0  0  0  0  0  0  0  0  0
   -2.8062    2.6517    3.6968 O   0  0  0  0  0  0  0  0  0  0  0  0
   -0.1595    4.5193    2.9369 C   0  0  0  0  0  0  0  0  0  0  0  0
   -1.3980    1.8405    2.0897 H   0  0  0  0  0  0  0  0  0  0  0  0
    0.3615    2.8133    4.1532 H   0  0  0  0  0  0  0  0  0  0  0  0
   -0.9516    4.8482    2.2543 H   0  0  0  0  0  0  0  0  0  0  0  0
   -0.0974    5.2518    3.7484 H   0  0  0  0  0  0  0  0  0  0  0  0
    0.7859    4.5416    2.3842 H   0  0  0  0  0  0  0  0  0  0  0  0
   -1.6850    3.6183    5.4839 N   0  0  0  0  0  0  0  0  0  0  0  0
   -2.8188    3.7028    6.3747 C   0  0  0  0  0  0  0  0  0  0  0  0
   -0.7843    3.9334    5.8320 H   0  0  0  0  0  0  0  0  0  0  0  0
   -3.3079    4.6808    6.2548 H   0  0  0  0  0  0  0  0  0  0  0  0
   -3.5346    2.9030    6.1338 H   0  0  0  0  0  0  0  0  0  0  0  0
   -2.4776    3.5886    7.4142 H   0  0  0  0  0  0  0  0  0  0  0  0
  1  3  1  0  0  0  0
  1  7  1  0  0  0  0
  1  2  2  0  0  0  0
 33 34  1  0  0  0  0
 34 42  1  0  0  0  0
 34 35  2  0  0  0  0
  8  9  1  0  0  0  0
  9 17  1  0  0  0  0
  9 10  2  0  0  0  0
 18 19  1  0  0  0  0
 19 32  1  0  0  0  0
 19 20  2  0  0  0  0
 22 23  1  0  0  0  0
 23 24  1  0  0  0  0
 23 25  2  0  0  0  0
 33 36  1  0  0  0  0
  8 11  1  0  0  0  0
 42 43  1  0  0  0  0
 21 22  1  0  0  0  0
 18 21  1  0  0  0  0
 32 33  1  0  0  0  0
  7  8  1  0  0  0  0
 17 18  1  0  0  0  0
  3  4  1  0  0  0  0
  3  5  1  0  0  0  0
  3  6  1  0  0  0  0
 36 39  1  0  0  0  0
 36 40  1  0  0  0  0
 36 41  1  0  0  0  0
 11 14  1  0  0  0  0
 11 15  1  0  0  0  0
 11 16  1  0  0  0  0
 43 45  1  0  0  0  0
 43 46  1  0  0  0  0
 43 47  1  0  0  0  0
 22 30  1  0  0  0  0
 22 31  1  0  0  0  0
 21 28  1  0  0  0  0
 21 29  1  0  0  0  0
 33 38  1  0  0  0  0
  8 13  1  0  0  0  0
 18 27  1  0  0  0  0
 42 44  1  0  0  0  0
  7 12  1  0  0  0  0
 32 37  1  0  0  0  0
 17 26  1  0  0  0  0
M  CHG  1  24  -1
M  END
$$$$

  -OEChem-05262214473D

 47 46  0     1  0  0  0  0  0999 V2000
    0.5093   -4.7265    3.0306 C   0  0  0  0  0  0  0  0  0  0  0  0
    1.2735   -4.4402    3.9448 O   0  0  0  0  0  0  0  0  0  0  0  0
   -0.4465   -5.8608    3.1982 C   0  0  0  0  0  0  0  0  0  0  0  0
   -0.0219   -6.8213    2.8645 H   0  0  0  0  0  0  0  0  0  0  0  0
   -0.7314   -6.0185    4.2509 H   0  0  0  0  0  0  0  0  0  0  0  0
   -1.3983   -5.7596    2.6527 H   0  0  0  0  0  0  0  0  0  0  0  0
    0.4252   -4.0886    1.8040 N   0  0  0  0  0  0  0  0  0  0  0  0
    1.2532   -2.9707    1.4349 C   0  0  2  0  0  0  0  0  0  0  0  0
    0.3395   -1.8293    1.0083 C   0  0  0  0  0  0  0  0  0  0  0  0
   -0.8136   -2.0027    0.6194 O   0  0  0  0  0  0  0  0  0  0  0  0
    2.2176   -3.3411    0.3189 C   0  0  0  0  0  0  0  0  0  0  0  0
   -0.2574   -4.4279    1.1287 H   0  0  0  0  0  0  0  0  0  0  0  0
    1.8087   -2.6785    2.3327 H   0  0  0  0  0  0  0  0  0  0  0  0
    1.6793   -3.6366   -0.5890 H   0  0  0  0  0  0  0  0  0  0  0  0
    2.8662   -2.4980    0.0589 H   0  0  0  0  0  0  0  0  0  0  0  0
    2.8538   -4.1816    0.6166 H   0  0  0  0  0  0  0  0  0  0  0  0
    0.9758   -0.5952    1.0708 N   0  0  0  0  0  0  0  0  0  0  0  0
    0.3258    0.6374    0.7059 C   0  0  2  0  0  0  0  0  0  0  0  0
    0.6557    1.6661    1.7823 C   0  0  0  0  0  0  0  0  0  0  0  0
    1.7652    2.1827    1.8974 O   0  0  0  0  0  0  0  0  0  0  0  0
   -1.1928    0.4689    0.5761 C   0  0  0  0  0  0  0  0  0  0  0  0
   -1.6089   -0.4235   -0.5924 C   0  0  0  0  0  0  0  0  0  0  0  0
   -3.1139   -0.6535   -0.7653 C   0  0  0  0  0  0  0  0  0  0  0  0
   -3.8228   -0.1841    0.1711 O   0  5  0  0  0  0  0  0  0  0  0  0
   -3.4708   -1.2616   -1.8118 O   0  0  0  0  0  0  0  0  0  0  0  0
    1.9288   -0.5463    1.4242 H   0  0  0  0  0  0  0  0  0  0  0  0
    0.7741    0.9610   -0.2397 H   0  0  0  0  0  0  0  0  0  0  0  0
   -1.6720    1.4506    0.4744 H   0  0  0  0  0  0  0  0  0  0  0  0
   -1.5901    0.0340    1.5031 H   0  0  0  0  0  0  0  0  0  0  0  0
   -1.1962   -0.0303   -1.5291 H   0  0  0  0  0  0  0  0  0  0  0  0
   -1.1616   -1.4151   -0.4468 H   0  0  0  0  0  0  0  0  0  0  0  0
   -0.4210    1.9023    2.6257 N   0  0  0  0  0  0  0  0  0  0  0  0
   -0.3590    2.8245    3.7358 C   0  0  2  0  0  0  0  0  0  0  0  0
   -1.5102    2.5025    4.6795 C   0  0  0  0  0  0  0  0  0  0  0  0
   -2.5247    1.9076    4.3216 O   0  0  0  0  0  0  0  0  0  0  0  0
   -0.4325    4.2674    3.2612 C   0  0  0  0  0  0  0  0  0  0  0  0
   -1.3070    1.4397    2.4449 H   0  0  0  0  0  0  0  0  0  0  0  0
    0.5935    2.6425    4.2453 H   0  0  0  0  0  0  0  0  0  0  0  0
   -1.3800    4.4687    2.7482 H   0  0  0  0  0  0  0  0  0  0  0  0
   -0.3567    4.9657    4.1013 H   0  0  0  0  0  0  0  0  0  0  0  0
    0.3789    4.4887    2.5595 H   0  0  0  0  0  0  0  0  0  0  0  0
   -1.2904    2.9956    5.9581 N   0  0  0  0  0  0  0  0  0  0  0  0
   -2.2422    2.8303    7.0317 C   0  0  0  0  0  0  0  0  0  0  0  0
   -0.4124    3.4601    6.1704 H   0  0  0  0  0  0  0  0  0  0  0  0
   -2.9108    3.7032    7.0674 H   0  0  0  0  0  0  0  0  0  0  0  0
   -2.8360    1.9207    6.8584 H   0  0  0  0  0  0  0  0  0  0  0  0
   -1.7049    2.7410    7.9874 H   0  0  0  0  0  0  0  0  0  0  0  0
  1  3  1  0  0  0  0
  1  7  1  0  0  0  0
  1  2  2  0  0  0  0
 33 34  1  0  0  0  0
 34 42  1  0  0  0  0
 34 35  2  0  0  0  0
  8  9  1  0  0  0  0
  9 17  1  0  0  0  0
  9 10  2  0  0  0  0
 18 19  1  0  0  0  0
 19 32  1  0  0  0  0
 19 20  2  0  0  0  0
 22 23  1  0  0  0  0
 23 24  1  0  0  0  0
 23 25  2  0  0  0  0
 33 36  1  0  0  0  0
  8 11  1  0  0  0  0
 42 43  1  0  0  0  0
 21 22  1  0  0  0  0
 18 21  1  0  0  0  0
 32 33  1  0  0  0  0
  7  8  1  0  0  0  0
 17 18  1  0  0  0  0
  3  4  1  0  0  0  0
  3  5  1  0  0  0  0
  3  6  1  0  0  0  0
 36 39  1  0  0  0  0
 36 40  1  0  0  0  0
 36 41  1  0  0  0  0
 11 14  1  0  0  0  0
 11 15  1  0  0  0  0
 11 16  1  0  0  0  0
 43 45  1  0  0  0  0
 43 46  1  0  0  0  0
 43 47  1  0  0  0  0
 22 30  1  0  0  0  0
 22 31  1  0  0  0  0
 21 28  1  0  0  0  0
 21 29  1  0  0  0  0
 33 38  1  0  0  0  0
  8 13  1  0  0  0  0
 18 27  1  0  0  0  0
 42 44  1  0  0  0  0
  7 12  1  0  0  0  0
 32 37  1  0  0  0  0
 17 26  1  0  0  0  0
M  CHG  1  24  -1
M  END
$$$$

  -OEChem-05262214473D

 47 46  0     1  0  0  0  0  0999 V2000
    0.5093   -4.7265    3.0306 C   0  0  0  0  0  0  0  0  0  0  0  0
    1.2735   -4.4402    3.9448 O   0  0  0  0  0  0  0  0  0  0  0  0
   -0.4465   -5.8608    3.1982 C   0  0  0  0  0  0  0  0  0  0  0  0
   -0.0219   -6.8213    2.8645 H   0  0  0  0  0  0  0  0  0  0  0  0
   -0.7314   -6.0185    4.2509 H   0  0  0  0  0  0  0  0  0  0  0  0
   -1.3983   -5.7596    2.6527 H   0  0  0  0  0  0  0  0  0  0  0  0
    0.4252   -4.0886    1.8040 N   0  0  0  0  0  0  0  0  0  0  0  0
    1.2532   -2.9707    1.4349 C   0  0  2  0  0  0  0  0  0  0  0  0
    0.3395   -1.8293    1.0083 C   0  0  0  0  0  0  0  0  0  0  0  0
   -0.8136   -2.0027    0.6194 O   0  0  0  0  0  0  0  0  0  0  0  0
    2.2176   -3.3411    0.3189 C   0  0  0  0  0  0  0  0  0  0  0  0
   -0.2574   -4.4279    1.1287 H   0  0  0  0  0  0  0  0  0  0  0  0
    1.8087   -2.6785    2.3327 H   0  0  0  0  0  0  0  0  0  0  0  0
    1.6793   -3.6366   -0.5890 H   0  0  0  0  0  0  0  0  0  0  0  0
    2.8662   -2.4980    0.0589 H   0  0  0  0  0  0  0  0  0  0  0  0
    2.8538   -4.1816    0.6166 H   0  0  0  0  0  0  0  0  0  0  0  0
    0.9758   -0.5952    1.0708 N   0  0  0  0  0  0  0  0  0  0  0  0
    0.3258    0.6374    0.7059 C   0  0  2  0  0  0  0  0  0  0  0  0
    0.6557    1.6661    1.7823 C   0  0  0  0  0  0  0  0  0  0  0  0
    1.6581    2.3768    1.7448 O   0  0  0  0  0  0  0  0  0  0  0  0
   -1.1928    0.4689    0.5761 C   0  0  0  0  0  0  0  0  0  0  0  0
   -1.6089   -0.4235   -0.5924 C   0  0  0  0  0  0  0  0  0  0  0  0
   -3.1139   -0.6535   -0.7653 C   0  0  0  0  0  0  0  0  0  0  0  0
   -3.8228   -0.1841    0.1711 O   0  5  0  0  0  0  0  0  0  0  0  0
   -3.4708   -1.2616   -1.8118 O   0  0  0  0  0  0  0  0  0  0  0  0
    1.9288   -0.5463    1.4242 H   0  0  0  0  0  0  0  0  0  0  0  0
    0.7741    0.9610   -0.2397 H   0  0  0  0  0  0  0  0  0  0  0  0
   -1.6720    1.4506    0.4744 H   0  0  0  0  0  0  0  0  0  0  0  0
   -1.5901    0.0340    1.5031 H   0  0  0  0  0  0  0  0  0  0  0  0
   -1.1962   -0.0303   -1.5291 H   0  0  0  0  0  0  0  0  0  0  0  0
   -1.1616   -1.4151   -0.4468 H   0  0  0  0  0  0  0  0  0  0  0  0
   -0.2764    1.6623    2.8107 N   0  0  0  0  0  0  0  0  0  0  0  0
   -0.1807    2.5349    3.9579 C   0  0  2  0  0  0  0  0  0  0  0  0
   -1.0676    1.9654    5.0573 C   0  0  0  0  0  0  0  0  0  0  0  0
   -2.0077    1.2054    4.8344 O   0  0  0  0  0  0  0  0  0  0  0  0
   -0.5936    3.9561    3.6081 C   0  0  0  0  0  0  0  0  0  0  0  0
   -1.0839    1.0492    2.7497 H   0  0  0  0  0  0  0  0  0  0  0  0
    0.8648    2.5147    4.2843 H   0  0  0  0  0  0  0  0  0  0  0  0
   -1.6383    3.9963    3.2789 H   0  0  0  0  0  0  0  0  0  0  0  0
   -0.4932    4.6223    4.4714 H   0  0  0  0  0  0  0  0  0  0  0  0
    0.0260    4.3535    2.7969 H   0  0  0  0  0  0  0  0  0  0  0  0
   -0.7127    2.4397    6.3123 N   0  0  0  0  0  0  0  0  0  0  0  0
   -1.4112    2.0562    7.5169 C   0  0  0  0  0  0  0  0  0  0  0  0
    0.0925    3.0518    6.4059 H   0  0  0  0  0  0  0  0  0  0  0  0
   -2.2067    2.7859    7.7282 H   0  0  0  0  0  0  0  0  0  0  0  0
   -1.8552    1.0589    7.3815 H   0  0  0  0  0  0  0  0  0  0  0  0
   -0.7036    2.0313    8.3588 H   0  0  0  0  0  0  0  0  0  0  0  0
  1  3  1  0  0  0  0
  1  7  1  0  0  0  0
  1  2  2  0  0  0  0
 33 34  1  0  0  0  0
 34 42  1  0  0  0  0
 34 35  2  0  0  0  0
  8  9  1  0  0  0  0
  9 17  1  0  0  0  0
  9 10  2  0  0  0  0
 18 19  1  0  0  0  0
 19 32  1  0  0  0  0
 19 20  2  0  0  0  0
 22 23  1  0  0  0  0
 23 24  1  0  0  0  0
 23 25  2  0  0  0  0
 33 36  1  0  0  0  0
  8 11  1  0  0  0  0
 42 43  1  0  0  0  0
 21 22  1  0  0  0  0
 18 21  1  0  0  0  0
 32 33  1  0  0  0  0
  7  8  1  0  0  0  0
 17 18  1  0  0  0  0
  3  4  1  0  0  0  0
  3  5  1  0  0  0  0
  3  6  1  0  0  0  0
 36 39  1  0  0  0  0
 36 40  1  0  0  0  0
 36 41  1  0  0  0  0
 11 14  1  0  0  0  0
 11 15  1  0  0  0  0
 11 16  1  0  0  0  0
 43 45  1  0  0  0  0
 43 46  1  0  0  0  0
 43 47  1  0  0  0  0
 22 30  1  0  0  0  0
 22 31  1  0  0  0  0
 21 28  1  0  0  0  0
 21 29  1  0  0  0  0
 33 38  1  0  0  0  0
  8 13  1  0  0  0  0
 18 27  1  0  0  0  0
 42 44  1  0  0  0  0
  7 12  1  0  0  0  0
 32 37  1  0  0  0  0
 17 26  1  0  0  0  0
M  CHG  1  24  -1
M  END
$$$$

  -OEChem-05262214473D

 47 46  0     1  0  0  0  0  0999 V2000
    0.5093   -4.7265    3.0306 C   0  0  0  0  0  0  0  0  0  0  0  0
    1.2735   -4.4402    3.9448 O   0  0  0  0  0  0  0  0  0  0  0  0
   -0.4465   -5.8608    3.1982 C   0  0  0  0  0  0  0  0  0  0  0  0
   -0.0219   -6.8213    2.8645 H   0  0  0  0  0  0  0  0  0  0  0  0
   -0.7314   -6.0185    4.2509 H   0  0  0  0  0  0  0  0  0  0  0  0
   -1.3983   -5.7596    2.6527 H   0  0  0  0  0  0  0  0  0  0  0  0
    0.4252   -4.0886    1.8040 N   0  0  0  0  0  0  0  0  0  0  0  0
    1.2532   -2.9707    1.4349 C   0  0  2  0  0  0  0  0  0  0  0  0
    0.3395   -1.8293    1.0083 C   0  0  0  0  0  0  0  0  0  0  0  0
   -0.8136   -2.0027    0.6194 O   0  0  0  0  0  0  0  0  0  0  0  0
    2.2176   -3.3411    0.3189 C   0  0  0  0  0  0  0  0  0  0  0  0
   -0.2574   -4.4279    1.1287 H   0  0  0  0  0  0  0  0  0  0  0  0
    1.8087   -2.6785    2.3327 H   0  0  0  0  0  0  0  0  0  0  0  0
    1.6793   -3.6366   -0.5890 H   0  0  0  0  0  0  0  0  0  0  0  0
    2.8662   -2.4980    0.0589 H   0  0  0  0  0  0  0  0  0  0  0  0
    2.8538   -4.1816    0.6166 H   0  0  0  0  0  0  0  0  0  0  0  0
    0.9758   -0.5952    1.0708 N   0  0  0  0  0  0  0  0  0  0  0  0
    0.3258    0.6374    0.7059 C   0  0  2  0  0  0  0  0  0  0  0  0
    0.6557    1.6661    1.7823 C   0  0  0  0  0  0  0  0  0  0  0  0
    1.4925    2.5532    1.6270 O   0  0  0  0  0  0  0  0  0  0  0  0
   -1.1928    0.4689    0.5761 C   0  0  0  0  0  0  0  0  0  0  0  0
   -1.6089   -0.4235   -0.5924 C   0  0  0  0  0  0  0  0  0  0  0  0
   -3.1139   -0.6535   -0.7653 C   0  0  0  0  0  0  0  0  0  0  0  0
   -3.8228   -0.1841    0.1711 O   0  5  0  0  0  0  0  0  0  0  0  0
   -3.4708   -1.2616   -1.8118 O   0  0  0  0  0  0  0  0  0  0  0  0
    1.9288   -0.5463    1.4242 H   0  0  0  0  0  0  0  0  0  0  0  0
    0.7741    0.9610   -0.2397 H   0  0  0  0  0  0  0  0  0  0  0  0
   -1.6720    1.4506    0.4744 H   0  0  0  0  0  0  0  0  0  0  0  0
   -1.5901    0.0340    1.5031 H   0  0  0  0  0  0  0  0  0  0  0  0
   -1.1962   -0.0303   -1.5291 H   0  0  0  0  0  0  0  0  0  0  0  0
   -1.1616   -1.4151   -0.4468 H   0  0  0  0  0  0  0  0  0  0  0  0
   -0.0606    1.4466    2.9507 N   0  0  0  0  0  0  0  0  0  0  0  0
    0.0832    2.2753    4.1251 C   0  0  2  0  0  0  0  0  0  0  0  0
   -0.4760    1.5062    5.3148 C   0  0  0  0  0  0  0  0  0  0  0  0
   -1.2906    0.5928    5.2001 O   0  0  0  0  0  0  0  0  0  0  0  0
   -0.6317    3.6066    3.9539 C   0  0  0  0  0  0  0  0  0  0  0  0
   -0.7439    0.6958    2.9833 H   0  0  0  0  0  0  0  0  0  0  0  0
    1.1570    2.4387    4.2673 H   0  0  0  0  0  0  0  0  0  0  0  0
   -1.7088    3.4630    3.8102 H   0  0  0  0  0  0  0  0  0  0  0  0
   -0.4978    4.2449    4.8335 H   0  0  0  0  0  0  0  0  0  0  0  0
   -0.2487    4.1450    3.0803 H   0  0  0  0  0  0  0  0  0  0  0  0
    0.0087    1.9884    6.5225 N   0  0  0  0  0  0  0  0  0  0  0  0
   -0.3824    1.4330    7.7971 C   0  0  0  0  0  0  0  0  0  0  0  0
    0.6958    2.7365    6.5223 H   0  0  0  0  0  0  0  0  0  0  0  0
   -1.2437    1.9915    8.1922 H   0  0  0  0  0  0  0  0  0  0  0  0
   -0.6590    0.3763    7.6672 H   0  0  0  0  0  0  0  0  0  0  0  0
    0.4580    1.5079    8.5029 H   0  0  0  0  0  0  0  0  0  0  0  0
  1  3  1  0  0  0  0
  1  7  1  0  0  0  0
  1  2  2  0  0  0  0
 33 34  1  0  0  0  0
 34 42  1  0  0  0  0
 34 35  2  0  0  0  0
  8  9  1  0  0  0  0
  9 17  1  0  0  0  0
  9 10  2  0  0  0  0
 18 19  1  0  0  0  0
 19 32  1  0  0  0  0
 19 20  2  0  0  0  0
 22 23  1  0  0  0  0
 23 24  1  0  0  0  0
 23 25  2  0  0  0  0
 33 36  1  0  0  0  0
  8 11  1  0  0  0  0
 42 43  1  0  0  0  0
 21 22  1  0  0  0  0
 18 21  1  0  0  0  0
 32 33  1  0  0  0  0
  7  8  1  0  0  0  0
 17 18  1  0  0  0  0
  3  4  1  0  0  0  0
  3  5  1  0  0  0  0
  3  6  1  0  0  0  0
 36 39  1  0  0  0  0
 36 40  1  0  0  0  0
 36 41  1  0  0  0  0
 11 14  1  0  0  0  0
 11 15  1  0  0  0  0
 11 16  1  0  0  0  0
 43 45  1  0  0  0  0
 43 46  1  0  0  0  0
 43 47  1  0  0  0  0
 22 30  1  0  0  0  0
 22 31  1  0  0  0  0
 21 28  1  0  0  0  0
 21 29  1  0  0  0  0
 33 38  1  0  0  0  0
  8 13  1  0  0  0  0
 18 27  1  0  0  0  0
 42 44  1  0  0  0  0
  7 12  1  0  0  0  0
 32 37  1  0  0  0  0
 17 26  1  0  0  0  0
M  CHG  1  24  -1
M  END
$$$$

  -OEChem-05262214473D

 47 46  0     1  0  0  0  0  0999 V2000
    0.5093   -4.7265    3.0306 C   0  0  0  0  0  0  0  0  0  0  0  0
    1.2735   -4.4402    3.9448 O   0  0  0  0  0  0  0  0  0  0  0  0
   -0.4465   -5.8608    3.1982 C   0  0  0  0  0  0  0  0  0  0  0  0
   -0.0219   -6.8213    2.8645 H   0  0  0  0  0  0  0  0  0  0  0  0
   -0.7314   -6.0185    4.2509 H   0  0  0  0  0  0  0  0  0  0  0  0
   -1.3983   -5.7596    2.6527 H   0  0  0  0  0  0  0  0  0  0  0  0
    0.4252   -4.0886    1.8040 N   0  0  0  0  0  0  0  0  0  0  0  0
    1.2532   -2.9707    1.4349 C   0  0  2  0  0  0  0  0  0  0  0  0
    0.3395   -1.8293    1.0083 C   0  0  0  0  0  0  0  0  0  0  0  0
   -0.8136   -2.0027    0.6194 O   0  0  0  0  0  0  0  0  0  0  0  0
    2.2176   -3.3411    0.3189 C   0  0  0  0  0  0  0  0  0  0  0  0
   -0.2574   -4.4279    1.1287 H   0  0  0  0  0  0  0  0  0  0  0  0
    1.8087   -2.6785    2.3327 H   0  0  0  0  0  0  0  0  0  0  0  0
    1.6793   -3.6366   -0.5890 H   0  0  0  0  0  0  0  0  0  0  0  0
    2.8662   -2.4980    0.0589 H   0  0  0  0  0  0  0  0  0  0  0  0
    2.8538   -4.1816    0.6166 H   0  0  0  0  0  0  0  0  0  0  0  0
    0.9758   -0.5952    1.0708 N   0  0  0  0  0  0  0  0  0  0  0  0
    0.3258    0.6374    0.7059 C   0  0  2  0  0  0  0  0  0  0  0  0
    0.6557    1.6661    1.7823 C   0  0  0  0  0  0  0  0  0  0  0  0
    1.2797    2.6999    1.5519 O   0  0  0  0  0  0  0  0  0  0  0  0
   -1.1928    0.4689    0.5761 C   0  0  0  0  0  0  0  0  0  0  0  0
   -1.6089   -0.4235   -0.5924 C   0  0  0  0  0  0  0  0  0  0  0  0
   -3.1139   -0.6535   -0.7653 C   0  0  0  0  0  0  0  0  0  0  0  0
   -3.8228   -0.1841    0.1711 O   0  5  0  0  0  0  0  0  0  0  0  0
   -3.4708   -1.2616   -1.8118 O   0  0  0  0  0  0  0  0  0  0  0  0
    1.9288   -0.5463    1.4242 H   0  0  0  0  0  0  0  0  0  0  0  0
    0.7741    0.9610   -0.2397 H   0  0  0  0  0  0  0  0  0  0  0  0
   -1.6720    1.4506    0.4744 H   0  0  0  0  0  0  0  0  0  0  0  0
   -1.5901    0.0340    1.5031 H   0  0  0  0  0  0  0  0  0  0  0  0
   -1.1962   -0.0303   -1.5291 H   0  0  0  0  0  0  0  0  0  0  0  0
   -1.1616   -1.4151   -0.4468 H   0  0  0  0  0  0  0  0  0  0  0  0
    0.2118    1.2698    3.0362 N   0  0  0  0  0  0  0  0  0  0  0  0
    0.4148    2.0634    4.2260 C   0  0  2  0  0  0  0  0  0  0  0  0
    0.2242    1.1563    5.4345 C   0  0  0  0  0  0  0  0  0  0  0  0
   -0.4222    0.1116    5.3938 O   0  0  0  0  0  0  0  0  0  0  0  0
   -0.5443    3.2426    4.2749 C   0  0  0  0  0  0  0  0  0  0  0  0
   -0.3101    0.4034    3.1297 H   0  0  0  0  0  0  0  0  0  0  0  0
    1.4502    2.4196    4.1957 H   0  0  0  0  0  0  0  0  0  0  0  0
   -1.5867    2.9053    4.3058 H   0  0  0  0  0  0  0  0  0  0  0  0
   -0.3700    3.8592    5.1629 H   0  0  0  0  0  0  0  0  0  0  0  0
   -0.4265    3.8777    3.3903 H   0  0  0  0  0  0  0  0  0  0  0  0
    0.8247    1.6725    6.5743 N   0  0  0  0  0  0  0  0  0  0  0  0
    0.7742    1.0033    7.8533 C   0  0  0  0  0  0  0  0  0  0  0  0
    1.3564    2.5357    6.5117 H   0  0  0  0  0  0  0  0  0  0  0  0
   -0.0874    1.3741    8.4279 H   0  0  0  0  0  0  0  0  0  0  0  0
    0.6709   -0.0805    7.6961 H   0  0  0  0  0  0  0  0  0  0  0  0
    1.7008    1.2064    8.4101 H   0  0  0  0  0  0  0  0  0  0  0  0
  1  3  1  0  0  0  0
  1  7  1  0  0  0  0
  1  2  2  0  0  0  0
 33 34  1  0  0  0  0
 34 42  1  0  0  0  0
 34 35  2  0  0  0  0
  8  9  1  0  0  0  0
  9 17  1  0  0  0  0
  9 10  2  0  0  0  0
 18 19  1  0  0  0  0
 19 32  1  0  0  0  0
 19 20  2  0  0  0  0
 22 23  1  0  0  0  0
 23 24  1  0  0  0  0
 23 25  2  0  0  0  0
 33 36  1  0  0  0  0
  8 11  1  0  0  0  0
 42 43  1  0  0  0  0
 21 22  1  0  0  0  0
 18 21  1  0  0  0  0
 32 33  1  0  0  0  0
  7  8  1  0  0  0  0
 17 18  1  0  0  0  0
  3  4  1  0  0  0  0
  3  5  1  0  0  0  0
  3  6  1  0  0  0  0
 36 39  1  0  0  0  0
 36 40  1  0  0  0  0
 36 41  1  0  0  0  0
 11 14  1  0  0  0  0
 11 15  1  0  0  0  0
 11 16  1  0  0  0  0
 43 45  1  0  0  0  0
 43 46  1  0  0  0  0
 43 47  1  0  0  0  0
 22 30  1  0  0  0  0
 22 31  1  0  0  0  0
 21 28  1  0  0  0  0
 21 29  1  0  0  0  0
 33 38  1  0  0  0  0
  8 13  1  0  0  0  0
 18 27  1  0  0  0  0
 42 44  1  0  0  0  0
  7 12  1  0  0  0  0
 32 37  1  0  0  0  0
 17 26  1  0  0  0  0
M  CHG  1  24  -1
M  END
$$$$

  -OEChem-05262214473D

 47 46  0     1  0  0  0  0  0999 V2000
    0.5093   -4.7265    3.0306 C   0  0  0  0  0  0  0  0  0  0  0  0
    1.2735   -4.4402    3.9448 O   0  0  0  0  0  0  0  0  0  0  0  0
   -0.4465   -5.8608    3.1982 C   0  0  0  0  0  0  0  0  0  0  0  0
   -0.0219   -6.8213    2.8645 H   0  0  0  0  0  0  0  0  0  0  0  0
   -0.7314   -6.0185    4.2509 H   0  0  0  0  0  0  0  0  0  0  0  0
   -1.3983   -5.7596    2.6527 H   0  0  0  0  0  0  0  0  0  0  0  0
    0.4252   -4.0886    1.8040 N   0  0  0  0  0  0  0  0  0  0  0  0
    1.2532   -2.9707    1.4349 C   0  0  2  0  0  0  0  0  0  0  0  0
    0.3395   -1.8293    1.0083 C   0  0  0  0  0  0  0  0  0  0  0  0
   -0.8136   -2.0027    0.6194 O   0  0  0  0  0  0  0  0  0  0  0  0
    2.2176   -3.3411    0.3189 C   0  0  0  0  0  0  0  0  0  0  0  0
   -0.2574   -4.4279    1.1287 H   0  0  0  0  0  0  0  0  0  0  0  0
    1.8087   -2.6785    2.3327 H   0  0  0  0  0  0  0  0  0  0  0  0
    1.6793   -3.6366   -0.5890 H   0  0  0  0  0  0  0  0  0  0  0  0
    2.8662   -2.4980    0.0589 H   0  0  0  0  0  0  0  0  0  0  0  0
    2.8538   -4.1816    0.6166 H   0  0  0  0  0  0  0  0  0  0  0  0
    0.9758   -0.5952    1.0708 N   0  0  0  0  0  0  0  0  0  0  0  0
    0.3258    0.6374    0.7059 C   0  0  2  0  0  0  0  0  0  0  0  0
    0.6557    1.6661    1.7823 C   0  0  0  0  0  0  0  0  0  0  0  0
    1.0343    2.8070    1.5248 O   0  0  0  0  0  0  0  0  0  0  0  0
   -1.1928    0.4689    0.5761 C   0  0  0  0  0  0  0  0  0  0  0  0
   -1.6089   -0.4235   -0.5924 C   0  0  0  0  0  0  0  0  0  0  0  0
   -3.1139   -0.6535   -0.7653 C   0  0  0  0  0  0  0  0  0  0  0  0
   -3.8228   -0.1841    0.1711 O   0  5  0  0  0  0  0  0  0  0  0  0
   -3.4708   -1.2616   -1.8118 O   0  0  0  0  0  0  0  0  0  0  0  0
    1.9288   -0.5463    1.4242 H   0  0  0  0  0  0  0  0  0  0  0  0
    0.7741    0.9610   -0.2397 H   0  0  0  0  0  0  0  0  0  0  0  0
   -1.6720    1.4506    0.4744 H   0  0  0  0  0  0  0  0  0  0  0  0
   -1.5901    0.0340    1.5031 H   0  0  0  0  0  0  0  0  0  0  0  0
   -1.1962   -0.0303   -1.5291 H   0  0  0  0  0  0  0  0  0  0  0  0
   -1.1616   -1.4151   -0.4468 H   0  0  0  0  0  0  0  0  0  0  0  0
    0.5220    1.1440    3.0613 N   0  0  0  0  0  0  0  0  0  0  0  0
    0.7914    1.9136    4.2538 C   0  0  2  0  0  0  0  0  0  0  0  0
    0.9855    0.9396    5.4083 C   0  0  0  0  0  0  0  0  0  0  0  0
    0.5384   -0.2055    5.4023 O   0  0  0  0  0  0  0  0  0  0  0  0
   -0.3373    2.8890    4.5494 C   0  0  0  0  0  0  0  0  0  0  0  0
    0.1879    0.1920    3.1791 H   0  0  0  0  0  0  0  0  0  0  0  0
    1.7244    2.4588    4.0743 H   0  0  0  0  0  0  0  0  0  0  0  0
   -1.2804    2.3611    4.7319 H   0  0  0  0  0  0  0  0  0  0  0  0
   -0.1186    3.4915    5.4372 H   0  0  0  0  0  0  0  0  0  0  0  0
   -0.4952    3.5696    3.7058 H   0  0  0  0  0  0  0  0  0  0  0  0
    1.6797    1.5135    6.4642 N   0  0  0  0  0  0  0  0  0  0  0  0
    1.9796    0.7965    7.6815 C   0  0  0  0  0  0  0  0  0  0  0  0
    2.0294    2.4629    6.3750 H   0  0  0  0  0  0  0  0  0  0  0  0
    1.1834    0.9758    8.4190 H   0  0  0  0  0  0  0  0  0  0  0  0
    2.0440   -0.2803    7.4663 H   0  0  0  0  0  0  0  0  0  0  0  0
    2.9402    1.1475    8.0865 H   0  0  0  0  0  0  0  0  0  0  0  0
  1  3  1  0  0  0  0
  1  7  1  0  0  0  0
  1  2  2  0  0  0  0
 33 34  1  0  0  0  0
 34 42  1  0  0  0  0
 34 35  2  0  0  0  0
  8  9  1  0  0  0  0
  9 17  1  0  0  0  0
  9 10  2  0  0  0  0
 18 19  1  0  0  0  0
 19 32  1  0  0  0  0
 19 20  2  0  0  0  0
 22 23  1  0  0  0  0
 23 24  1  0  0  0  0
 23 25  2  0  0  0  0
 33 36  1  0  0  0  0
  8 11  1  0  0  0  0
 42 43  1  0  0  0  0
 21 22  1  0  0  0  0
 18 21  1  0  0  0  0
 32 33  1  0  0  0  0
  7  8  1  0  0  0  0
 17 18  1  0  0  0  0
  3  4  1  0  0  0  0
  3  5  1  0  0  0  0
  3  6  1  0  0  0  0
 36 39  1  0  0  0  0
 36 40  1  0  0  0  0
 36 41  1  0  0  0  0
 11 14  1  0  0  0  0
 11 15  1  0  0  0  0
 11 16  1  0  0  0  0
 43 45  1  0  0  0  0
 43 46  1  0  0  0  0
 43 47  1  0  0  0  0
 22 30  1  0  0  0  0
 22 31  1  0  0  0  0
 21 28  1  0  0  0  0
 21 29  1  0  0  0  0
 33 38  1  0  0  0  0
  8 13  1  0  0  0  0
 18 27  1  0  0  0  0
 42 44  1  0  0  0  0
  7 12  1  0  0  0  0
 32 37  1  0  0  0  0
 17 26  1  0  0  0  0
M  CHG  1  24  -1
M  END
$$$$

  -OEChem-05262214473D

 47 46  0     1  0  0  0  0  0999 V2000
    0.5093   -4.7265    3.0306 C   0  0  0  0  0  0  0  0  0  0  0  0
    1.2735   -4.4402    3.9448 O   0  0  0  0  0  0  0  0  0  0  0  0
   -0.4465   -5.8608    3.1982 C   0  0  0  0  0  0  0  0  0  0  0  0
   -0.0219   -6.8213    2.8645 H   0  0  0  0  0  0  0  0  0  0  0  0
   -0.7314   -6.0185    4.2509 H   0  0  0  0  0  0  0  0  0  0  0  0
   -1.3983   -5.7596    2.6527 H   0  0  0  0  0  0  0  0  0  0  0  0
    0.4252   -4.0886    1.8040 N   0  0  0  0  0  0  0  0  0  0  0  0
    1.2532   -2.9707    1.4349 C   0  0  2  0  0  0  0  0  0  0  0  0
    0.3395   -1.8293    1.0083 C   0  0  0  0  0  0  0  0  0  0  0  0
   -0.8136   -2.0027    0.6194 O   0  0  0  0  0  0  0  0  0  0  0  0
    2.2176   -3.3411    0.3189 C   0  0  0  0  0  0  0  0  0  0  0  0
   -0.2574   -4.4279    1.1287 H   0  0  0  0  0  0  0  0  0  0  0  0
    1.8087   -2.6785    2.3327 H   0  0  0  0  0  0  0  0  0  0  0  0
    1.6793   -3.6366   -0.5890 H   0  0  0  0  0  0  0  0  0  0  0  0
    2.8662   -2.4980    0.0589 H   0  0  0  0  0  0  0  0  0  0  0  0
    2.8538   -4.1816    0.6166 H   0  0  0  0  0  0  0  0  0  0  0  0
    0.9758   -0.5952    1.0708 N   0  0  0  0  0  0  0  0  0  0  0  0
    0.3258    0.6374    0.7059 C   0  0  2  0  0  0  0  0  0  0  0  0
    0.6557    1.6661    1.7823 C   0  0  0  0  0  0  0  0  0  0  0  0
    0.7730    2.8671    1.5475 O   0  0  0  0  0  0  0  0  0  0  0  0
   -1.1928    0.4689    0.5761 C   0  0  0  0  0  0  0  0  0  0  0  0
   -1.6089   -0.4235   -0.5924 C   0  0  0  0  0  0  0  0  0  0  0  0
   -3.1139   -0.6535   -0.7653 C   0  0  0  0  0  0  0  0  0  0  0  0
   -3.8228   -0.1841    0.1711 O   0  5  0  0  0  0  0  0  0  0  0  0
   -3.4708   -1.2616   -1.8118 O   0  0  0  0  0  0  0  0  0  0  0  0
    1.9288   -0.5463    1.4242 H   0  0  0  0  0  0  0  0  0  0  0  0
    0.7741    0.9610   -0.2397 H   0  0  0  0  0  0  0  0  0  0  0  0
   -1.6720    1.4506    0.4744 H   0  0  0  0  0  0  0  0  0  0  0  0
   -1.5901    0.0340    1.5031 H   0  0  0  0  0  0  0  0  0  0  0  0
   -1.1962   -0.0303   -1.5291 H   0  0  0  0  0  0  0  0  0  0  0  0
   -1.1616   -1.4151   -0.4468 H   0  0  0  0  0  0  0  0  0  0  0  0
    0.8491    1.0777    3.0244 N   0  0  0  0  0  0  0  0  0  0  0  0
    1.1873    1.8362    4.2064 C   0  0  2  0  0  0  0  0  0  0  0  0
    1.7558    0.8707    5.2380 C   0  0  0  0  0  0  0  0  0  0  0  0
    1.5256   -0.3367    5.2252 O   0  0  0  0  0  0  0  0  0  0  0  0
   -0.0249    2.5699    4.7586 C   0  0  0  0  0  0  0  0  0  0  0  0
    0.7162    0.0761    3.1280 H   0  0  0  0  0  0  0  0  0  0  0  0
    1.9609    2.5534    3.9113 H   0  0  0  0  0  0  0  0  0  0  0  0
   -0.8107    1.8676    5.0596 H   0  0  0  0  0  0  0  0  0  0  0  0
    0.2392    3.1670    5.6377 H   0  0  0  0  0  0  0  0  0  0  0  0
   -0.4503    3.2418    4.0053 H   0  0  0  0  0  0  0  0  0  0  0  0
    2.5153    1.5223    6.1997 N   0  0  0  0  0  0  0  0  0  0  0  0
    3.1518    0.8264    7.2936 C   0  0  0  0  0  0  0  0  0  0  0  0
    2.6689    2.5233    6.1213 H   0  0  0  0  0  0  0  0  0  0  0  0
    2.4821    0.8237    8.1663 H   0  0  0  0  0  0  0  0  0  0  0  0
    3.3667   -0.2097    6.9934 H   0  0  0  0  0  0  0  0  0  0  0  0
    4.0916    1.3351    7.5543 H   0  0  0  0  0  0  0  0  0  0  0  0
  1  3  1  0  0  0  0
  1  7  1  0  0  0  0
  1  2  2  0  0  0  0
 33 34  1  0  0  0  0
 34 42  1  0  0  0  0
 34 35  2  0  0  0  0
  8  9  1  0  0  0  0
  9 17  1  0  0  0  0
  9 10  2  0  0  0  0
 18 19  1  0  0  0  0
 19 32  1  0  0  0  0
 19 20  2  0  0  0  0
 22 23  1  0  0  0  0
 23 24  1  0  0  0  0
 23 25  2  0  0  0  0
 33 36  1  0  0  0  0
  8 11  1  0  0  0  0
 42 43  1  0  0  0  0
 21 22  1  0  0  0  0
 18 21  1  0  0  0  0
 32 33  1  0  0  0  0
  7  8  1  0  0  0  0
 17 18  1  0  0  0  0
  3  4  1  0  0  0  0
  3  5  1  0  0  0  0
  3  6  1  0  0  0  0
 36 39  1  0  0  0  0
 36 40  1  0  0  0  0
 36 41  1  0  0  0  0
 11 14  1  0  0  0  0
 11 15  1  0  0  0  0
 11 16  1  0  0  0  0
 43 45  1  0  0  0  0
 43 46  1  0  0  0  0
 43 47  1  0  0  0  0
 22 30  1  0  0  0  0
 22 31  1  0  0  0  0
 21 28  1  0  0  0  0
 21 29  1  0  0  0  0
 33 38  1  0  0  0  0
  8 13  1  0  0  0  0
 18 27  1  0  0  0  0
 42 44  1  0  0  0  0
  7 12  1  0  0  0  0
 32 37  1  0  0  0  0
 17 26  1  0  0  0  0
M  CHG  1  24  -1
M  END
$$$$

  -OEChem-05262214473D

 47 46  0     1  0  0  0  0  0999 V2000
    0.5093   -4.7265    3.0306 C   0  0  0  0  0  0  0  0  0  0  0  0
    1.2735   -4.4402    3.9448 O   0  0  0  0  0  0  0  0  0  0  0  0
   -0.4465   -5.8608    3.1982 C   0  0  0  0  0  0  0  0  0  0  0  0
   -0.0219   -6.8213    2.8645 H   0  0  0  0  0  0  0  0  0  0  0  0
   -0.7314   -6.0185    4.2509 H   0  0  0  0  0  0  0  0  0  0  0  0
   -1.3983   -5.7596    2.6527 H   0  0  0  0  0  0  0  0  0  0  0  0
    0.4252   -4.0886    1.8040 N   0  0  0  0  0  0  0  0  0  0  0  0
    1.2532   -2.9707    1.4349 C   0  0  2  0  0  0  0  0  0  0  0  0
    0.3395   -1.8293    1.0083 C   0  0  0  0  0  0  0  0  0  0  0  0
   -0.8136   -2.0027    0.6194 O   0  0  0  0  0  0  0  0  0  0  0  0
    2.2176   -3.3411    0.3189 C   0  0  0  0  0  0  0  0  0  0  0  0
   -0.2574   -4.4279    1.1287 H   0  0  0  0  0  0  0  0  0  0  0  0
    1.8087   -2.6785    2.3327 H   0  0  0  0  0  0  0  0  0  0  0  0
    1.6793   -3.6366   -0.5890 H   0  0  0  0  0  0  0  0  0  0  0  0
    2.8662   -2.4980    0.0589 H   0  0  0  0  0  0  0  0  0  0  0  0
    2.8538   -4.1816    0.6166 H   0  0  0  0  0  0  0  0  0  0  0  0
    0.9758   -0.5952    1.0708 N   0  0  0  0  0  0  0  0  0  0  0  0
    0.3258    0.6374    0.7059 C   0  0  2  0  0  0  0  0  0  0  0  0
    0.6557    1.6661    1.7823 C   0  0  0  0  0  0  0  0  0  0  0  0
    0.5135    2.8761    1.6184 O   0  0  0  0  0  0  0  0  0  0  0  0
   -1.1928    0.4689    0.5761 C   0  0  0  0  0  0  0  0  0  0  0  0
   -1.6089   -0.4235   -0.5924 C   0  0  0  0  0  0  0  0  0  0  0  0
   -3.1139   -0.6535   -0.7653 C   0  0  0  0  0  0  0  0  0  0  0  0
   -3.8228   -0.1841    0.1711 O   0  5  0  0  0  0  0  0  0  0  0  0
   -3.4708   -1.2616   -1.8118 O   0  0  0  0  0  0  0  0  0  0  0  0
    1.9288   -0.5463    1.4242 H   0  0  0  0  0  0  0  0  0  0  0  0
    0.7741    0.9610   -0.2397 H   0  0  0  0  0  0  0  0  0  0  0  0
   -1.6720    1.4506    0.4744 H   0  0  0  0  0  0  0  0  0  0  0  0
   -1.5901    0.0340    1.5031 H   0  0  0  0  0  0  0  0  0  0  0  0
   -1.1962   -0.0303   -1.5291 H   0  0  0  0  0  0  0  0  0  0  0  0
   -1.1616   -1.4151   -0.4468 H   0  0  0  0  0  0  0  0  0  0  0  0
    1.1707    1.0755    2.9279 N   0  0  0  0  0  0  0  0  0  0  0  0
    1.5756    1.8364    4.0872 C   0  0  2  0  0  0  0  0  0  0  0  0
    2.4827    0.9545    4.9351 C   0  0  0  0  0  0  0  0  0  0  0  0
    2.4722   -0.2732    4.8743 O   0  0  0  0  0  0  0  0  0  0  0  0
    0.3717    2.3071    4.8883 C   0  0  0  0  0  0  0  0  0  0  0  0
    1.2387    0.0634    2.9799 H   0  0  0  0  0  0  0  0  0  0  0  0
    2.1436    2.6972    3.7179 H   0  0  0  0  0  0  0  0  0  0  0  0
   -0.2097    1.4584    5.2665 H   0  0  0  0  0  0  0  0  0  0  0  0
    0.6792    2.9077    5.7507 H   0  0  0  0  0  0  0  0  0  0  0  0
   -0.2947    2.9166    4.2685 H   0  0  0  0  0  0  0  0  0  0  0  0
    3.2746    1.6982    5.7988 N   0  0  0  0  0  0  0  0  0  0  0  0
    4.2108    1.0912    6.7159 C   0  0  0  0  0  0  0  0  0  0  0  0
    3.2313    2.7126    5.7680 H   0  0  0  0  0  0  0  0  0  0  0  0
    3.7203    0.9282    7.6869 H   0  0  0  0  0  0  0  0  0  0  0  0
    4.5489    0.1266    6.3096 H   0  0  0  0  0  0  0  0  0  0  0  0
    5.0765    1.7565    6.8497 H   0  0  0  0  0  0  0  0  0  0  0  0
  1  3  1  0  0  0  0
  1  7  1  0  0  0  0
  1  2  2  0  0  0  0
 33 34  1  0  0  0  0
 34 42  1  0  0  0  0
 34 35  2  0  0  0  0
  8  9  1  0  0  0  0
  9 17  1  0  0  0  0
  9 10  2  0  0  0  0
 18 19  1  0  0  0  0
 19 32  1  0  0  0  0
 19 20  2  0  0  0  0
 22 23  1  0  0  0  0
 23 24  1  0  0  0  0
 23 25  2  0  0  0  0
 33 36  1  0  0  0  0
  8 11  1  0  0  0  0
 42 43  1  0  0  0  0
 21 22  1  0  0  0  0
 18 21  1  0  0  0  0
 32 33  1  0  0  0  0
  7  8  1  0  0  0  0
 17 18  1  0  0  0  0
  3  4  1  0  0  0  0
  3  5  1  0  0  0  0
  3  6  1  0  0  0  0
 36 39  1  0  0  0  0
 36 40  1  0  0  0  0
 36 41  1  0  0  0  0
 11 14  1  0  0  0  0
 11 15  1  0  0  0  0
 11 16  1  0  0  0  0
 43 45  1  0  0  0  0
 43 46  1  0  0  0  0
 43 47  1  0  0  0  0
 22 30  1  0  0  0  0
 22 31  1  0  0  0  0
 21 28  1  0  0  0  0
 21 29  1  0  0  0  0
 33 38  1  0  0  0  0
  8 13  1  0  0  0  0
 18 27  1  0  0  0  0
 42 44  1  0  0  0  0
  7 12  1  0  0  0  0
 32 37  1  0  0  0  0
 17 26  1  0  0  0  0
M  CHG  1  24  -1
M  END
$$$$

  -OEChem-05262214473D

 47 46  0     1  0  0  0  0  0999 V2000
    0.5093   -4.7265    3.0306 C   0  0  0  0  0  0  0  0  0  0  0  0
    1.2735   -4.4402    3.9448 O   0  0  0  0  0  0  0  0  0  0  0  0
   -0.4465   -5.8608    3.1982 C   0  0  0  0  0  0  0  0  0  0  0  0
   -0.0219   -6.8213    2.8645 H   0  0  0  0  0  0  0  0  0  0  0  0
   -0.7314   -6.0185    4.2509 H   0  0  0  0  0  0  0  0  0  0  0  0
   -1.3983   -5.7596    2.6527 H   0  0  0  0  0  0  0  0  0  0  0  0
    0.4252   -4.0886    1.8040 N   0  0  0  0  0  0  0  0  0  0  0  0
    1.2532   -2.9707    1.4349 C   0  0  2  0  0  0  0  0  0  0  0  0
    0.3395   -1.8293    1.0083 C   0  0  0  0  0  0  0  0  0  0  0  0
   -0.8136   -2.0027    0.6194 O   0  0  0  0  0  0  0  0  0  0  0  0
    2.2176   -3.3411    0.3189 C   0  0  0  0  0  0  0  0  0  0  0  0
   -0.2574   -4.4279    1.1287 H   0  0  0  0  0  0  0  0  0  0  0  0
    1.8087   -2.6785    2.3327 H   0  0  0  0  0  0  0  0  0  0  0  0
    1.6793   -3.6366   -0.5890 H   0  0  0  0  0  0  0  0  0  0  0  0
    2.8662   -2.4980    0.0589 H   0  0  0  0  0  0  0  0  0  0  0  0
    2.8538   -4.1816    0.6166 H   0  0  0  0  0  0  0  0  0  0  0  0
    0.9758   -0.5952    1.0708 N   0  0  0  0  0  0  0  0  0  0  0  0
    0.3258    0.6374    0.7059 C   0  0  2  0  0  0  0  0  0  0  0  0
    0.6557    1.6661    1.7823 C   0  0  0  0  0  0  0  0  0  0  0  0
    0.2737    2.8335    1.7326 O   0  0  0  0  0  0  0  0  0  0  0  0
   -1.1928    0.4689    0.5761 C   0  0  0  0  0  0  0  0  0  0  0  0
   -1.6089   -0.4235   -0.5924 C   0  0  0  0  0  0  0  0  0  0  0  0
   -3.1139   -0.6535   -0.7653 C   0  0  0  0  0  0  0  0  0  0  0  0
   -3.8228   -0.1841    0.1711 O   0  5  0  0  0  0  0  0  0  0  0  0
   -3.4708   -1.2616   -1.8118 O   0  0  0  0  0  0  0  0  0  0  0  0
    1.9288   -0.5463    1.4242 H   0  0  0  0  0  0  0  0  0  0  0  0
    0.7741    0.9610   -0.2397 H   0  0  0  0  0  0  0  0  0  0  0  0
   -1.6720    1.4506    0.4744 H   0  0  0  0  0  0  0  0  0  0  0  0
   -1.5901    0.0340    1.5031 H   0  0  0  0  0  0  0  0  0  0  0  0
   -1.1962   -0.0303   -1.5291 H   0  0  0  0  0  0  0  0  0  0  0  0
   -1.1616   -1.4151   -0.4468 H   0  0  0  0  0  0  0  0  0  0  0  0
    1.4649    1.1376    2.7784 N   0  0  0  0  0  0  0  0  0  0  0  0
    1.9299    1.9142    3.9042 C   0  0  2  0  0  0  0  0  0  0  0  0
    3.1167    1.1852    4.5204 C   0  0  0  0  0  0  0  0  0  0  0  0
    3.3138   -0.0193    4.3737 O   0  0  0  0  0  0  0  0  0  0  0  0
    0.8255    2.1184    4.9295 C   0  0  0  0  0  0  0  0  0  0  0  0
    1.7199    0.1550    2.7449 H   0  0  0  0  0  0  0  0  0  0  0  0
    2.2600    2.8803    3.5072 H   0  0  0  0  0  0  0  0  0  0  0  0
    0.4818    1.1613    5.3385 H   0  0  0  0  0  0  0  0  0  0  0  0
    1.1713    2.7312    5.7685 H   0  0  0  0  0  0  0  0  0  0  0  0
   -0.0391    2.6162    4.4772 H   0  0  0  0  0  0  0  0  0  0  0  0
    3.9060    2.0294    5.2888 N   0  0  0  0  0  0  0  0  0  0  0  0
    5.0845    1.5728    5.9879 C   0  0  0  0  0  0  0  0  0  0  0  0
    3.6783    3.0180    5.3391 H   0  0  0  0  0  0  0  0  0  0  0  0
    4.8135    1.2822    7.0136 H   0  0  0  0  0  0  0  0  0  0  0  0
    5.5100    0.7057    5.4615 H   0  0  0  0  0  0  0  0  0  0  0  0
    5.8280    2.3829    6.0208 H   0  0  0  0  0  0  0  0  0  0  0  0
  1  3  1  0  0  0  0
  1  7  1  0  0  0  0
  1  2  2  0  0  0  0
 33 34  1  0  0  0  0
 34 42  1  0  0  0  0
 34 35  2  0  0  0  0
  8  9  1  0  0  0  0
  9 17  1  0  0  0  0
  9 10  2  0  0  0  0
 18 19  1  0  0  0  0
 19 32  1  0  0  0  0
 19 20  2  0  0  0  0
 22 23  1  0  0  0  0
 23 24  1  0  0  0  0
 23 25  2  0  0  0  0
 33 36  1  0  0  0  0
  8 11  1  0  0  0  0
 42 43  1  0  0  0  0
 21 22  1  0  0  0  0
 18 21  1  0  0  0  0
 32 33  1  0  0  0  0
  7  8  1  0  0  0  0
 17 18  1  0  0  0  0
  3  4  1  0  0  0  0
  3  5  1  0  0  0  0
  3  6  1  0  0  0  0
 36 39  1  0  0  0  0
 36 40  1  0  0  0  0
 36 41  1  0  0  0  0
 11 14  1  0  0  0  0
 11 15  1  0  0  0  0
 11 16  1  0  0  0  0
 43 45  1  0  0  0  0
 43 46  1  0  0  0  0
 43 47  1  0  0  0  0
 22 30  1  0  0  0  0
 22 31  1  0  0  0  0
 21 28  1  0  0  0  0
 21 29  1  0  0  0  0
 33 38  1  0  0  0  0
  8 13  1  0  0  0  0
 18 27  1  0  0  0  0
 42 44  1  0  0  0  0
  7 12  1  0  0  0  0
 32 37  1  0  0  0  0
 17 26  1  0  0  0  0
M  CHG  1  24  -1
M  END
$$$$

  -OEChem-05262214473D

 47 46  0     1  0  0  0  0  0999 V2000
    0.5093   -4.7265    3.0306 C   0  0  0  0  0  0  0  0  0  0  0  0
    1.2735   -4.4402    3.9448 O   0  0  0  0  0  0  0  0  0  0  0  0
   -0.4465   -5.8608    3.1982 C   0  0  0  0  0  0  0  0  0  0  0  0
   -0.0219   -6.8213    2.8645 H   0  0  0  0  0  0  0  0  0  0  0  0
   -0.7314   -6.0185    4.2509 H   0  0  0  0  0  0  0  0  0  0  0  0
   -1.3983   -5.7596    2.6527 H   0  0  0  0  0  0  0  0  0  0  0  0
    0.4252   -4.0886    1.8040 N   0  0  0  0  0  0  0  0  0  0  0  0
    1.2532   -2.9707    1.4349 C   0  0  2  0  0  0  0  0  0  0  0  0
    0.3395   -1.8293    1.0083 C   0  0  0  0  0  0  0  0  0  0  0  0
   -0.8136   -2.0027    0.6194 O   0  0  0  0  0  0  0  0  0  0  0  0
    2.2176   -3.3411    0.3189 C   0  0  0  0  0  0  0  0  0  0  0  0
   -0.2574   -4.4279    1.1287 H   0  0  0  0  0  0  0  0  0  0  0  0
    1.8087   -2.6785    2.3327 H   0  0  0  0  0  0  0  0  0  0  0  0
    1.6793   -3.6366   -0.5890 H   0  0  0  0  0  0  0  0  0  0  0  0
    2.8662   -2.4980    0.0589 H   0  0  0  0  0  0  0  0  0  0  0  0
    2.8538   -4.1816    0.6166 H   0  0  0  0  0  0  0  0  0  0  0  0
    0.9758   -0.5952    1.0708 N   0  0  0  0  0  0  0  0  0  0  0  0
    0.3258    0.6374    0.7059 C   0  0  2  0  0  0  0  0  0  0  0  0
    0.6557    1.6661    1.7823 C   0  0  0  0  0  0  0  0  0  0  0  0
    0.0697    2.7421    1.8825 O   0  0  0  0  0  0  0  0  0  0  0  0
   -1.1928    0.4689    0.5761 C   0  0  0  0  0  0  0  0  0  0  0  0
   -1.6089   -0.4235   -0.5924 C   0  0  0  0  0  0  0  0  0  0  0  0
   -3.1139   -0.6535   -0.7653 C   0  0  0  0  0  0  0  0  0  0  0  0
   -3.8228   -0.1841    0.1711 O   0  5  0  0  0  0  0  0  0  0  0  0
   -3.4708   -1.2616   -1.8118 O   0  0  0  0  0  0  0  0  0  0  0  0
    1.9288   -0.5463    1.4242 H   0  0  0  0  0  0  0  0  0  0  0  0
    0.7741    0.9610   -0.2397 H   0  0  0  0  0  0  0  0  0  0  0  0
   -1.6720    1.4506    0.4744 H   0  0  0  0  0  0  0  0  0  0  0  0
   -1.5901    0.0340    1.5031 H   0  0  0  0  0  0  0  0  0  0  0  0
   -1.1962   -0.0303   -1.5291 H   0  0  0  0  0  0  0  0  0  0  0  0
   -1.1616   -1.4151   -0.4468 H   0  0  0  0  0  0  0  0  0  0  0  0
    1.7116    1.2597    2.5862 N   0  0  0  0  0  0  0  0  0  0  0  0
    2.2259    2.0643    3.6700 C   0  0  2  0  0  0  0  0  0  0  0  0
    3.6145    1.5471    4.0220 C   0  0  0  0  0  0  0  0  0  0  0  0
    3.9928    0.4078    3.7574 O   0  0  0  0  0  0  0  0  0  0  0  0
    1.3054    2.0167    4.8796 C   0  0  0  0  0  0  0  0  0  0  0  0
    2.1269    0.3445    2.4391 H   0  0  0  0  0  0  0  0  0  0  0  0
    2.3023    3.0902    3.2937 H   0  0  0  0  0  0  0  0  0  0  0  0
    1.2165    0.9966    5.2707 H   0  0  0  0  0  0  0  0  0  0  0  0
    1.6819    2.6496    5.6899 H   0  0  0  0  0  0  0  0  0  0  0  0
    0.2992    2.3610    4.6174 H   0  0  0  0  0  0  0  0  0  0  0  0
    4.3663    2.4931    4.7046 N   0  0  0  0  0  0  0  0  0  0  0  0
    5.7133    2.2384    5.1591 C   0  0  0  0  0  0  0  0  0  0  0  0
    3.9793    3.4186    4.8640 H   0  0  0  0  0  0  0  0  0  0  0  0
    5.6872    1.8615    6.1922 H   0  0  0  0  0  0  0  0  0  0  0  0
    6.1845    1.4882    4.5070 H   0  0  0  0  0  0  0  0  0  0  0  0
    6.2946    3.1716    5.1240 H   0  0  0  0  0  0  0  0  0  0  0  0
  1  3  1  0  0  0  0
  1  7  1  0  0  0  0
  1  2  2  0  0  0  0
 33 34  1  0  0  0  0
 34 42  1  0  0  0  0
 34 35  2  0  0  0  0
  8  9  1  0  0  0  0
  9 17  1  0  0  0  0
  9 10  2  0  0  0  0
 18 19  1  0  0  0  0
 19 32  1  0  0  0  0
 19 20  2  0  0  0  0
 22 23  1  0  0  0  0
 23 24  1  0  0  0  0
 23 25  2  0  0  0  0
 33 36  1  0  0  0  0
  8 11  1  0  0  0  0
 42 43  1  0  0  0  0
 21 22  1  0  0  0  0
 18 21  1  0  0  0  0
 32 33  1  0  0  0  0
  7  8  1  0  0  0  0
 17 18  1  0  0  0  0
  3  4  1  0  0  0  0
  3  5  1  0  0  0  0
  3  6  1  0  0  0  0
 36 39  1  0  0  0  0
 36 40  1  0  0  0  0
 36 41  1  0  0  0  0
 11 14  1  0  0  0  0
 11 15  1  0  0  0  0
 11 16  1  0  0  0  0
 43 45  1  0  0  0  0
 43 46  1  0  0  0  0
 43 47  1  0  0  0  0
 22 30  1  0  0  0  0
 22 31  1  0  0  0  0
 21 28  1  0  0  0  0
 21 29  1  0  0  0  0
 33 38  1  0  0  0  0
  8 13  1  0  0  0  0
 18 27  1  0  0  0  0
 42 44  1  0  0  0  0
  7 12  1  0  0  0  0
 32 37  1  0  0  0  0
 17 26  1  0  0  0  0
M  CHG  1  24  -1
M  END
$$$$

  -OEChem-05262214473D

 47 46  0     1  0  0  0  0  0999 V2000
    0.5093   -4.7265    3.0306 C   0  0  0  0  0  0  0  0  0  0  0  0
    1.2735   -4.4402    3.9448 O   0  0  0  0  0  0  0  0  0  0  0  0
   -0.4465   -5.8608    3.1982 C   0  0  0  0  0  0  0  0  0  0  0  0
   -0.0219   -6.8213    2.8645 H   0  0  0  0  0  0  0  0  0  0  0  0
   -0.7314   -6.0185    4.2509 H   0  0  0  0  0  0  0  0  0  0  0  0
   -1.3983   -5.7596    2.6527 H   0  0  0  0  0  0  0  0  0  0  0  0
    0.4252   -4.0886    1.8040 N   0  0  0  0  0  0  0  0  0  0  0  0
    1.2532   -2.9707    1.4349 C   0  0  2  0  0  0  0  0  0  0  0  0
    0.3395   -1.8293    1.0083 C   0  0  0  0  0  0  0  0  0  0  0  0
   -0.8136   -2.0027    0.6194 O   0  0  0  0  0  0  0  0  0  0  0  0
    2.2176   -3.3411    0.3189 C   0  0  0  0  0  0  0  0  0  0  0  0
   -0.2574   -4.4279    1.1287 H   0  0  0  0  0  0  0  0  0  0  0  0
    1.8087   -2.6785    2.3327 H   0  0  0  0  0  0  0  0  0  0  0  0
    1.6793   -3.6366   -0.5890 H   0  0  0  0  0  0  0  0  0  0  0  0
    2.8662   -2.4980    0.0589 H   0  0  0  0  0  0  0  0  0  0  0  0
    2.8538   -4.1816    0.6166 H   0  0  0  0  0  0  0  0  0  0  0  0
    0.9758   -0.5952    1.0708 N   0  0  0  0  0  0  0  0  0  0  0  0
    0.3258    0.6374    0.7059 C   0  0  2  0  0  0  0  0  0  0  0  0
    0.6557    1.6661    1.7823 C   0  0  0  0  0  0  0  0  0  0  0  0
   -0.0845    2.6082    2.0577 O   0  0  0  0  0  0  0  0  0  0  0  0
   -1.1928    0.4689    0.5761 C   0  0  0  0  0  0  0  0  0  0  0  0
   -1.6089   -0.4235   -0.5924 C   0  0  0  0  0  0  0  0  0  0  0  0
   -3.1139   -0.6535   -0.7653 C   0  0  0  0  0  0  0  0  0  0  0  0
   -3.8228   -0.1841    0.1711 O   0  5  0  0  0  0  0  0  0  0  0  0
   -3.4708   -1.2616   -1.8118 O   0  0  0  0  0  0  0  0  0  0  0  0
    1.9288   -0.5463    1.4242 H   0  0  0  0  0  0  0  0  0  0  0  0
    0.7741    0.9610   -0.2397 H   0  0  0  0  0  0  0  0  0  0  0  0
   -1.6720    1.4506    0.4744 H   0  0  0  0  0  0  0  0  0  0  0  0
   -1.5901    0.0340    1.5031 H   0  0  0  0  0  0  0  0  0  0  0  0
   -1.1962   -0.0303   -1.5291 H   0  0  0  0  0  0  0  0  0  0  0  0
   -1.1616   -1.4151   -0.4468 H   0  0  0  0  0  0  0  0  0  0  0  0
    1.8941    1.4334    2.3642 N   0  0  0  0  0  0  0  0  0  0  0  0
    2.4435    2.2765    3.4005 C   0  0  2  0  0  0  0  0  0  0  0  0
    3.9422    2.0154    3.4739 C   0  0  0  0  0  0  0  0  0  0  0  0
    4.4632    0.9788    3.0675 O   0  0  0  0  0  0  0  0  0  0  0  0
    1.7789    2.0089    4.7419 C   0  0  0  0  0  0  0  0  0  0  0  0
    2.4321    0.6190    2.0832 H   0  0  0  0  0  0  0  0  0  0  0  0
    2.2674    3.3127    3.0918 H   0  0  0  0  0  0  0  0  0  0  0  0
    1.9444    0.9755    5.0678 H   0  0  0  0  0  0  0  0  0  0  0  0
    2.1764    2.6686    5.5203 H   0  0  0  0  0  0  0  0  0  0  0  0
    0.6970    2.1684    4.6795 H   0  0  0  0  0  0  0  0  0  0  0  0
    4.6242    3.0578    4.0858 N   0  0  0  0  0  0  0  0  0  0  0  0
    6.0545    3.0425    4.2860 C   0  0  0  0  0  0  0  0  0  0  0  0
    4.1140    3.8872    4.3749 H   0  0  0  0  0  0  0  0  0  0  0  0
    6.2819    2.6267    5.2786 H   0  0  0  0  0  0  0  0  0  0  0  0
    6.5264    2.4206    3.5111 H   0  0  0  0  0  0  0  0  0  0  0  0
    6.4447    4.0689    4.2204 H   0  0  0  0  0  0  0  0  0  0  0  0
  1  3  1  0  0  0  0
  1  7  1  0  0  0  0
  1  2  2  0  0  0  0
 33 34  1  0  0  0  0
 34 42  1  0  0  0  0
 34 35  2  0  0  0  0
  8  9  1  0  0  0  0
  9 17  1  0  0  0  0
  9 10  2  0  0  0  0
 18 19  1  0  0  0  0
 19 32  1  0  0  0  0
 19 20  2  0  0  0  0
 22 23  1  0  0  0  0
 23 24  1  0  0  0  0
 23 25  2  0  0  0  0
 33 36  1  0  0  0  0
  8 11  1  0  0  0  0
 42 43  1  0  0  0  0
 21 22  1  0  0  0  0
 18 21  1  0  0  0  0
 32 33  1  0  0  0  0
  7  8  1  0  0  0  0
 17 18  1  0  0  0  0
  3  4  1  0  0  0  0
  3  5  1  0  0  0  0
  3  6  1  0  0  0  0
 36 39  1  0  0  0  0
 36 40  1  0  0  0  0
 36 41  1  0  0  0  0
 11 14  1  0  0  0  0
 11 15  1  0  0  0  0
 11 16  1  0  0  0  0
 43 45  1  0  0  0  0
 43 46  1  0  0  0  0
 43 47  1  0  0  0  0
 22 30  1  0  0  0  0
 22 31  1  0  0  0  0
 21 28  1  0  0  0  0
 21 29  1  0  0  0  0
 33 38  1  0  0  0  0
  8 13  1  0  0  0  0
 18 27  1  0  0  0  0
 42 44  1  0  0  0  0
  7 12  1  0  0  0  0
 32 37  1  0  0  0  0
 17 26  1  0  0  0  0
M  CHG  1  24  -1
M  END
$$$$

  -OEChem-05262214473D

 47 46  0     1  0  0  0  0  0999 V2000
    0.5093   -4.7265    3.0306 C   0  0  0  0  0  0  0  0  0  0  0  0
    1.2735   -4.4402    3.9448 O   0  0  0  0  0  0  0  0  0  0  0  0
   -0.4465   -5.8608    3.1982 C   0  0  0  0  0  0  0  0  0  0  0  0
   -0.0219   -6.8213    2.8645 H   0  0  0  0  0  0  0  0  0  0  0  0
   -0.7314   -6.0185    4.2509 H   0  0  0  0  0  0  0  0  0  0  0  0
   -1.3983   -5.7596    2.6527 H   0  0  0  0  0  0  0  0  0  0  0  0
    0.4252   -4.0886    1.8040 N   0  0  0  0  0  0  0  0  0  0  0  0
    1.2532   -2.9707    1.4349 C   0  0  2  0  0  0  0  0  0  0  0  0
    0.3395   -1.8293    1.0083 C   0  0  0  0  0  0  0  0  0  0  0  0
   -0.8136   -2.0027    0.6194 O   0  0  0  0  0  0  0  0  0  0  0  0
    2.2176   -3.3411    0.3189 C   0  0  0  0  0  0  0  0  0  0  0  0
   -0.2574   -4.4279    1.1287 H   0  0  0  0  0  0  0  0  0  0  0  0
    1.8087   -2.6785    2.3327 H   0  0  0  0  0  0  0  0  0  0  0  0
    1.6793   -3.6366   -0.5890 H   0  0  0  0  0  0  0  0  0  0  0  0
    2.8662   -2.4980    0.0589 H   0  0  0  0  0  0  0  0  0  0  0  0
    2.8538   -4.1816    0.6166 H   0  0  0  0  0  0  0  0  0  0  0  0
    0.9758   -0.5952    1.0708 N   0  0  0  0  0  0  0  0  0  0  0  0
    0.3258    0.6374    0.7059 C   0  0  2  0  0  0  0  0  0  0  0  0
    0.6557    1.6661    1.7823 C   0  0  0  0  0  0  0  0  0  0  0  0
   -0.1784    2.4408    2.2464 O   0  0  0  0  0  0  0  0  0  0  0  0
   -1.1928    0.4689    0.5761 C   0  0  0  0  0  0  0  0  0  0  0  0
   -1.6089   -0.4235   -0.5924 C   0  0  0  0  0  0  0  0  0  0  0  0
   -3.1139   -0.6535   -0.7653 C   0  0  0  0  0  0  0  0  0  0  0  0
   -3.8228   -0.1841    0.1711 O   0  5  0  0  0  0  0  0  0  0  0  0
   -3.4708   -1.2616   -1.8118 O   0  0  0  0  0  0  0  0  0  0  0  0
    1.9288   -0.5463    1.4242 H   0  0  0  0  0  0  0  0  0  0  0  0
    0.7741    0.9610   -0.2397 H   0  0  0  0  0  0  0  0  0  0  0  0
   -1.6720    1.4506    0.4744 H   0  0  0  0  0  0  0  0  0  0  0  0
   -1.5901    0.0340    1.5031 H   0  0  0  0  0  0  0  0  0  0  0  0
   -1.1962   -0.0303   -1.5291 H   0  0  0  0  0  0  0  0  0  0  0  0
   -1.1616   -1.4151   -0.4468 H   0  0  0  0  0  0  0  0  0  0  0  0
    1.9998    1.6469    2.1277 N   0  0  0  0  0  0  0  0  0  0  0  0
    2.5679    2.5363    3.1141 C   0  0  2  0  0  0  0  0  0  0  0  0
    4.0775    2.5584    2.9135 C   0  0  0  0  0  0  0  0  0  0  0  0
    4.6927    1.6550    2.3510 O   0  0  0  0  0  0  0  0  0  0  0  0
    2.2136    2.0956    4.5258 C   0  0  0  0  0  0  0  0  0  0  0  0
    2.6146    0.9598    1.7015 H   0  0  0  0  0  0  0  0  0  0  0  0
    2.1579    3.5325    2.9153 H   0  0  0  0  0  0  0  0  0  0  0  0
    2.6160    1.0995    4.7434 H   0  0  0  0  0  0  0  0  0  0  0  0
    2.6209    2.7867    5.2712 H   0  0  0  0  0  0  0  0  0  0  0  0
    1.1273    2.0516    4.6593 H   0  0  0  0  0  0  0  0  0  0  0  0
    4.6621    3.6851    3.4747 N   0  0  0  0  0  0  0  0  0  0  0  0
    6.0846    3.9305    3.4281 C   0  0  0  0  0  0  0  0  0  0  0  0
    4.0731    4.3918    3.9051 H   0  0  0  0  0  0  0  0  0  0  0  0
    6.5570    3.5255    4.3352 H   0  0  0  0  0  0  0  0  0  0  0  0
    6.5125    3.4395    2.5416 H   0  0  0  0  0  0  0  0  0  0  0  0
    6.2681    5.0136    3.3717 H   0  0  0  0  0  0  0  0  0  0  0  0
  1  3  1  0  0  0  0
  1  7  1  0  0  0  0
  1  2  2  0  0  0  0
 33 34  1  0  0  0  0
 34 42  1  0  0  0  0
 34 35  2  0  0  0  0
  8  9  1  0  0  0  0
  9 17  1  0  0  0  0
  9 10  2  0  0  0  0
 18 19  1  0  0  0  0
 19 32  1  0  0  0  0
 19 20  2  0  0  0  0
 22 23  1  0  0  0  0
 23 24  1  0  0  0  0
 23 25  2  0  0  0  0
 33 36  1  0  0  0  0
  8 11  1  0  0  0  0
 42 43  1  0  0  0  0
 21 22  1  0  0  0  0
 18 21  1  0  0  0  0
 32 33  1  0  0  0  0
  7  8  1  0  0  0  0
 17 18  1  0  0  0  0
  3  4  1  0  0  0  0
  3  5  1  0  0  0  0
  3  6  1  0  0  0  0
 36 39  1  0  0  0  0
 36 40  1  0  0  0  0
 36 41  1  0  0  0  0
 11 14  1  0  0  0  0
 11 15  1  0  0  0  0
 11 16  1  0  0  0  0
 43 45  1  0  0  0  0
 43 46  1  0  0  0  0
 43 47  1  0  0  0  0
 22 30  1  0  0  0  0
 22 31  1  0  0  0  0
 21 28  1  0  0  0  0
 21 29  1  0  0  0  0
 33 38  1  0  0  0  0
  8 13  1  0  0  0  0
 18 27  1  0  0  0  0
 42 44  1  0  0  0  0
  7 12  1  0  0  0  0
 32 37  1  0  0  0  0
 17 26  1  0  0  0  0
M  CHG  1  24  -1
M  END
$$$$

  -OEChem-05262214473D

 47 46  0     1  0  0  0  0  0999 V2000
    0.5093   -4.7265    3.0306 C   0  0  0  0  0  0  0  0  0  0  0  0
    1.2735   -4.4402    3.9448 O   0  0  0  0  0  0  0  0  0  0  0  0
   -0.4465   -5.8608    3.1982 C   0  0  0  0  0  0  0  0  0  0  0  0
   -0.0219   -6.8213    2.8645 H   0  0  0  0  0  0  0  0  0  0  0  0
   -0.7314   -6.0185    4.2509 H   0  0  0  0  0  0  0  0  0  0  0  0
   -1.3983   -5.7596    2.6527 H   0  0  0  0  0  0  0  0  0  0  0  0
    0.4252   -4.0886    1.8040 N   0  0  0  0  0  0  0  0  0  0  0  0
    1.2532   -2.9707    1.4349 C   0  0  2  0  0  0  0  0  0  0  0  0
    0.3395   -1.8293    1.0083 C   0  0  0  0  0  0  0  0  0  0  0  0
   -0.8136   -2.0027    0.6194 O   0  0  0  0  0  0  0  0  0  0  0  0
    2.2176   -3.3411    0.3189 C   0  0  0  0  0  0  0  0  0  0  0  0
   -0.2574   -4.4279    1.1287 H   0  0  0  0  0  0  0  0  0  0  0  0
    1.8087   -2.6785    2.3327 H   0  0  0  0  0  0  0  0  0  0  0  0
    1.6793   -3.6366   -0.5890 H   0  0  0  0  0  0  0  0  0  0  0  0
    2.8662   -2.4980    0.0589 H   0  0  0  0  0  0  0  0  0  0  0  0
    2.8538   -4.1816    0.6166 H   0  0  0  0  0  0  0  0  0  0  0  0
    0.9758   -0.5952    1.0708 N   0  0  0  0  0  0  0  0  0  0  0  0
    0.3258    0.6374    0.7059 C   0  0  2  0  0  0  0  0  0  0  0  0
    0.6557    1.6661    1.7823 C   0  0  0  0  0  0  0  0  0  0  0  0
   -0.2055    2.2515    2.4357 O   0  0  0  0  0  0  0  0  0  0  0  0
   -1.1928    0.4689    0.5761 C   0  0  0  0  0  0  0  0  0  0  0  0
   -1.6089   -0.4235   -0.5924 C   0  0  0  0  0  0  0  0  0  0  0  0
   -3.1139   -0.6535   -0.7653 C   0  0  0  0  0  0  0  0  0  0  0  0
   -3.8228   -0.1841    0.1711 O   0  5  0  0  0  0  0  0  0  0  0  0
   -3.4708   -1.2616   -1.8118 O   0  0  0  0  0  0  0  0  0  0  0  0
    1.9288   -0.5463    1.4242 H   0  0  0  0  0  0  0  0  0  0  0  0
    0.7741    0.9610   -0.2397 H   0  0  0  0  0  0  0  0  0  0  0  0
   -1.6720    1.4506    0.4744 H   0  0  0  0  0  0  0  0  0  0  0  0
   -1.5901    0.0340    1.5031 H   0  0  0  0  0  0  0  0  0  0  0  0
   -1.1962   -0.0303   -1.5291 H   0  0  0  0  0  0  0  0  0  0  0  0
   -1.1616   -1.4151   -0.4468 H   0  0  0  0  0  0  0  0  0  0  0  0
    2.0217    1.8858    1.8927 N   0  0  0  0  0  0  0  0  0  0  0  0
    2.5906    2.8260    2.8303 C   0  0  2  0  0  0  0  0  0  0  0  0
    4.0112    3.1389    2.3790 C   0  0  0  0  0  0  0  0  0  0  0  0
    4.6658    2.3901    1.6567 O   0  0  0  0  0  0  0  0  0  0  0  0
    2.5799    2.2709    4.2461 C   0  0  0  0  0  0  0  0  0  0  0  0
    2.6619    1.3437    1.3201 H   0  0  0  0  0  0  0  0  0  0  0  0
    1.9811    3.7347    2.7762 H   0  0  0  0  0  0  0  0  0  0  0  0
    3.1854    1.3601    4.3198 H   0  0  0  0  0  0  0  0  0  0  0  0
    2.9852    2.9959    4.9596 H   0  0  0  0  0  0  0  0  0  0  0  0
    1.5607    2.0185    4.5580 H   0  0  0  0  0  0  0  0  0  0  0  0
    4.4775    4.3321    2.9129 N   0  0  0  0  0  0  0  0  0  0  0  0
    5.8018    4.8418    2.6439 C   0  0  0  0  0  0  0  0  0  0  0  0
    3.8594    4.8981    3.4868 H   0  0  0  0  0  0  0  0  0  0  0  0
    6.4939    4.4969    3.4262 H   0  0  0  0  0  0  0  0  0  0  0  0
    6.1436    4.4754    1.6646 H   0  0  0  0  0  0  0  0  0  0  0  0
    5.7766    5.9414    2.6356 H   0  0  0  0  0  0  0  0  0  0  0  0
  1  3  1  0  0  0  0
  1  7  1  0  0  0  0
  1  2  2  0  0  0  0
 33 34  1  0  0  0  0
 34 42  1  0  0  0  0
 34 35  2  0  0  0  0
  8  9  1  0  0  0  0
  9 17  1  0  0  0  0
  9 10  2  0  0  0  0
 18 19  1  0  0  0  0
 19 32  1  0  0  0  0
 19 20  2  0  0  0  0
 22 23  1  0  0  0  0
 23 24  1  0  0  0  0
 23 25  2  0  0  0  0
 33 36  1  0  0  0  0
  8 11  1  0  0  0  0
 42 43  1  0  0  0  0
 21 22  1  0  0  0  0
 18 21  1  0  0  0  0
 32 33  1  0  0  0  0
  7  8  1  0  0  0  0
 17 18  1  0  0  0  0
  3  4  1  0  0  0  0
  3  5  1  0  0  0  0
  3  6  1  0  0  0  0
 36 39  1  0  0  0  0
 36 40  1  0  0  0  0
 36 41  1  0  0  0  0
 11 14  1  0  0  0  0
 11 15  1  0  0  0  0
 11 16  1  0  0  0  0
 43 45  1  0  0  0  0
 43 46  1  0  0  0  0
 43 47  1  0  0  0  0
 22 30  1  0  0  0  0
 22 31  1  0  0  0  0
 21 28  1  0  0  0  0
 21 29  1  0  0  0  0
 33 38  1  0  0  0  0
  8 13  1  0  0  0  0
 18 27  1  0  0  0  0
 42 44  1  0  0  0  0
  7 12  1  0  0  0  0
 32 37  1  0  0  0  0
 17 26  1  0  0  0  0
M  CHG  1  24  -1
M  END
$$$$

  -OEChem-05262214473D

 47 46  0     1  0  0  0  0  0999 V2000
    0.5093   -4.7265    3.0306 C   0  0  0  0  0  0  0  0  0  0  0  0
    1.2735   -4.4402    3.9448 O   0  0  0  0  0  0  0  0  0  0  0  0
   -0.4465   -5.8608    3.1982 C   0  0  0  0  0  0  0  0  0  0  0  0
   -0.0219   -6.8213    2.8645 H   0  0  0  0  0  0  0  0  0  0  0  0
   -0.7314   -6.0185    4.2509 H   0  0  0  0  0  0  0  0  0  0  0  0
   -1.3983   -5.7596    2.6527 H   0  0  0  0  0  0  0  0  0  0  0  0
    0.4252   -4.0886    1.8040 N   0  0  0  0  0  0  0  0  0  0  0  0
    1.2532   -2.9707    1.4349 C   0  0  2  0  0  0  0  0  0  0  0  0
    0.3395   -1.8293    1.0083 C   0  0  0  0  0  0  0  0  0  0  0  0
   -0.8136   -2.0027    0.6194 O   0  0  0  0  0  0  0  0  0  0  0  0
    2.2176   -3.3411    0.3189 C   0  0  0  0  0  0  0  0  0  0  0  0
   -0.2574   -4.4279    1.1287 H   0  0  0  0  0  0  0  0  0  0  0  0
    1.8087   -2.6785    2.3327 H   0  0  0  0  0  0  0  0  0  0  0  0
    1.6793   -3.6366   -0.5890 H   0  0  0  0  0  0  0  0  0  0  0  0
    2.8662   -2.4980    0.0589 H   0  0  0  0  0  0  0  0  0  0  0  0
    2.8538   -4.1816    0.6166 H   0  0  0  0  0  0  0  0  0  0  0  0
    0.9758   -0.5952    1.0708 N   0  0  0  0  0  0  0  0  0  0  0  0
    0.3258    0.6374    0.7059 C   0  0  2  0  0  0  0  0  0  0  0  0
    0.6557    1.6661    1.7823 C   0  0  0  0  0  0  0  0  0  0  0  0
   -0.1641    2.0530    2.6127 O   0  0  0  0  0  0  0  0  0  0  0  0
   -1.1928    0.4689    0.5761 C   0  0  0  0  0  0  0  0  0  0  0  0
   -1.6089   -0.4235   -0.5924 C   0  0  0  0  0  0  0  0  0  0  0  0
   -3.1139   -0.6535   -0.7653 C   0  0  0  0  0  0  0  0  0  0  0  0
   -3.8228   -0.1841    0.1711 O   0  5  0  0  0  0  0  0  0  0  0  0
   -3.4708   -1.2616   -1.8118 O   0  0  0  0  0  0  0  0  0  0  0  0
    1.9288   -0.5463    1.4242 H   0  0  0  0  0  0  0  0  0  0  0  0
    0.7741    0.9610   -0.2397 H   0  0  0  0  0  0  0  0  0  0  0  0
   -1.6720    1.4506    0.4744 H   0  0  0  0  0  0  0  0  0  0  0  0
   -1.5901    0.0340    1.5031 H   0  0  0  0  0  0  0  0  0  0  0  0
   -1.1962   -0.0303   -1.5291 H   0  0  0  0  0  0  0  0  0  0  0  0
   -1.1616   -1.4151   -0.4468 H   0  0  0  0  0  0  0  0  0  0  0  0
    1.9581    2.1337    1.6753 N   0  0  0  0  0  0  0  0  0  0  0  0
    2.5101    3.1259    2.5684 C   0  0  2  0  0  0  0  0  0  0  0  0
    3.7477    3.7175    1.9068 C   0  0  0  0  0  0  0  0  0  0  0  0
    4.3843    3.1342    1.0318 O   0  0  0  0  0  0  0  0  0  0  0  0
    2.8529    2.5228    3.9217 C   0  0  0  0  0  0  0  0  0  0  0  0
    2.5710    1.7446    0.9649 H   0  0  0  0  0  0  0  0  0  0  0  0
    1.7492    3.9054    2.6841 H   0  0  0  0  0  0  0  0  0  0  0  0
    3.6138    1.7396    3.8258 H   0  0  0  0  0  0  0  0  0  0  0  0
    3.2445    3.2820    4.6067 H   0  0  0  0  0  0  0  0  0  0  0  0
    1.9677    2.0714    4.3827 H   0  0  0  0  0  0  0  0  0  0  0  0
    4.0829    4.9548    2.4388 N   0  0  0  0  0  0  0  0  0  0  0  0
    5.2252    5.7142    1.9868 C   0  0  0  0  0  0  0  0  0  0  0  0
    3.4874    5.3714    3.1484 H   0  0  0  0  0  0  0  0  0  0  0  0
    6.0968    5.4745    2.6137 H   0  0  0  0  0  0  0  0  0  0  0  0
    5.4450    5.4577    0.9400 H   0  0  0  0  0  0  0  0  0  0  0  0
    5.0040    6.7891    2.0623 H   0  0  0  0  0  0  0  0  0  0  0  0
  1  3  1  0  0  0  0
  1  7  1  0  0  0  0
  1  2  2  0  0  0  0
 33 34  1  0  0  0  0
 34 42  1  0  0  0  0
 34 35  2  0  0  0  0
  8  9  1  0  0  0  0
  9 17  1  0  0  0  0
  9 10  2  0  0  0  0
 18 19  1  0  0  0  0
 19 32  1  0  0  0  0
 19 20  2  0  0  0  0
 22 23  1  0  0  0  0
 23 24  1  0  0  0  0
 23 25  2  0  0  0  0
 33 36  1  0  0  0  0
  8 11  1  0  0  0  0
 42 43  1  0  0  0  0
 21 22  1  0  0  0  0
 18 21  1  0  0  0  0
 32 33  1  0  0  0  0
  7  8  1  0  0  0  0
 17 18  1  0  0  0  0
  3  4  1  0  0  0  0
  3  5  1  0  0  0  0
  3  6  1  0  0  0  0
 36 39  1  0  0  0  0
 36 40  1  0  0  0  0
 36 41  1  0  0  0  0
 11 14  1  0  0  0  0
 11 15  1  0  0  0  0
 11 16  1  0  0  0  0
 43 45  1  0  0  0  0
 43 46  1  0  0  0  0
 43 47  1  0  0  0  0
 22 30  1  0  0  0  0
 22 31  1  0  0  0  0
 21 28  1  0  0  0  0
 21 29  1  0  0  0  0
 33 38  1  0  0  0  0
  8 13  1  0  0  0  0
 18 27  1  0  0  0  0
 42 44  1  0  0  0  0
  7 12  1  0  0  0  0
 32 37  1  0  0  0  0
 17 26  1  0  0  0  0
M  CHG  1  24  -1
M  END
$$$$

  -OEChem-05262214473D

 47 46  0     1  0  0  0  0  0999 V2000
    0.5093   -4.7265    3.0306 C   0  0  0  0  0  0  0  0  0  0  0  0
    1.2735   -4.4402    3.9448 O   0  0  0  0  0  0  0  0  0  0  0  0
   -0.4465   -5.8608    3.1982 C   0  0  0  0  0  0  0  0  0  0  0  0
   -0.0219   -6.8213    2.8645 H   0  0  0  0  0  0  0  0  0  0  0  0
   -0.7314   -6.0185    4.2509 H   0  0  0  0  0  0  0  0  0  0  0  0
   -1.3983   -5.7596    2.6527 H   0  0  0  0  0  0  0  0  0  0  0  0
    0.4252   -4.0886    1.8040 N   0  0  0  0  0  0  0  0  0  0  0  0
    1.2532   -2.9707    1.4349 C   0  0  2  0  0  0  0  0  0  0  0  0
    0.3395   -1.8293    1.0083 C   0  0  0  0  0  0  0  0  0  0  0  0
   -0.8136   -2.0027    0.6194 O   0  0  0  0  0  0  0  0  0  0  0  0
    2.2176   -3.3411    0.3189 C   0  0  0  0  0  0  0  0  0  0  0  0
   -0.2574   -4.4279    1.1287 H   0  0  0  0  0  0  0  0  0  0  0  0
    1.8087   -2.6785    2.3327 H   0  0  0  0  0  0  0  0  0  0  0  0
    1.6793   -3.6366   -0.5890 H   0  0  0  0  0  0  0  0  0  0  0  0
    2.8662   -2.4980    0.0589 H   0  0  0  0  0  0  0  0  0  0  0  0
    2.8538   -4.1816    0.6166 H   0  0  0  0  0  0  0  0  0  0  0  0
    0.9758   -0.5952    1.0708 N   0  0  0  0  0  0  0  0  0  0  0  0
    0.3258    0.6374    0.7059 C   0  0  2  0  0  0  0  0  0  0  0  0
    0.6557    1.6661    1.7823 C   0  0  0  0  0  0  0  0  0  0  0  0
   -0.0569    1.8590    2.7653 O   0  0  0  0  0  0  0  0  0  0  0  0
   -1.1928    0.4689    0.5761 C   0  0  0  0  0  0  0  0  0  0  0  0
   -1.6089   -0.4235   -0.5924 C   0  0  0  0  0  0  0  0  0  0  0  0
   -3.1139   -0.6535   -0.7653 C   0  0  0  0  0  0  0  0  0  0  0  0
   -3.8228   -0.1841    0.1711 O   0  5  0  0  0  0  0  0  0  0  0  0
   -3.4708   -1.2616   -1.8118 O   0  0  0  0  0  0  0  0  0  0  0  0
    1.9288   -0.5463    1.4242 H   0  0  0  0  0  0  0  0  0  0  0  0
    0.7741    0.9610   -0.2397 H   0  0  0  0  0  0  0  0  0  0  0  0
   -1.6720    1.4506    0.4744 H   0  0  0  0  0  0  0  0  0  0  0  0
   -1.5901    0.0340    1.5031 H   0  0  0  0  0  0  0  0  0  0  0  0
   -1.1962   -0.0303   -1.5291 H   0  0  0  0  0  0  0  0  0  0  0  0
   -1.1616   -1.4151   -0.4468 H   0  0  0  0  0  0  0  0  0  0  0  0
    1.8135    2.3736    1.4903 N   0  0  0  0  0  0  0  0  0  0  0  0
    2.3318    3.4155    2.3463 C   0  0  2  0  0  0  0  0  0  0  0  0
    3.3051    4.2547    1.5291 C   0  0  0  0  0  0  0  0  0  0  0  0
    3.8674    3.8364    0.5191 O   0  0  0  0  0  0  0  0  0  0  0  0
    3.0139    2.8341    3.5748 C   0  0  0  0  0  0  0  0  0  0  0  0
    2.3478    2.1350    0.6601 H   0  0  0  0  0  0  0  0  0  0  0  0
    1.4779    4.0332    2.6452 H   0  0  0  0  0  0  0  0  0  0  0  0
    3.8721    2.2121    3.2952 H   0  0  0  0  0  0  0  0  0  0  0  0
    3.3810    3.6254    4.2366 H   0  0  0  0  0  0  0  0  0  0  0  0
    2.3206    2.2067    4.1453 H   0  0  0  0  0  0  0  0  0  0  0  0
    3.5051    5.5107    2.0845 N   0  0  0  0  0  0  0  0  0  0  0  0
    4.3942    6.4884    1.5017 C   0  0  0  0  0  0  0  0  0  0  0  0
    2.9826    5.7797    2.9130 H   0  0  0  0  0  0  0  0  0  0  0  0
    5.3928    6.3917    1.9528 H   0  0  0  0  0  0  0  0  0  0  0  0
    4.4642    6.3195    0.4169 H   0  0  0  0  0  0  0  0  0  0  0  0
    4.0027    7.4988    1.6910 H   0  0  0  0  0  0  0  0  0  0  0  0
  1  3  1  0  0  0  0
  1  7  1  0  0  0  0
  1  2  2  0  0  0  0
 33 34  1  0  0  0  0
 34 42  1  0  0  0  0
 34 35  2  0  0  0  0
  8  9  1  0  0  0  0
  9 17  1  0  0  0  0
  9 10  2  0  0  0  0
 18 19  1  0  0  0  0
 19 32  1  0  0  0  0
 19 20  2  0  0  0  0
 22 23  1  0  0  0  0
 23 24  1  0  0  0  0
 23 25  2  0  0  0  0
 33 36  1  0  0  0  0
  8 11  1  0  0  0  0
 42 43  1  0  0  0  0
 21 22  1  0  0  0  0
 18 21  1  0  0  0  0
 32 33  1  0  0  0  0
  7  8  1  0  0  0  0
 17 18  1  0  0  0  0
  3  4  1  0  0  0  0
  3  5  1  0  0  0  0
  3  6  1  0  0  0  0
 36 39  1  0  0  0  0
 36 40  1  0  0  0  0
 36 41  1  0  0  0  0
 11 14  1  0  0  0  0
 11 15  1  0  0  0  0
 11 16  1  0  0  0  0
 43 45  1  0  0  0  0
 43 46  1  0  0  0  0
 43 47  1  0  0  0  0
 22 30  1  0  0  0  0
 22 31  1  0  0  0  0
 21 28  1  0  0  0  0
 21 29  1  0  0  0  0
 33 38  1  0  0  0  0
  8 13  1  0  0  0  0
 18 27  1  0  0  0  0
 42 44  1  0  0  0  0
  7 12  1  0  0  0  0
 32 37  1  0  0  0  0
 17 26  1  0  0  0  0
M  CHG  1  24  -1
M  END
$$$$

  -OEChem-05262214473D

 47 46  0     1  0  0  0  0  0999 V2000
    0.5093   -4.7265    3.0306 C   0  0  0  0  0  0  0  0  0  0  0  0
    1.2735   -4.4402    3.9448 O   0  0  0  0  0  0  0  0  0  0  0  0
   -0.4465   -5.8608    3.1982 C   0  0  0  0  0  0  0  0  0  0  0  0
   -0.0219   -6.8213    2.8645 H   0  0  0  0  0  0  0  0  0  0  0  0
   -0.7314   -6.0185    4.2509 H   0  0  0  0  0  0  0  0  0  0  0  0
   -1.3983   -5.7596    2.6527 H   0  0  0  0  0  0  0  0  0  0  0  0
    0.4252   -4.0886    1.8040 N   0  0  0  0  0  0  0  0  0  0  0  0
    1.2532   -2.9707    1.4349 C   0  0  2  0  0  0  0  0  0  0  0  0
    0.3395   -1.8293    1.0083 C   0  0  0  0  0  0  0  0  0  0  0  0
   -0.8136   -2.0027    0.6194 O   0  0  0  0  0  0  0  0  0  0  0  0
    2.2176   -3.3411    0.3189 C   0  0  0  0  0  0  0  0  0  0  0  0
   -0.2574   -4.4279    1.1287 H   0  0  0  0  0  0  0  0  0  0  0  0
    1.8087   -2.6785    2.3327 H   0  0  0  0  0  0  0  0  0  0  0  0
    1.6793   -3.6366   -0.5890 H   0  0  0  0  0  0  0  0  0  0  0  0
    2.8662   -2.4980    0.0589 H   0  0  0  0  0  0  0  0  0  0  0  0
    2.8538   -4.1816    0.6166 H   0  0  0  0  0  0  0  0  0  0  0  0
    0.9758   -0.5952    1.0708 N   0  0  0  0  0  0  0  0  0  0  0  0
    0.3258    0.6374    0.7059 C   0  0  2  0  0  0  0  0  0  0  0  0
    0.6557    1.6661    1.7823 C   0  0  0  0  0  0  0  0  0  0  0  0
    0.1087    1.6826    2.8831 O   0  0  0  0  0  0  0  0  0  0  0  0
   -1.1928    0.4689    0.5761 C   0  0  0  0  0  0  0  0  0  0  0  0
   -1.6089   -0.4235   -0.5924 C   0  0  0  0  0  0  0  0  0  0  0  0
   -3.1139   -0.6535   -0.7653 C   0  0  0  0  0  0  0  0  0  0  0  0
   -3.8228   -0.1841    0.1711 O   0  5  0  0  0  0  0  0  0  0  0  0
   -3.4708   -1.2616   -1.8118 O   0  0  0  0  0  0  0  0  0  0  0  0
    1.9288   -0.5463    1.4242 H   0  0  0  0  0  0  0  0  0  0  0  0
    0.7741    0.9610   -0.2397 H   0  0  0  0  0  0  0  0  0  0  0  0
   -1.6720    1.4506    0.4744 H   0  0  0  0  0  0  0  0  0  0  0  0
   -1.5901    0.0340    1.5031 H   0  0  0  0  0  0  0  0  0  0  0  0
   -1.1962   -0.0303   -1.5291 H   0  0  0  0  0  0  0  0  0  0  0  0
   -1.1616   -1.4151   -0.4468 H   0  0  0  0  0  0  0  0  0  0  0  0
    1.5976    2.5894    1.3503 N   0  0  0  0  0  0  0  0  0  0  0  0
    2.0678    3.6751    2.1790 C   0  0  2  0  0  0  0  0  0  0  0  0
    2.7136    4.7139    1.2716 C   0  0  0  0  0  0  0  0  0  0  0  0
    3.1503    4.4490    0.1534 O   0  0  0  0  0  0  0  0  0  0  0  0
    3.0520    3.1836    3.2290 C   0  0  0  0  0  0  0  0  0  0  0  0
    2.0078    2.4885    0.4266 H   0  0  0  0  0  0  0  0  0  0  0  0
    1.1856    4.1092    2.6621 H   0  0  0  0  0  0  0  0  0  0  0  0
    3.9426    2.7453    2.7639 H   0  0  0  0  0  0  0  0  0  0  0  0
    3.3856    4.0029    3.8745 H   0  0  0  0  0  0  0  0  0  0  0  0
    2.5953    2.4151    3.8619 H   0  0  0  0  0  0  0  0  0  0  0  0
    2.7837    5.9620    1.8743 N   0  0  0  0  0  0  0  0  0  0  0  0
    3.3654    7.1115    1.2214 C   0  0  0  0  0  0  0  0  0  0  0  0
    2.3793    6.0950    2.7966 H   0  0  0  0  0  0  0  0  0  0  0  0
    4.4298    7.1861    1.4888 H   0  0  0  0  0  0  0  0  0  0  0  0
    3.2681    7.0021    0.1312 H   0  0  0  0  0  0  0  0  0  0  0  0
    2.8411    8.0222    1.5468 H   0  0  0  0  0  0  0  0  0  0  0  0
  1  3  1  0  0  0  0
  1  7  1  0  0  0  0
  1  2  2  0  0  0  0
 33 34  1  0  0  0  0
 34 42  1  0  0  0  0
 34 35  2  0  0  0  0
  8  9  1  0  0  0  0
  9 17  1  0  0  0  0
  9 10  2  0  0  0  0
 18 19  1  0  0  0  0
 19 32  1  0  0  0  0
 19 20  2  0  0  0  0
 22 23  1  0  0  0  0
 23 24  1  0  0  0  0
 23 25  2  0  0  0  0
 33 36  1  0  0  0  0
  8 11  1  0  0  0  0
 42 43  1  0  0  0  0
 21 22  1  0  0  0  0
 18 21  1  0  0  0  0
 32 33  1  0  0  0  0
  7  8  1  0  0  0  0
 17 18  1  0  0  0  0
  3  4  1  0  0  0  0
  3  5  1  0  0  0  0
  3  6  1  0  0  0  0
 36 39  1  0  0  0  0
 36 40  1  0  0  0  0
 36 41  1  0  0  0  0
 11 14  1  0  0  0  0
 11 15  1  0  0  0  0
 11 16  1  0  0  0  0
 43 45  1  0  0  0  0
 43 46  1  0  0  0  0
 43 47  1  0  0  0  0
 22 30  1  0  0  0  0
 22 31  1  0  0  0  0
 21 28  1  0  0  0  0
 21 29  1  0  0  0  0
 33 38  1  0  0  0  0
  8 13  1  0  0  0  0
 18 27  1  0  0  0  0
 42 44  1  0  0  0  0
  7 12  1  0  0  0  0
 32 37  1  0  0  0  0
 17 26  1  0  0  0  0
M  CHG  1  24  -1
M  END
$$$$

  -OEChem-05262214473D

 47 46  0     1  0  0  0  0  0999 V2000
    0.5093   -4.7265    3.0306 C   0  0  0  0  0  0  0  0  0  0  0  0
    1.2735   -4.4402    3.9448 O   0  0  0  0  0  0  0  0  0  0  0  0
   -0.4465   -5.8608    3.1982 C   0  0  0  0  0  0  0  0  0  0  0  0
   -0.0219   -6.8213    2.8645 H   0  0  0  0  0  0  0  0  0  0  0  0
   -0.7314   -6.0185    4.2509 H   0  0  0  0  0  0  0  0  0  0  0  0
   -1.3983   -5.7596    2.6527 H   0  0  0  0  0  0  0  0  0  0  0  0
    0.4252   -4.0886    1.8040 N   0  0  0  0  0  0  0  0  0  0  0  0
    1.2532   -2.9707    1.4349 C   0  0  2  0  0  0  0  0  0  0  0  0
    0.3395   -1.8293    1.0083 C   0  0  0  0  0  0  0  0  0  0  0  0
   -0.8136   -2.0027    0.6194 O   0  0  0  0  0  0  0  0  0  0  0  0
    2.2176   -3.3411    0.3189 C   0  0  0  0  0  0  0  0  0  0  0  0
   -0.2574   -4.4279    1.1287 H   0  0  0  0  0  0  0  0  0  0  0  0
    1.8087   -2.6785    2.3327 H   0  0  0  0  0  0  0  0  0  0  0  0
    1.6793   -3.6366   -0.5890 H   0  0  0  0  0  0  0  0  0  0  0  0
    2.8662   -2.4980    0.0589 H   0  0  0  0  0  0  0  0  0  0  0  0
    2.8538   -4.1816    0.6166 H   0  0  0  0  0  0  0  0  0  0  0  0
    0.9758   -0.5952    1.0708 N   0  0  0  0  0  0  0  0  0  0  0  0
    0.3258    0.6374    0.7059 C   0  0  2  0  0  0  0  0  0  0  0  0
    0.6557    1.6661    1.7823 C   0  0  0  0  0  0  0  0  0  0  0  0
    0.3214    1.5359    2.9581 O   0  0  0  0  0  0  0  0  0  0  0  0
   -1.1928    0.4689    0.5761 C   0  0  0  0  0  0  0  0  0  0  0  0
   -1.6089   -0.4235   -0.5924 C   0  0  0  0  0  0  0  0  0  0  0  0
   -3.1139   -0.6535   -0.7653 C   0  0  0  0  0  0  0  0  0  0  0  0
   -3.8228   -0.1841    0.1711 O   0  5  0  0  0  0  0  0  0  0  0  0
   -3.4708   -1.2616   -1.8118 O   0  0  0  0  0  0  0  0  0  0  0  0
    1.9288   -0.5463    1.4242 H   0  0  0  0  0  0  0  0  0  0  0  0
    0.7741    0.9610   -0.2397 H   0  0  0  0  0  0  0  0  0  0  0  0
   -1.6720    1.4506    0.4744 H   0  0  0  0  0  0  0  0  0  0  0  0
   -1.5901    0.0340    1.5031 H   0  0  0  0  0  0  0  0  0  0  0  0
   -1.1962   -0.0303   -1.5291 H   0  0  0  0  0  0  0  0  0  0  0  0
   -1.1616   -1.4151   -0.4468 H   0  0  0  0  0  0  0  0  0  0  0  0
    1.3253    2.7662    1.2648 N   0  0  0  0  0  0  0  0  0  0  0  0
    1.7363    3.8870    2.0781 C   0  0  2  0  0  0  0  0  0  0  0  0
    2.0133    5.0637    1.1518 C   0  0  0  0  0  0  0  0  0  0  0  0
    2.2819    4.9303   -0.0403 O   0  0  0  0  0  0  0  0  0  0  0  0
    2.9646    3.5476    2.9080 C   0  0  0  0  0  0  0  0  0  0  0  0
    1.5740    2.7809    0.2801 H   0  0  0  0  0  0  0  0  0  0  0  0
    0.8924    4.1283    2.7337 H   0  0  0  0  0  0  0  0  0  0  0  0
    3.8205    3.3030    2.2683 H   0  0  0  0  0  0  0  0  0  0  0  0
    3.2578    4.3885    3.5451 H   0  0  0  0  0  0  0  0  0  0  0  0
    2.7731    2.6825    3.5519 H   0  0  0  0  0  0  0  0  0  0  0  0
    1.9677    6.2779    1.8225 N   0  0  0  0  0  0  0  0  0  0  0  0
    2.2088    7.5412    1.1653 C   0  0  0  0  0  0  0  0  0  0  0  0
    1.7186    6.2958    2.8071 H   0  0  0  0  0  0  0  0  0  0  0  0
    3.2735    7.8035    1.2532 H   0  0  0  0  0  0  0  0  0  0  0  0
    1.9381    7.4589    0.1023 H   0  0  0  0  0  0  0  0  0  0  0  0
    1.5982    8.3236    1.6397 H   0  0  0  0  0  0  0  0  0  0  0  0
  1  3  1  0  0  0  0
  1  7  1  0  0  0  0
  1  2  2  0  0  0  0
 33 34  1  0  0  0  0
 34 42  1  0  0  0  0
 34 35  2  0  0  0  0
  8  9  1  0  0  0  0
  9 17  1  0  0  0  0
  9 10  2  0  0  0  0
 18 19  1  0  0  0  0
 19 32  1  0  0  0  0
 19 20  2  0  0  0  0
 22 23  1  0  0  0  0
 23 24  1  0  0  0  0
 23 25  2  0  0  0  0
 33 36  1  0  0  0  0
  8 11  1  0  0  0  0
 42 43  1  0  0  0  0
 21 22  1  0  0  0  0
 18 21  1  0  0  0  0
 32 33  1  0  0  0  0
  7  8  1  0  0  0  0
 17 18  1  0  0  0  0
  3  4  1  0  0  0  0
  3  5  1  0  0  0  0
  3  6  1  0  0  0  0
 36 39  1  0  0  0  0
 36 40  1  0  0  0  0
 36 41  1  0  0  0  0
 11 14  1  0  0  0  0
 11 15  1  0  0  0  0
 11 16  1  0  0  0  0
 43 45  1  0  0  0  0
 43 46  1  0  0  0  0
 43 47  1  0  0  0  0
 22 30  1  0  0  0  0
 22 31  1  0  0  0  0
 21 28  1  0  0  0  0
 21 29  1  0  0  0  0
 33 38  1  0  0  0  0
  8 13  1  0  0  0  0
 18 27  1  0  0  0  0
 42 44  1  0  0  0  0
  7 12  1  0  0  0  0
 32 37  1  0  0  0  0
 17 26  1  0  0  0  0
M  CHG  1  24  -1
M  END
$$$$

  -OEChem-05262214473D

 47 46  0     1  0  0  0  0  0999 V2000
    0.5093   -4.7265    3.0306 C   0  0  0  0  0  0  0  0  0  0  0  0
    1.2735   -4.4402    3.9448 O   0  0  0  0  0  0  0  0  0  0  0  0
   -0.4465   -5.8608    3.1982 C   0  0  0  0  0  0  0  0  0  0  0  0
   -0.0219   -6.8213    2.8645 H   0  0  0  0  0  0  0  0  0  0  0  0
   -0.7314   -6.0185    4.2509 H   0  0  0  0  0  0  0  0  0  0  0  0
   -1.3983   -5.7596    2.6527 H   0  0  0  0  0  0  0  0  0  0  0  0
    0.4252   -4.0886    1.8040 N   0  0  0  0  0  0  0  0  0  0  0  0
    1.2532   -2.9707    1.4349 C   0  0  2  0  0  0  0  0  0  0  0  0
    0.3395   -1.8293    1.0083 C   0  0  0  0  0  0  0  0  0  0  0  0
   -0.8136   -2.0027    0.6194 O   0  0  0  0  0  0  0  0  0  0  0  0
    2.2176   -3.3411    0.3189 C   0  0  0  0  0  0  0  0  0  0  0  0
   -0.2574   -4.4279    1.1287 H   0  0  0  0  0  0  0  0  0  0  0  0
    1.8087   -2.6785    2.3327 H   0  0  0  0  0  0  0  0  0  0  0  0
    1.6793   -3.6366   -0.5890 H   0  0  0  0  0  0  0  0  0  0  0  0
    2.8662   -2.4980    0.0589 H   0  0  0  0  0  0  0  0  0  0  0  0
    2.8538   -4.1816    0.6166 H   0  0  0  0  0  0  0  0  0  0  0  0
    0.9758   -0.5952    1.0708 N   0  0  0  0  0  0  0  0  0  0  0  0
    0.3258    0.6374    0.7059 C   0  0  2  0  0  0  0  0  0  0  0  0
    0.6557    1.6661    1.7823 C   0  0  0  0  0  0  0  0  0  0  0  0
    0.5668    1.4288    2.9852 O   0  0  0  0  0  0  0  0  0  0  0  0
   -1.1928    0.4689    0.5761 C   0  0  0  0  0  0  0  0  0  0  0  0
   -1.6089   -0.4235   -0.5924 C   0  0  0  0  0  0  0  0  0  0  0  0
   -3.1139   -0.6535   -0.7653 C   0  0  0  0  0  0  0  0  0  0  0  0
   -3.8228   -0.1841    0.1711 O   0  5  0  0  0  0  0  0  0  0  0  0
   -3.4708   -1.2616   -1.8118 O   0  0  0  0  0  0  0  0  0  0  0  0
    1.9288   -0.5463    1.4242 H   0  0  0  0  0  0  0  0  0  0  0  0
    0.7741    0.9610   -0.2397 H   0  0  0  0  0  0  0  0  0  0  0  0
   -1.6720    1.4506    0.4744 H   0  0  0  0  0  0  0  0  0  0  0  0
   -1.5901    0.0340    1.5031 H   0  0  0  0  0  0  0  0  0  0  0  0
   -1.1962   -0.0303   -1.5291 H   0  0  0  0  0  0  0  0  0  0  0  0
   -1.1616   -1.4151   -0.4468 H   0  0  0  0  0  0  0  0  0  0  0  0
    1.0150    2.8920    1.2397 N   0  0  0  0  0  0  0  0  0  0  0  0
    1.3597    4.0368    2.0504 C   0  0  2  0  0  0  0  0  0  0  0  0
    1.2520    5.2805    1.1780 C   0  0  0  0  0  0  0  0  0  0  0  0
    1.3213    5.2473   -0.0488 O   0  0  0  0  0  0  0  0  0  0  0  0
    2.7577    3.9012    2.6335 C   0  0  0  0  0  0  0  0  0  0  0  0
    1.0760    2.9922    0.2307 H   0  0  0  0  0  0  0  0  0  0  0  0
    0.6183    4.0892    2.8551 H   0  0  0  0  0  0  0  0  0  0  0  0
    3.5142    3.8472    1.8421 H   0  0  0  0  0  0  0  0  0  0  0  0
    3.0064    4.7562    3.2708 H   0  0  0  0  0  0  0  0  0  0  0  0
    2.8418    2.9906    3.2364 H   0  0  0  0  0  0  0  0  0  0  0  0
    1.1128    6.4369    1.9327 N   0  0  0  0  0  0  0  0  0  0  0  0
    1.0034    7.7481    1.3370 C   0  0  0  0  0  0  0  0  0  0  0  0
    1.0456    6.3686    2.9439 H   0  0  0  0  0  0  0  0  0  0  0  0
    2.0027    8.2018    1.2620 H   0  0  0  0  0  0  0  0  0  0  0  0
    0.5650    7.6588    0.3321 H   0  0  0  0  0  0  0  0  0  0  0  0
    0.3589    8.3825    1.9632 H   0  0  0  0  0  0  0  0  0  0  0  0
  1  3  1  0  0  0  0
  1  7  1  0  0  0  0
  1  2  2  0  0  0  0
 33 34  1  0  0  0  0
 34 42  1  0  0  0  0
 34 35  2  0  0  0  0
  8  9  1  0  0  0  0
  9 17  1  0  0  0  0
  9 10  2  0  0  0  0
 18 19  1  0  0  0  0
 19 32  1  0  0  0  0
 19 20  2  0  0  0  0
 22 23  1  0  0  0  0
 23 24  1  0  0  0  0
 23 25  2  0  0  0  0
 33 36  1  0  0  0  0
  8 11  1  0  0  0  0
 42 43  1  0  0  0  0
 21 22  1  0  0  0  0
 18 21  1  0  0  0  0
 32 33  1  0  0  0  0
  7  8  1  0  0  0  0
 17 18  1  0  0  0  0
  3  4  1  0  0  0  0
  3  5  1  0  0  0  0
  3  6  1  0  0  0  0
 36 39  1  0  0  0  0
 36 40  1  0  0  0  0
 36 41  1  0  0  0  0
 11 14  1  0  0  0  0
 11 15  1  0  0  0  0
 11 16  1  0  0  0  0
 43 45  1  0  0  0  0
 43 46  1  0  0  0  0
 43 47  1  0  0  0  0
 22 30  1  0  0  0  0
 22 31  1  0  0  0  0
 21 28  1  0  0  0  0
 21 29  1  0  0  0  0
 33 38  1  0  0  0  0
  8 13  1  0  0  0  0
 18 27  1  0  0  0  0
 42 44  1  0  0  0  0
  7 12  1  0  0  0  0
 32 37  1  0  0  0  0
 17 26  1  0  0  0  0
M  CHG  1  24  -1
M  END
$$$$

  -OEChem-05262214473D

 47 46  0     1  0  0  0  0  0999 V2000
    0.5093   -4.7265    3.0306 C   0  0  0  0  0  0  0  0  0  0  0  0
    1.2735   -4.4402    3.9448 O   0  0  0  0  0  0  0  0  0  0  0  0
   -0.4465   -5.8608    3.1982 C   0  0  0  0  0  0  0  0  0  0  0  0
   -0.0219   -6.8213    2.8645 H   0  0  0  0  0  0  0  0  0  0  0  0
   -0.7314   -6.0185    4.2509 H   0  0  0  0  0  0  0  0  0  0  0  0
   -1.3983   -5.7596    2.6527 H   0  0  0  0  0  0  0  0  0  0  0  0
    0.4252   -4.0886    1.8040 N   0  0  0  0  0  0  0  0  0  0  0  0
    1.2532   -2.9707    1.4349 C   0  0  2  0  0  0  0  0  0  0  0  0
    0.3395   -1.8293    1.0083 C   0  0  0  0  0  0  0  0  0  0  0  0
   -0.8136   -2.0027    0.6194 O   0  0  0  0  0  0  0  0  0  0  0  0
    2.2176   -3.3411    0.3189 C   0  0  0  0  0  0  0  0  0  0  0  0
   -0.2574   -4.4279    1.1287 H   0  0  0  0  0  0  0  0  0  0  0  0
    1.8087   -2.6785    2.3327 H   0  0  0  0  0  0  0  0  0  0  0  0
    1.6793   -3.6366   -0.5890 H   0  0  0  0  0  0  0  0  0  0  0  0
    2.8662   -2.4980    0.0589 H   0  0  0  0  0  0  0  0  0  0  0  0
    2.8538   -4.1816    0.6166 H   0  0  0  0  0  0  0  0  0  0  0  0
    0.9758   -0.5952    1.0708 N   0  0  0  0  0  0  0  0  0  0  0  0
    0.3258    0.6374    0.7059 C   0  0  2  0  0  0  0  0  0  0  0  0
    0.6557    1.6661    1.7823 C   0  0  0  0  0  0  0  0  0  0  0  0
    0.8282    1.3687    2.9626 O   0  0  0  0  0  0  0  0  0  0  0  0
   -1.1928    0.4689    0.5761 C   0  0  0  0  0  0  0  0  0  0  0  0
   -1.6089   -0.4235   -0.5924 C   0  0  0  0  0  0  0  0  0  0  0  0
   -3.1139   -0.6535   -0.7653 C   0  0  0  0  0  0  0  0  0  0  0  0
   -3.8228   -0.1841    0.1711 O   0  5  0  0  0  0  0  0  0  0  0  0
   -3.4708   -1.2616   -1.8118 O   0  0  0  0  0  0  0  0  0  0  0  0
    1.9288   -0.5463    1.4242 H   0  0  0  0  0  0  0  0  0  0  0  0
    0.7741    0.9610   -0.2397 H   0  0  0  0  0  0  0  0  0  0  0  0
   -1.6720    1.4506    0.4744 H   0  0  0  0  0  0  0  0  0  0  0  0
   -1.5901    0.0340    1.5031 H   0  0  0  0  0  0  0  0  0  0  0  0
   -1.1962   -0.0303   -1.5291 H   0  0  0  0  0  0  0  0  0  0  0  0
   -1.1616   -1.4151   -0.4468 H   0  0  0  0  0  0  0  0  0  0  0  0
    0.6879    2.9582    1.2766 N   0  0  0  0  0  0  0  0  0  0  0  0
    0.9637    4.1142    2.0978 C   0  0  2  0  0  0  0  0  0  0  0  0
    0.4817    5.3493    1.3483 C   0  0  0  0  0  0  0  0  0  0  0  0
    0.3341    5.3785    0.1283 O   0  0  0  0  0  0  0  0  0  0  0  0
    2.4452    4.2203    2.4243 C   0  0  0  0  0  0  0  0  0  0  0  0
    0.5477    3.1082    0.2819 H   0  0  0  0  0  0  0  0  0  0  0  0
    0.3818    3.9945    3.0181 H   0  0  0  0  0  0  0  0  0  0  0  0
    3.0445    4.3407    1.5144 H   0  0  0  0  0  0  0  0  0  0  0  0
    2.6486    5.0807    3.0703 H   0  0  0  0  0  0  0  0  0  0  0  0
    2.7969    3.3184    2.9369 H   0  0  0  0  0  0  0  0  0  0  0  0
    0.2772    6.4281    2.1972 N   0  0  0  0  0  0  0  0  0  0  0  0
   -0.1687    7.7181    1.7250 C   0  0  0  0  0  0  0  0  0  0  0  0
    0.4061    6.3082    3.1976 H   0  0  0  0  0  0  0  0  0  0  0  0
    0.7039    8.3539    1.5147 H   0  0  0  0  0  0  0  0  0  0  0  0
   -0.7577    7.5881    0.8051 H   0  0  0  0  0  0  0  0  0  0  0  0
   -0.7925    8.1949    2.4954 H   0  0  0  0  0  0  0  0  0  0  0  0
  1  3  1  0  0  0  0
  1  7  1  0  0  0  0
  1  2  2  0  0  0  0
 33 34  1  0  0  0  0
 34 42  1  0  0  0  0
 34 35  2  0  0  0  0
  8  9  1  0  0  0  0
  9 17  1  0  0  0  0
  9 10  2  0  0  0  0
 18 19  1  0  0  0  0
 19 32  1  0  0  0  0
 19 20  2  0  0  0  0
 22 23  1  0  0  0  0
 23 24  1  0  0  0  0
 23 25  2  0  0  0  0
 33 36  1  0  0  0  0
  8 11  1  0  0  0  0
 42 43  1  0  0  0  0
 21 22  1  0  0  0  0
 18 21  1  0  0  0  0
 32 33  1  0  0  0  0
  7  8  1  0  0  0  0
 17 18  1  0  0  0  0
  3  4  1  0  0  0  0
  3  5  1  0  0  0  0
  3  6  1  0  0  0  0
 36 39  1  0  0  0  0
 36 40  1  0  0  0  0
 36 41  1  0  0  0  0
 11 14  1  0  0  0  0
 11 15  1  0  0  0  0
 11 16  1  0  0  0  0
 43 45  1  0  0  0  0
 43 46  1  0  0  0  0
 43 47  1  0  0  0  0
 22 30  1  0  0  0  0
 22 31  1  0  0  0  0
 21 28  1  0  0  0  0
 21 29  1  0  0  0  0
 33 38  1  0  0  0  0
  8 13  1  0  0  0  0
 18 27  1  0  0  0  0
 42 44  1  0  0  0  0
  7 12  1  0  0  0  0
 32 37  1  0  0  0  0
 17 26  1  0  0  0  0
M  CHG  1  24  -1
M  END
$$$$

  -OEChem-05262214473D

 47 46  0     1  0  0  0  0  0999 V2000
    0.5093   -4.7265    3.0306 C   0  0  0  0  0  0  0  0  0  0  0  0
    1.2735   -4.4402    3.9448 O   0  0  0  0  0  0  0  0  0  0  0  0
   -0.4465   -5.8608    3.1982 C   0  0  0  0  0  0  0  0  0  0  0  0
   -0.0219   -6.8213    2.8645 H   0  0  0  0  0  0  0  0  0  0  0  0
   -0.7314   -6.0185    4.2509 H   0  0  0  0  0  0  0  0  0  0  0  0
   -1.3983   -5.7596    2.6527 H   0  0  0  0  0  0  0  0  0  0  0  0
    0.4252   -4.0886    1.8040 N   0  0  0  0  0  0  0  0  0  0  0  0
    1.2532   -2.9707    1.4349 C   0  0  2  0  0  0  0  0  0  0  0  0
    0.3395   -1.8293    1.0083 C   0  0  0  0  0  0  0  0  0  0  0  0
   -0.8136   -2.0027    0.6194 O   0  0  0  0  0  0  0  0  0  0  0  0
    2.2176   -3.3411    0.3189 C   0  0  0  0  0  0  0  0  0  0  0  0
   -0.2574   -4.4279    1.1287 H   0  0  0  0  0  0  0  0  0  0  0  0
    1.8087   -2.6785    2.3327 H   0  0  0  0  0  0  0  0  0  0  0  0
    1.6793   -3.6366   -0.5890 H   0  0  0  0  0  0  0  0  0  0  0  0
    2.8662   -2.4980    0.0589 H   0  0  0  0  0  0  0  0  0  0  0  0
    2.8538   -4.1816    0.6166 H   0  0  0  0  0  0  0  0  0  0  0  0
    0.9758   -0.5952    1.0708 N   0  0  0  0  0  0  0  0  0  0  0  0
    0.3258    0.6374    0.7059 C   0  0  2  0  0  0  0  0  0  0  0  0
    0.6557    1.6661    1.7823 C   0  0  0  0  0  0  0  0  0  0  0  0
    1.0876    1.3596    2.8917 O   0  0  0  0  0  0  0  0  0  0  0  0
   -1.1928    0.4689    0.5761 C   0  0  0  0  0  0  0  0  0  0  0  0
   -1.6089   -0.4235   -0.5924 C   0  0  0  0  0  0  0  0  0  0  0  0
   -3.1139   -0.6535   -0.7653 C   0  0  0  0  0  0  0  0  0  0  0  0
   -3.8228   -0.1841    0.1711 O   0  5  0  0  0  0  0  0  0  0  0  0
   -3.4708   -1.2616   -1.8118 O   0  0  0  0  0  0  0  0  0  0  0  0
    1.9288   -0.5463    1.4242 H   0  0  0  0  0  0  0  0  0  0  0  0
    0.7741    0.9610   -0.2397 H   0  0  0  0  0  0  0  0  0  0  0  0
   -1.6720    1.4506    0.4744 H   0  0  0  0  0  0  0  0  0  0  0  0
   -1.5901    0.0340    1.5031 H   0  0  0  0  0  0  0  0  0  0  0  0
   -1.1962   -0.0303   -1.5291 H   0  0  0  0  0  0  0  0  0  0  0  0
   -1.1616   -1.4151   -0.4468 H   0  0  0  0  0  0  0  0  0  0  0  0
    0.3664    2.9604    1.3731 N   0  0  0  0  0  0  0  0  0  0  0  0
    0.5754    4.1140    2.2170 C   0  0  2  0  0  0  0  0  0  0  0  0
   -0.2452    5.2655    1.6512 C   0  0  0  0  0  0  0  0  0  0  0  0
   -0.6126    5.3150    0.4792 O   0  0  0  0  0  0  0  0  0  0  0  0
    2.0487    4.4831    2.2946 C   0  0  0  0  0  0  0  0  0  0  0  0
    0.0252    3.1208    0.4299 H   0  0  0  0  0  0  0  0  0  0  0  0
    0.1991    3.8507    3.2115 H   0  0  0  0  0  0  0  0  0  0  0  0
    2.4435    4.7500    1.3075 H   0  0  0  0  0  0  0  0  0  0  0  0
    2.2086    5.3401    2.9573 H   0  0  0  0  0  0  0  0  0  0  0  0
    2.6413    3.6436    2.6738 H   0  0  0  0  0  0  0  0  0  0  0  0
   -0.4822    6.2521    2.5981 N   0  0  0  0  0  0  0  0  0  0  0  0
   -1.2278    7.4533    2.3026 C   0  0  0  0  0  0  0  0  0  0  0  0
   -0.1563    6.1189    3.5509 H   0  0  0  0  0  0  0  0  0  0  0  0
   -0.5342    8.2494    1.9941 H   0  0  0  0  0  0  0  0  0  0  0  0
   -1.9399    7.2518    1.4888 H   0  0  0  0  0  0  0  0  0  0  0  0
   -1.7775    7.7735    3.2000 H   0  0  0  0  0  0  0  0  0  0  0  0
  1  3  1  0  0  0  0
  1  7  1  0  0  0  0
  1  2  2  0  0  0  0
 33 34  1  0  0  0  0
 34 42  1  0  0  0  0
 34 35  2  0  0  0  0
  8  9  1  0  0  0  0
  9 17  1  0  0  0  0
  9 10  2  0  0  0  0
 18 19  1  0  0  0  0
 19 32  1  0  0  0  0
 19 20  2  0  0  0  0
 22 23  1  0  0  0  0
 23 24  1  0  0  0  0
 23 25  2  0  0  0  0
 33 36  1  0  0  0  0
  8 11  1  0  0  0  0
 42 43  1  0  0  0  0
 21 22  1  0  0  0  0
 18 21  1  0  0  0  0
 32 33  1  0  0  0  0
  7  8  1  0  0  0  0
 17 18  1  0  0  0  0
  3  4  1  0  0  0  0
  3  5  1  0  0  0  0
  3  6  1  0  0  0  0
 36 39  1  0  0  0  0
 36 40  1  0  0  0  0
 36 41  1  0  0  0  0
 11 14  1  0  0  0  0
 11 15  1  0  0  0  0
 11 16  1  0  0  0  0
 43 45  1  0  0  0  0
 43 46  1  0  0  0  0
 43 47  1  0  0  0  0
 22 30  1  0  0  0  0
 22 31  1  0  0  0  0
 21 28  1  0  0  0  0
 21 29  1  0  0  0  0
 33 38  1  0  0  0  0
  8 13  1  0  0  0  0
 18 27  1  0  0  0  0
 42 44  1  0  0  0  0
  7 12  1  0  0  0  0
 32 37  1  0  0  0  0
 17 26  1  0  0  0  0
M  CHG  1  24  -1
M  END
$$$$

  -OEChem-05262214473D

 47 46  0     1  0  0  0  0  0999 V2000
    0.5093   -4.7265    3.0306 C   0  0  0  0  0  0  0  0  0  0  0  0
    1.2735   -4.4402    3.9448 O   0  0  0  0  0  0  0  0  0  0  0  0
   -0.4465   -5.8608    3.1982 C   0  0  0  0  0  0  0  0  0  0  0  0
   -0.0219   -6.8213    2.8645 H   0  0  0  0  0  0  0  0  0  0  0  0
   -0.7314   -6.0185    4.2509 H   0  0  0  0  0  0  0  0  0  0  0  0
   -1.3983   -5.7596    2.6527 H   0  0  0  0  0  0  0  0  0  0  0  0
    0.4252   -4.0886    1.8040 N   0  0  0  0  0  0  0  0  0  0  0  0
    1.2532   -2.9707    1.4349 C   0  0  2  0  0  0  0  0  0  0  0  0
    0.3395   -1.8293    1.0083 C   0  0  0  0  0  0  0  0  0  0  0  0
   -0.8136   -2.0027    0.6194 O   0  0  0  0  0  0  0  0  0  0  0  0
    2.2176   -3.3411    0.3189 C   0  0  0  0  0  0  0  0  0  0  0  0
   -0.2574   -4.4279    1.1287 H   0  0  0  0  0  0  0  0  0  0  0  0
    1.8087   -2.6785    2.3327 H   0  0  0  0  0  0  0  0  0  0  0  0
    1.6793   -3.6366   -0.5890 H   0  0  0  0  0  0  0  0  0  0  0  0
    2.8662   -2.4980    0.0589 H   0  0  0  0  0  0  0  0  0  0  0  0
    2.8538   -4.1816    0.6166 H   0  0  0  0  0  0  0  0  0  0  0  0
    0.9758   -0.5952    1.0708 N   0  0  0  0  0  0  0  0  0  0  0  0
    0.3258    0.6374    0.7059 C   0  0  2  0  0  0  0  0  0  0  0  0
    0.9432    1.7485    1.5484 C   0  0  0  0  0  0  0  0  0  0  0  0
    1.8072    1.5431    2.3985 O   0  0  0  0  0  0  0  0  0  0  0  0
   -1.1897    0.5758    0.9316 C   0  0  0  0  0  0  0  0  0  0  0  0
   -1.9046   -0.4036    0.0016 C   0  0  0  0  0  0  0  0  0  0  0  0
   -3.4198   -0.5319    0.1903 C   0  0  0  0  0  0  0  0  0  0  0  0
   -3.8738    0.0915    1.1927 O   0  5  0  0  0  0  0  0  0  0  0  0
   -4.0347   -1.2208   -0.6697 O   0  0  0  0  0  0  0  0  0  0  0  0
    1.9288   -0.5463    1.4242 H   0  0  0  0  0  0  0  0  0  0  0  0
    0.5658    0.8193   -0.3472 H   0  0  0  0  0  0  0  0  0  0  0  0
   -1.6274    1.5751    0.8155 H   0  0  0  0  0  0  0  0  0  0  0  0
   -1.3901    0.2776    1.9694 H   0  0  0  0  0  0  0  0  0  0  0  0
   -1.6935   -0.1489   -1.0438 H   0  0  0  0  0  0  0  0  0  0  0  0
   -1.4885   -1.4053    0.1685 H   0  0  0  0  0  0  0  0  0  0  0  0
    0.3816    2.9870    1.2709 N   0  0  0  0  0  0  0  0  0  0  0  0
    0.7839    4.1988    1.9466 C   0  0  2  0  0  0  0  0  0  0  0  0
   -0.3095    5.2384    1.7386 C   0  0  0  0  0  0  0  0  0  0  0  0
   -1.1122    5.1908    0.8089 O   0  0  0  0  0  0  0  0  0  0  0  0
    2.1207    4.7044    1.4269 C   0  0  0  0  0  0  0  0  0  0  0  0
   -0.3187    3.0645    0.5393 H   0  0  0  0  0  0  0  0  0  0  0  0
    0.8602    3.9563    3.0122 H   0  0  0  0  0  0  0  0  0  0  0  0
    2.0638    4.9525    0.3607 H   0  0  0  0  0  0  0  0  0  0  0  0
    2.4379    5.6069    1.9597 H   0  0  0  0  0  0  0  0  0  0  0  0
    2.8995    3.9441    1.5501 H   0  0  0  0  0  0  0  0  0  0  0  0
   -0.2562    6.2489    2.6884 N   0  0  0  0  0  0  0  0  0  0  0  0
   -1.1797    7.3594    2.6980 C   0  0  0  0  0  0  0  0  0  0  0  0
    0.4311    6.1976    3.4346 H   0  0  0  0  0  0  0  0  0  0  0  0
   -0.7519    8.1976    2.1284 H   0  0  0  0  0  0  0  0  0  0  0  0
   -2.1295    7.0501    2.2374 H   0  0  0  0  0  0  0  0  0  0  0  0
   -1.3614    7.6761    3.7356 H   0  0  0  0  0  0  0  0  0  0  0  0
  1  3  1  0  0  0  0
  1  7  1  0  0  0  0
  1  2  2  0  0  0  0
 33 34  1  0  0  0  0
 34 42  1  0  0  0  0
 34 35  2  0  0  0  0
  8  9  1  0  0  0  0
  9 17  1  0  0  0  0
  9 10  2  0  0  0  0
 18 19  1  0  0  0  0
 19 32  1  0  0  0  0
 19 20  2  0  0  0  0
 22 23  1  0  0  0  0
 23 24  1  0  0  0  0
 23 25  2  0  0  0  0
 33 36  1  0  0  0  0
  8 11  1  0  0  0  0
 42 43  1  0  0  0  0
 21 22  1  0  0  0  0
 18 21  1  0  0  0  0
 32 33  1  0  0  0  0
  7  8  1  0  0  0  0
 17 18  1  0  0  0  0
  3  4  1  0  0  0  0
  3  5  1  0  0  0  0
  3  6  1  0  0  0  0
 36 39  1  0  0  0  0
 36 40  1  0  0  0  0
 36 41  1  0  0  0  0
 11 14  1  0  0  0  0
 11 15  1  0  0  0  0
 11 16  1  0  0  0  0
 43 45  1  0  0  0  0
 43 46  1  0  0  0  0
 43 47  1  0  0  0  0
 22 30  1  0  0  0  0
 22 31  1  0  0  0  0
 21 28  1  0  0  0  0
 21 29  1  0  0  0  0
 33 38  1  0  0  0  0
  8 13  1  0  0  0  0
 18 27  1  0  0  0  0
 42 44  1  0  0  0  0
  7 12  1  0  0  0  0
 32 37  1  0  0  0  0
 17 26  1  0  0  0  0
M  CHG  1  24  -1
M  END
$$$$

  -OEChem-05262214473D

 47 46  0     1  0  0  0  0  0999 V2000
    0.5093   -4.7265    3.0306 C   0  0  0  0  0  0  0  0  0  0  0  0
    1.2735   -4.4402    3.9448 O   0  0  0  0  0  0  0  0  0  0  0  0
   -0.4465   -5.8608    3.1982 C   0  0  0  0  0  0  0  0  0  0  0  0
   -0.0219   -6.8213    2.8645 H   0  0  0  0  0  0  0  0  0  0  0  0
   -0.7314   -6.0185    4.2509 H   0  0  0  0  0  0  0  0  0  0  0  0
   -1.3983   -5.7596    2.6527 H   0  0  0  0  0  0  0  0  0  0  0  0
    0.4252   -4.0886    1.8040 N   0  0  0  0  0  0  0  0  0  0  0  0
    1.2532   -2.9707    1.4349 C   0  0  2  0  0  0  0  0  0  0  0  0
    0.3395   -1.8293    1.0083 C   0  0  0  0  0  0  0  0  0  0  0  0
   -0.8136   -2.0027    0.6194 O   0  0  0  0  0  0  0  0  0  0  0  0
    2.2176   -3.3411    0.3189 C   0  0  0  0  0  0  0  0  0  0  0  0
   -0.2574   -4.4279    1.1287 H   0  0  0  0  0  0  0  0  0  0  0  0
    1.8087   -2.6785    2.3327 H   0  0  0  0  0  0  0  0  0  0  0  0
    1.6793   -3.6366   -0.5890 H   0  0  0  0  0  0  0  0  0  0  0  0
    2.8662   -2.4980    0.0589 H   0  0  0  0  0  0  0  0  0  0  0  0
    2.8538   -4.1816    0.6166 H   0  0  0  0  0  0  0  0  0  0  0  0
    0.9758   -0.5952    1.0708 N   0  0  0  0  0  0  0  0  0  0  0  0
    0.3258    0.6374    0.7059 C   0  0  2  0  0  0  0  0  0  0  0  0
    0.9432    1.7485    1.5484 C   0  0  0  0  0  0  0  0  0  0  0  0
    1.9767    1.6012    2.1976 O   0  0  0  0  0  0  0  0  0  0  0  0
   -1.1897    0.5758    0.9316 C   0  0  0  0  0  0  0  0  0  0  0  0
   -1.9046   -0.4036    0.0016 C   0  0  0  0  0  0  0  0  0  0  0  0
   -3.4198   -0.5319    0.1903 C   0  0  0  0  0  0  0  0  0  0  0  0
   -3.8738    0.0915    1.1927 O   0  5  0  0  0  0  0  0  0  0  0  0
   -4.0347   -1.2208   -0.6697 O   0  0  0  0  0  0  0  0  0  0  0  0
    1.9288   -0.5463    1.4242 H   0  0  0  0  0  0  0  0  0  0  0  0
    0.5658    0.8193   -0.3472 H   0  0  0  0  0  0  0  0  0  0  0  0
   -1.6274    1.5751    0.8155 H   0  0  0  0  0  0  0  0  0  0  0  0
   -1.3901    0.2776    1.9694 H   0  0  0  0  0  0  0  0  0  0  0  0
   -1.6935   -0.1489   -1.0438 H   0  0  0  0  0  0  0  0  0  0  0  0
   -1.4885   -1.4053    0.1685 H   0  0  0  0  0  0  0  0  0  0  0  0
    0.1785    2.9065    1.5259 N   0  0  0  0  0  0  0  0  0  0  0  0
    0.5408    4.0990    2.2564 C   0  0  2  0  0  0  0  0  0  0  0  0
   -0.7004    4.9736    2.3744 C   0  0  0  0  0  0  0  0  0  0  0  0
   -1.6564    4.8885    1.6063 O   0  0  0  0  0  0  0  0  0  0  0  0
    1.6703    4.8484    1.5670 C   0  0  0  0  0  0  0  0  0  0  0  0
   -0.6557    2.9422    0.9474 H   0  0  0  0  0  0  0  0  0  0  0  0
    0.8562    3.7750    3.2542 H   0  0  0  0  0  0  0  0  0  0  0  0
    1.3729    5.1809    0.5658 H   0  0  0  0  0  0  0  0  0  0  0  0
    1.9630    5.7365    2.1368 H   0  0  0  0  0  0  0  0  0  0  0  0
    2.5522    4.2083    1.4562 H   0  0  0  0  0  0  0  0  0  0  0  0
   -0.5966    5.8896    3.4118 N   0  0  0  0  0  0  0  0  0  0  0  0
   -1.6396    6.8401    3.7198 C   0  0  0  0  0  0  0  0  0  0  0  0
    0.2242    5.8763    4.0099 H   0  0  0  0  0  0  0  0  0  0  0  0
   -1.4472    7.7823    3.1857 H   0  0  0  0  0  0  0  0  0  0  0  0
   -2.6116    6.4323    3.4054 H   0  0  0  0  0  0  0  0  0  0  0  0
   -1.6546    7.0294    4.8033 H   0  0  0  0  0  0  0  0  0  0  0  0
  1  3  1  0  0  0  0
  1  7  1  0  0  0  0
  1  2  2  0  0  0  0
 33 34  1  0  0  0  0
 34 42  1  0  0  0  0
 34 35  2  0  0  0  0
  8  9  1  0  0  0  0
  9 17  1  0  0  0  0
  9 10  2  0  0  0  0
 18 19  1  0  0  0  0
 19 32  1  0  0  0  0
 19 20  2  0  0  0  0
 22 23  1  0  0  0  0
 23 24  1  0  0  0  0
 23 25  2  0  0  0  0
 33 36  1  0  0  0  0
  8 11  1  0  0  0  0
 42 43  1  0  0  0  0
 21 22  1  0  0  0  0
 18 21  1  0  0  0  0
 32 33  1  0  0  0  0
  7  8  1  0  0  0  0
 17 18  1  0  0  0  0
  3  4  1  0  0  0  0
  3  5  1  0  0  0  0
  3  6  1  0  0  0  0
 36 39  1  0  0  0  0
 36 40  1  0  0  0  0
 36 41  1  0  0  0  0
 11 14  1  0  0  0  0
 11 15  1  0  0  0  0
 11 16  1  0  0  0  0
 43 45  1  0  0  0  0
 43 46  1  0  0  0  0
 43 47  1  0  0  0  0
 22 30  1  0  0  0  0
 22 31  1  0  0  0  0
 21 28  1  0  0  0  0
 21 29  1  0  0  0  0
 33 38  1  0  0  0  0
  8 13  1  0  0  0  0
 18 27  1  0  0  0  0
 42 44  1  0  0  0  0
  7 12  1  0  0  0  0
 32 37  1  0  0  0  0
 17 26  1  0  0  0  0
M  CHG  1  24  -1
M  END
$$$$

  -OEChem-05262214473D

 47 46  0     1  0  0  0  0  0999 V2000
    0.5093   -4.7265    3.0306 C   0  0  0  0  0  0  0  0  0  0  0  0
    1.2735   -4.4402    3.9448 O   0  0  0  0  0  0  0  0  0  0  0  0
   -0.4465   -5.8608    3.1982 C   0  0  0  0  0  0  0  0  0  0  0  0
   -0.0219   -6.8213    2.8645 H   0  0  0  0  0  0  0  0  0  0  0  0
   -0.7314   -6.0185    4.2509 H   0  0  0  0  0  0  0  0  0  0  0  0
   -1.3983   -5.7596    2.6527 H   0  0  0  0  0  0  0  0  0  0  0  0
    0.4252   -4.0886    1.8040 N   0  0  0  0  0  0  0  0  0  0  0  0
    1.2532   -2.9707    1.4349 C   0  0  2  0  0  0  0  0  0  0  0  0
    0.3395   -1.8293    1.0083 C   0  0  0  0  0  0  0  0  0  0  0  0
   -0.8136   -2.0027    0.6194 O   0  0  0  0  0  0  0  0  0  0  0  0
    2.2176   -3.3411    0.3189 C   0  0  0  0  0  0  0  0  0  0  0  0
   -0.2574   -4.4279    1.1287 H   0  0  0  0  0  0  0  0  0  0  0  0
    1.8087   -2.6785    2.3327 H   0  0  0  0  0  0  0  0  0  0  0  0
    1.6793   -3.6366   -0.5890 H   0  0  0  0  0  0  0  0  0  0  0  0
    2.8662   -2.4980    0.0589 H   0  0  0  0  0  0  0  0  0  0  0  0
    2.8538   -4.1816    0.6166 H   0  0  0  0  0  0  0  0  0  0  0  0
    0.9758   -0.5952    1.0708 N   0  0  0  0  0  0  0  0  0  0  0  0
    0.3258    0.6374    0.7059 C   0  0  2  0  0  0  0  0  0  0  0  0
    0.9432    1.7485    1.5484 C   0  0  0  0  0  0  0  0  0  0  0  0
    2.0942    1.7026    1.9778 O   0  0  0  0  0  0  0  0  0  0  0  0
   -1.1897    0.5758    0.9316 C   0  0  0  0  0  0  0  0  0  0  0  0
   -1.9046   -0.4036    0.0016 C   0  0  0  0  0  0  0  0  0  0  0  0
   -3.4198   -0.5319    0.1903 C   0  0  0  0  0  0  0  0  0  0  0  0
   -3.8738    0.0915    1.1927 O   0  5  0  0  0  0  0  0  0  0  0  0
   -4.0347   -1.2208   -0.6697 O   0  0  0  0  0  0  0  0  0  0  0  0
    1.9288   -0.5463    1.4242 H   0  0  0  0  0  0  0  0  0  0  0  0
    0.5658    0.8193   -0.3472 H   0  0  0  0  0  0  0  0  0  0  0  0
   -1.6274    1.5751    0.8155 H   0  0  0  0  0  0  0  0  0  0  0  0
   -1.3901    0.2776    1.9694 H   0  0  0  0  0  0  0  0  0  0  0  0
   -1.6935   -0.1489   -1.0438 H   0  0  0  0  0  0  0  0  0  0  0  0
   -1.4885   -1.4053    0.1685 H   0  0  0  0  0  0  0  0  0  0  0  0
    0.0419    2.7731    1.8020 N   0  0  0  0  0  0  0  0  0  0  0  0
    0.3787    3.9353    2.5910 C   0  0  2  0  0  0  0  0  0  0  0  0
   -0.9203    4.5952    3.0344 C   0  0  0  0  0  0  0  0  0  0  0  0
   -1.9884    4.4352    2.4475 O   0  0  0  0  0  0  0  0  0  0  0  0
    1.2411    4.9084    1.8023 C   0  0  0  0  0  0  0  0  0  0  0  0
   -0.8867    2.7332    1.3924 H   0  0  0  0  0  0  0  0  0  0  0  0
    0.9240    3.5739    3.4697 H   0  0  0  0  0  0  0  0  0  0  0  0
    0.7116    5.2813    0.9180 H   0  0  0  0  0  0  0  0  0  0  0  0
    1.5193    5.7752    2.4109 H   0  0  0  0  0  0  0  0  0  0  0  0
    2.1613    4.4236    1.4588 H   0  0  0  0  0  0  0  0  0  0  0  0
   -0.7377    5.4180    4.1371 N   0  0  0  0  0  0  0  0  0  0  0  0
   -1.8169    6.1656    4.7392 C   0  0  0  0  0  0  0  0  0  0  0  0
    0.1789    5.4761    4.5709 H   0  0  0  0  0  0  0  0  0  0  0  0
   -1.8600    7.1708    4.2945 H   0  0  0  0  0  0  0  0  0  0  0  0
   -2.7687    5.6443    4.5597 H   0  0  0  0  0  0  0  0  0  0  0  0
   -1.6440    6.2510    5.8222 H   0  0  0  0  0  0  0  0  0  0  0  0
  1  3  1  0  0  0  0
  1  7  1  0  0  0  0
  1  2  2  0  0  0  0
 33 34  1  0  0  0  0
 34 42  1  0  0  0  0
 34 35  2  0  0  0  0
  8  9  1  0  0  0  0
  9 17  1  0  0  0  0
  9 10  2  0  0  0  0
 18 19  1  0  0  0  0
 19 32  1  0  0  0  0
 19 20  2  0  0  0  0
 22 23  1  0  0  0  0
 23 24  1  0  0  0  0
 23 25  2  0  0  0  0
 33 36  1  0  0  0  0
  8 11  1  0  0  0  0
 42 43  1  0  0  0  0
 21 22  1  0  0  0  0
 18 21  1  0  0  0  0
 32 33  1  0  0  0  0
  7  8  1  0  0  0  0
 17 18  1  0  0  0  0
  3  4  1  0  0  0  0
  3  5  1  0  0  0  0
  3  6  1  0  0  0  0
 36 39  1  0  0  0  0
 36 40  1  0  0  0  0
 36 41  1  0  0  0  0
 11 14  1  0  0  0  0
 11 15  1  0  0  0  0
 11 16  1  0  0  0  0
 43 45  1  0  0  0  0
 43 46  1  0  0  0  0
 43 47  1  0  0  0  0
 22 30  1  0  0  0  0
 22 31  1  0  0  0  0
 21 28  1  0  0  0  0
 21 29  1  0  0  0  0
 33 38  1  0  0  0  0
  8 13  1  0  0  0  0
 18 27  1  0  0  0  0
 42 44  1  0  0  0  0
  7 12  1  0  0  0  0
 32 37  1  0  0  0  0
 17 26  1  0  0  0  0
M  CHG  1  24  -1
M  END
$$$$

  -OEChem-05262214473D

 47 46  0     1  0  0  0  0  0999 V2000
    0.5093   -4.7265    3.0306 C   0  0  0  0  0  0  0  0  0  0  0  0
    1.2735   -4.4402    3.9448 O   0  0  0  0  0  0  0  0  0  0  0  0
   -0.4465   -5.8608    3.1982 C   0  0  0  0  0  0  0  0  0  0  0  0
   -0.0219   -6.8213    2.8645 H   0  0  0  0  0  0  0  0  0  0  0  0
   -0.7314   -6.0185    4.2509 H   0  0  0  0  0  0  0  0  0  0  0  0
   -1.3983   -5.7596    2.6527 H   0  0  0  0  0  0  0  0  0  0  0  0
    0.4252   -4.0886    1.8040 N   0  0  0  0  0  0  0  0  0  0  0  0
    1.2532   -2.9707    1.4349 C   0  0  2  0  0  0  0  0  0  0  0  0
    0.3395   -1.8293    1.0083 C   0  0  0  0  0  0  0  0  0  0  0  0
   -0.8136   -2.0027    0.6194 O   0  0  0  0  0  0  0  0  0  0  0  0
    2.2176   -3.3411    0.3189 C   0  0  0  0  0  0  0  0  0  0  0  0
   -0.2574   -4.4279    1.1287 H   0  0  0  0  0  0  0  0  0  0  0  0
    1.8087   -2.6785    2.3327 H   0  0  0  0  0  0  0  0  0  0  0  0
    1.6793   -3.6366   -0.5890 H   0  0  0  0  0  0  0  0  0  0  0  0
    2.8662   -2.4980    0.0589 H   0  0  0  0  0  0  0  0  0  0  0  0
    2.8538   -4.1816    0.6166 H   0  0  0  0  0  0  0  0  0  0  0  0
    0.9758   -0.5952    1.0708 N   0  0  0  0  0  0  0  0  0  0  0  0
    0.3258    0.6374    0.7059 C   0  0  2  0  0  0  0  0  0  0  0  0
    0.9432    1.7485    1.5484 C   0  0  0  0  0  0  0  0  0  0  0  0
    2.1518    1.8404    1.7539 O   0  0  0  0  0  0  0  0  0  0  0  0
   -1.1897    0.5758    0.9316 C   0  0  0  0  0  0  0  0  0  0  0  0
   -1.9046   -0.4036    0.0016 C   0  0  0  0  0  0  0  0  0  0  0  0
   -3.4198   -0.5319    0.1903 C   0  0  0  0  0  0  0  0  0  0  0  0
   -3.8738    0.0915    1.1927 O   0  5  0  0  0  0  0  0  0  0  0  0
   -4.0347   -1.2208   -0.6697 O   0  0  0  0  0  0  0  0  0  0  0  0
    1.9288   -0.5463    1.4242 H   0  0  0  0  0  0  0  0  0  0  0  0
    0.5658    0.8193   -0.3472 H   0  0  0  0  0  0  0  0  0  0  0  0
   -1.6274    1.5751    0.8155 H   0  0  0  0  0  0  0  0  0  0  0  0
   -1.3901    0.2776    1.9694 H   0  0  0  0  0  0  0  0  0  0  0  0
   -1.6935   -0.1489   -1.0438 H   0  0  0  0  0  0  0  0  0  0  0  0
   -1.4885   -1.4053    0.1685 H   0  0  0  0  0  0  0  0  0  0  0  0
   -0.0189    2.5956    2.0805 N   0  0  0  0  0  0  0  0  0  0  0  0
    0.3086    3.7190    2.9276 C   0  0  2  0  0  0  0  0  0  0  0  0
   -0.9541    4.1292    3.6738 C   0  0  0  0  0  0  0  0  0  0  0  0
   -2.0857    3.8617    3.2750 O   0  0  0  0  0  0  0  0  0  0  0  0
    0.8624    4.8804    2.1169 C   0  0  0  0  0  0  0  0  0  0  0  0
   -0.9961    2.4516    1.8440 H   0  0  0  0  0  0  0  0  0  0  0  0
    1.0588    3.3668    3.6440 H   0  0  0  0  0  0  0  0  0  0  0  0
    0.1248    5.2468    1.3935 H   0  0  0  0  0  0  0  0  0  0  0  0
    1.1368    5.7205    2.7634 H   0  0  0  0  0  0  0  0  0  0  0  0
    1.7534    4.5754    1.5575 H   0  0  0  0  0  0  0  0  0  0  0  0
   -0.6698    4.8664    4.8148 N   0  0  0  0  0  0  0  0  0  0  0  0
   -1.6994    5.3820    5.6865 C   0  0  0  0  0  0  0  0  0  0  0  0
    0.2981    5.0243    5.0794 H   0  0  0  0  0  0  0  0  0  0  0  0
   -1.9622    6.4051    5.3794 H   0  0  0  0  0  0  0  0  0  0  0  0
   -2.5901    4.7397    5.6218 H   0  0  0  0  0  0  0  0  0  0  0  0
   -1.3304    5.3938    6.7227 H   0  0  0  0  0  0  0  0  0  0  0  0
  1  3  1  0  0  0  0
  1  7  1  0  0  0  0
  1  2  2  0  0  0  0
 33 34  1  0  0  0  0
 34 42  1  0  0  0  0
 34 35  2  0  0  0  0
  8  9  1  0  0  0  0
  9 17  1  0  0  0  0
  9 10  2  0  0  0  0
 18 19  1  0  0  0  0
 19 32  1  0  0  0  0
 19 20  2  0  0  0  0
 22 23  1  0  0  0  0
 23 24  1  0  0  0  0
 23 25  2  0  0  0  0
 33 36  1  0  0  0  0
  8 11  1  0  0  0  0
 42 43  1  0  0  0  0
 21 22  1  0  0  0  0
 18 21  1  0  0  0  0
 32 33  1  0  0  0  0
  7  8  1  0  0  0  0
 17 18  1  0  0  0  0
  3  4  1  0  0  0  0
  3  5  1  0  0  0  0
  3  6  1  0  0  0  0
 36 39  1  0  0  0  0
 36 40  1  0  0  0  0
 36 41  1  0  0  0  0
 11 14  1  0  0  0  0
 11 15  1  0  0  0  0
 11 16  1  0  0  0  0
 43 45  1  0  0  0  0
 43 46  1  0  0  0  0
 43 47  1  0  0  0  0
 22 30  1  0  0  0  0
 22 31  1  0  0  0  0
 21 28  1  0  0  0  0
 21 29  1  0  0  0  0
 33 38  1  0  0  0  0
  8 13  1  0  0  0  0
 18 27  1  0  0  0  0
 42 44  1  0  0  0  0
  7 12  1  0  0  0  0
 32 37  1  0  0  0  0
 17 26  1  0  0  0  0
M  CHG  1  24  -1
M  END
$$$$

  -OEChem-05262214473D

 47 46  0     1  0  0  0  0  0999 V2000
    0.5093   -4.7265    3.0306 C   0  0  0  0  0  0  0  0  0  0  0  0
    1.2735   -4.4402    3.9448 O   0  0  0  0  0  0  0  0  0  0  0  0
   -0.4465   -5.8608    3.1982 C   0  0  0  0  0  0  0  0  0  0  0  0
   -0.0219   -6.8213    2.8645 H   0  0  0  0  0  0  0  0  0  0  0  0
   -0.7314   -6.0185    4.2509 H   0  0  0  0  0  0  0  0  0  0  0  0
   -1.3983   -5.7596    2.6527 H   0  0  0  0  0  0  0  0  0  0  0  0
    0.4252   -4.0886    1.8040 N   0  0  0  0  0  0  0  0  0  0  0  0
    1.2532   -2.9707    1.4349 C   0  0  2  0  0  0  0  0  0  0  0  0
    0.3395   -1.8293    1.0083 C   0  0  0  0  0  0  0  0  0  0  0  0
   -0.8136   -2.0027    0.6194 O   0  0  0  0  0  0  0  0  0  0  0  0
    2.2176   -3.3411    0.3189 C   0  0  0  0  0  0  0  0  0  0  0  0
   -0.2574   -4.4279    1.1287 H   0  0  0  0  0  0  0  0  0  0  0  0
    1.8087   -2.6785    2.3327 H   0  0  0  0  0  0  0  0  0  0  0  0
    1.6793   -3.6366   -0.5890 H   0  0  0  0  0  0  0  0  0  0  0  0
    2.8662   -2.4980    0.0589 H   0  0  0  0  0  0  0  0  0  0  0  0
    2.8538   -4.1816    0.6166 H   0  0  0  0  0  0  0  0  0  0  0  0
    0.9758   -0.5952    1.0708 N   0  0  0  0  0  0  0  0  0  0  0  0
    0.3258    0.6374    0.7059 C   0  0  2  0  0  0  0  0  0  0  0  0
    0.9432    1.7485    1.5484 C   0  0  0  0  0  0  0  0  0  0  0  0
    2.1454    2.0051    1.5413 O   0  0  0  0  0  0  0  0  0  0  0  0
   -1.1897    0.5758    0.9316 C   0  0  0  0  0  0  0  0  0  0  0  0
   -1.9046   -0.4036    0.0016 C   0  0  0  0  0  0  0  0  0  0  0  0
   -3.4198   -0.5319    0.1903 C   0  0  0  0  0  0  0  0  0  0  0  0
   -3.8738    0.0915    1.1927 O   0  5  0  0  0  0  0  0  0  0  0  0
   -4.0347   -1.2208   -0.6697 O   0  0  0  0  0  0  0  0  0  0  0  0
    1.9288   -0.5463    1.4242 H   0  0  0  0  0  0  0  0  0  0  0  0
    0.5658    0.8193   -0.3472 H   0  0  0  0  0  0  0  0  0  0  0  0
   -1.6274    1.5751    0.8155 H   0  0  0  0  0  0  0  0  0  0  0  0
   -1.3901    0.2776    1.9694 H   0  0  0  0  0  0  0  0  0  0  0  0
   -1.6935   -0.1489   -1.0438 H   0  0  0  0  0  0  0  0  0  0  0  0
   -1.4885   -1.4053    0.1685 H   0  0  0  0  0  0  0  0  0  0  0  0
    0.0003    2.3864    2.3424 N   0  0  0  0  0  0  0  0  0  0  0  0
    0.3353    3.4648    3.2433 C   0  0  2  0  0  0  0  0  0  0  0  0
   -0.7995    3.6072    4.2489 C   0  0  0  0  0  0  0  0  0  0  0  0
   -1.9416    3.2072    4.0327 O   0  0  0  0  0  0  0  0  0  0  0  0
    0.5599    4.7662    2.4892 C   0  0  0  0  0  0  0  0  0  0  0  0
   -0.9763    2.1166    2.2712 H   0  0  0  0  0  0  0  0  0  0  0  0
    1.2515    3.1678    3.7653 H   0  0  0  0  0  0  0  0  0  0  0  0
   -0.3473    5.0797    1.9599 H   0  0  0  0  0  0  0  0  0  0  0  0
    0.8416    5.5759    3.1704 H   0  0  0  0  0  0  0  0  0  0  0  0
    1.3563    4.6534    1.7457 H   0  0  0  0  0  0  0  0  0  0  0  0
   -0.3975    4.2722    5.3989 N   0  0  0  0  0  0  0  0  0  0  0  0
   -1.2953    4.5426    6.4974 C   0  0  0  0  0  0  0  0  0  0  0  0
    0.5738    4.5516    5.5007 H   0  0  0  0  0  0  0  0  0  0  0  0
   -1.7469    5.5371    6.3662 H   0  0  0  0  0  0  0  0  0  0  0  0
   -2.0879    3.7802    6.5192 H   0  0  0  0  0  0  0  0  0  0  0  0
   -0.7351    4.5164    7.4436 H   0  0  0  0  0  0  0  0  0  0  0  0
  1  3  1  0  0  0  0
  1  7  1  0  0  0  0
  1  2  2  0  0  0  0
 33 34  1  0  0  0  0
 34 42  1  0  0  0  0
 34 35  2  0  0  0  0
  8  9  1  0  0  0  0
  9 17  1  0  0  0  0
  9 10  2  0  0  0  0
 18 19  1  0  0  0  0
 19 32  1  0  0  0  0
 19 20  2  0  0  0  0
 22 23  1  0  0  0  0
 23 24  1  0  0  0  0
 23 25  2  0  0  0  0
 33 36  1  0  0  0  0
  8 11  1  0  0  0  0
 42 43  1  0  0  0  0
 21 22  1  0  0  0  0
 18 21  1  0  0  0  0
 32 33  1  0  0  0  0
  7  8  1  0  0  0  0
 17 18  1  0  0  0  0
  3  4  1  0  0  0  0
  3  5  1  0  0  0  0
  3  6  1  0  0  0  0
 36 39  1  0  0  0  0
 36 40  1  0  0  0  0
 36 41  1  0  0  0  0
 11 14  1  0  0  0  0
 11 15  1  0  0  0  0
 11 16  1  0  0  0  0
 43 45  1  0  0  0  0
 43 46  1  0  0  0  0
 43 47  1  0  0  0  0
 22 30  1  0  0  0  0
 22 31  1  0  0  0  0
 21 28  1  0  0  0  0
 21 29  1  0  0  0  0
 33 38  1  0  0  0  0
  8 13  1  0  0  0  0
 18 27  1  0  0  0  0
 42 44  1  0  0  0  0
  7 12  1  0  0  0  0
 32 37  1  0  0  0  0
 17 26  1  0  0  0  0
M  CHG  1  24  -1
M  END
$$$$

  -OEChem-05262214473D

 47 46  0     1  0  0  0  0  0999 V2000
    0.5093   -4.7265    3.0306 C   0  0  0  0  0  0  0  0  0  0  0  0
    1.2735   -4.4402    3.9448 O   0  0  0  0  0  0  0  0  0  0  0  0
   -0.4465   -5.8608    3.1982 C   0  0  0  0  0  0  0  0  0  0  0  0
   -0.0219   -6.8213    2.8645 H   0  0  0  0  0  0  0  0  0  0  0  0
   -0.7314   -6.0185    4.2509 H   0  0  0  0  0  0  0  0  0  0  0  0
   -1.3983   -5.7596    2.6527 H   0  0  0  0  0  0  0  0  0  0  0  0
    0.4252   -4.0886    1.8040 N   0  0  0  0  0  0  0  0  0  0  0  0
    1.2532   -2.9707    1.4349 C   0  0  2  0  0  0  0  0  0  0  0  0
    0.3395   -1.8293    1.0083 C   0  0  0  0  0  0  0  0  0  0  0  0
   -0.8136   -2.0027    0.6194 O   0  0  0  0  0  0  0  0  0  0  0  0
    2.2176   -3.3411    0.3189 C   0  0  0  0  0  0  0  0  0  0  0  0
   -0.2574   -4.4279    1.1287 H   0  0  0  0  0  0  0  0  0  0  0  0
    1.8087   -2.6785    2.3327 H   0  0  0  0  0  0  0  0  0  0  0  0
    1.6793   -3.6366   -0.5890 H   0  0  0  0  0  0  0  0  0  0  0  0
    2.8662   -2.4980    0.0589 H   0  0  0  0  0  0  0  0  0  0  0  0
    2.8538   -4.1816    0.6166 H   0  0  0  0  0  0  0  0  0  0  0  0
    0.9758   -0.5952    1.0708 N   0  0  0  0  0  0  0  0  0  0  0  0
    0.3258    0.6374    0.7059 C   0  0  2  0  0  0  0  0  0  0  0  0
    0.9432    1.7485    1.5484 C   0  0  0  0  0  0  0  0  0  0  0  0
    2.0757    2.1857    1.3543 O   0  0  0  0  0  0  0  0  0  0  0  0
   -1.1897    0.5758    0.9316 C   0  0  0  0  0  0  0  0  0  0  0  0
   -1.9046   -0.4036    0.0016 C   0  0  0  0  0  0  0  0  0  0  0  0
   -3.4198   -0.5319    0.1903 C   0  0  0  0  0  0  0  0  0  0  0  0
   -3.8738    0.0915    1.1927 O   0  5  0  0  0  0  0  0  0  0  0  0
   -4.0347   -1.2208   -0.6697 O   0  0  0  0  0  0  0  0  0  0  0  0
    1.9288   -0.5463    1.4242 H   0  0  0  0  0  0  0  0  0  0  0  0
    0.5658    0.8193   -0.3472 H   0  0  0  0  0  0  0  0  0  0  0  0
   -1.6274    1.5751    0.8155 H   0  0  0  0  0  0  0  0  0  0  0  0
   -1.3901    0.2776    1.9694 H   0  0  0  0  0  0  0  0  0  0  0  0
   -1.6935   -0.1489   -1.0438 H   0  0  0  0  0  0  0  0  0  0  0  0
   -1.4885   -1.4053    0.1685 H   0  0  0  0  0  0  0  0  0  0  0  0
    0.0981    2.1596    2.5698 N   0  0  0  0  0  0  0  0  0  0  0  0
    0.4570    3.1900    3.5166 C   0  0  2  0  0  0  0  0  0  0  0  0
   -0.4672    3.0648    4.7206 C   0  0  0  0  0  0  0  0  0  0  0  0
   -1.5659    2.5161    4.6687 O   0  0  0  0  0  0  0  0  0  0  0  0
    0.3542    4.5736    2.8939 C   0  0  0  0  0  0  0  0  0  0  0  0
   -0.8288    1.7512    2.6451 H   0  0  0  0  0  0  0  0  0  0  0  0
    1.4890    2.9904    3.8252 H   0  0  0  0  0  0  0  0  0  0  0  0
   -0.6727    4.7915    2.5784 H   0  0  0  0  0  0  0  0  0  0  0  0
    0.6539    5.3515    3.6039 H   0  0  0  0  0  0  0  0  0  0  0  0
    0.9970    4.6522    2.0105 H   0  0  0  0  0  0  0  0  0  0  0  0
    0.0607    3.6760    5.8494 N   0  0  0  0  0  0  0  0  0  0  0  0
   -0.6320    3.7047    7.1164 C   0  0  0  0  0  0  0  0  0  0  0  0
    0.9871    4.0903    5.8062 H   0  0  0  0  0  0  0  0  0  0  0  0
   -1.2286    4.6260    7.1879 H   0  0  0  0  0  0  0  0  0  0  0  0
   -1.2964    2.8311    7.1908 H   0  0  0  0  0  0  0  0  0  0  0  0
    0.1014    3.6783    7.9358 H   0  0  0  0  0  0  0  0  0  0  0  0
  1  3  1  0  0  0  0
  1  7  1  0  0  0  0
  1  2  2  0  0  0  0
 33 34  1  0  0  0  0
 34 42  1  0  0  0  0
 34 35  2  0  0  0  0
  8  9  1  0  0  0  0
  9 17  1  0  0  0  0
  9 10  2  0  0  0  0
 18 19  1  0  0  0  0
 19 32  1  0  0  0  0
 19 20  2  0  0  0  0
 22 23  1  0  0  0  0
 23 24  1  0  0  0  0
 23 25  2  0  0  0  0
 33 36  1  0  0  0  0
  8 11  1  0  0  0  0
 42 43  1  0  0  0  0
 21 22  1  0  0  0  0
 18 21  1  0  0  0  0
 32 33  1  0  0  0  0
  7  8  1  0  0  0  0
 17 18  1  0  0  0  0
  3  4  1  0  0  0  0
  3  5  1  0  0  0  0
  3  6  1  0  0  0  0
 36 39  1  0  0  0  0
 36 40  1  0  0  0  0
 36 41  1  0  0  0  0
 11 14  1  0  0  0  0
 11 15  1  0  0  0  0
 11 16  1  0  0  0  0
 43 45  1  0  0  0  0
 43 46  1  0  0  0  0
 43 47  1  0  0  0  0
 22 30  1  0  0  0  0
 22 31  1  0  0  0  0
 21 28  1  0  0  0  0
 21 29  1  0  0  0  0
 33 38  1  0  0  0  0
  8 13  1  0  0  0  0
 18 27  1  0  0  0  0
 42 44  1  0  0  0  0
  7 12  1  0  0  0  0
 32 37  1  0  0  0  0
 17 26  1  0  0  0  0
M  CHG  1  24  -1
M  END
$$$$

  -OEChem-05262214473D

 47 46  0     1  0  0  0  0  0999 V2000
    0.5093   -4.7265    3.0306 C   0  0  0  0  0  0  0  0  0  0  0  0
    1.2735   -4.4402    3.9448 O   0  0  0  0  0  0  0  0  0  0  0  0
   -0.4465   -5.8608    3.1982 C   0  0  0  0  0  0  0  0  0  0  0  0
   -0.0219   -6.8213    2.8645 H   0  0  0  0  0  0  0  0  0  0  0  0
   -0.7314   -6.0185    4.2509 H   0  0  0  0  0  0  0  0  0  0  0  0
   -1.3983   -5.7596    2.6527 H   0  0  0  0  0  0  0  0  0  0  0  0
    0.4252   -4.0886    1.8040 N   0  0  0  0  0  0  0  0  0  0  0  0
    1.2532   -2.9707    1.4349 C   0  0  2  0  0  0  0  0  0  0  0  0
    0.3395   -1.8293    1.0083 C   0  0  0  0  0  0  0  0  0  0  0  0
   -0.8136   -2.0027    0.6194 O   0  0  0  0  0  0  0  0  0  0  0  0
    2.2176   -3.3411    0.3189 C   0  0  0  0  0  0  0  0  0  0  0  0
   -0.2574   -4.4279    1.1287 H   0  0  0  0  0  0  0  0  0  0  0  0
    1.8087   -2.6785    2.3327 H   0  0  0  0  0  0  0  0  0  0  0  0
    1.6793   -3.6366   -0.5890 H   0  0  0  0  0  0  0  0  0  0  0  0
    2.8662   -2.4980    0.0589 H   0  0  0  0  0  0  0  0  0  0  0  0
    2.8538   -4.1816    0.6166 H   0  0  0  0  0  0  0  0  0  0  0  0
    0.9758   -0.5952    1.0708 N   0  0  0  0  0  0  0  0  0  0  0  0
    0.3258    0.6374    0.7059 C   0  0  2  0  0  0  0  0  0  0  0  0
    0.9432    1.7485    1.5484 C   0  0  0  0  0  0  0  0  0  0  0  0
    1.9472    2.3697    1.2058 O   0  0  0  0  0  0  0  0  0  0  0  0
   -1.1897    0.5758    0.9316 C   0  0  0  0  0  0  0  0  0  0  0  0
   -1.9046   -0.4036    0.0016 C   0  0  0  0  0  0  0  0  0  0  0  0
   -3.4198   -0.5319    0.1903 C   0  0  0  0  0  0  0  0  0  0  0  0
   -3.8738    0.0915    1.1927 O   0  5  0  0  0  0  0  0  0  0  0  0
   -4.0347   -1.2208   -0.6697 O   0  0  0  0  0  0  0  0  0  0  0  0
    1.9288   -0.5463    1.4242 H   0  0  0  0  0  0  0  0  0  0  0  0
    0.5658    0.8193   -0.3472 H   0  0  0  0  0  0  0  0  0  0  0  0
   -1.6274    1.5751    0.8155 H   0  0  0  0  0  0  0  0  0  0  0  0
   -1.3901    0.2776    1.9694 H   0  0  0  0  0  0  0  0  0  0  0  0
   -1.6935   -0.1489   -1.0438 H   0  0  0  0  0  0  0  0  0  0  0  0
   -1.4885   -1.4053    0.1685 H   0  0  0  0  0  0  0  0  0  0  0  0
    0.2680    1.9307    2.7473 N   0  0  0  0  0  0  0  0  0  0  0  0
    0.6654    2.9133    3.7288 C   0  0  2  0  0  0  0  0  0  0  0  0
    0.0204    2.5391    5.0567 C   0  0  0  0  0  0  0  0  0  0  0  0
   -0.9843    1.8356    5.1399 O   0  0  0  0  0  0  0  0  0  0  0  0
    0.2594    4.3158    3.3034 C   0  0  0  0  0  0  0  0  0  0  0  0
   -0.5635    1.3801    2.9401 H   0  0  0  0  0  0  0  0  0  0  0  0
    1.7550    2.8467    3.8197 H   0  0  0  0  0  0  0  0  0  0  0  0
   -0.8291    4.4018    3.2071 H   0  0  0  0  0  0  0  0  0  0  0  0
    0.5864    5.0624    4.0346 H   0  0  0  0  0  0  0  0  0  0  0  0
    0.7001    4.5719    2.3340 H   0  0  0  0  0  0  0  0  0  0  0  0
    0.6734    3.1184    6.1357 N   0  0  0  0  0  0  0  0  0  0  0  0
    0.2452    2.9252    7.5014 C   0  0  0  0  0  0  0  0  0  0  0  0
    1.5099    3.6718    5.9750 H   0  0  0  0  0  0  0  0  0  0  0  0
   -0.4429    3.7340    7.7884 H   0  0  0  0  0  0  0  0  0  0  0  0
   -0.2695    1.9572    7.5907 H   0  0  0  0  0  0  0  0  0  0  0  0
    1.1220    2.9369    8.1656 H   0  0  0  0  0  0  0  0  0  0  0  0
  1  3  1  0  0  0  0
  1  7  1  0  0  0  0
  1  2  2  0  0  0  0
 33 34  1  0  0  0  0
 34 42  1  0  0  0  0
 34 35  2  0  0  0  0
  8  9  1  0  0  0  0
  9 17  1  0  0  0  0
  9 10  2  0  0  0  0
 18 19  1  0  0  0  0
 19 32  1  0  0  0  0
 19 20  2  0  0  0  0
 22 23  1  0  0  0  0
 23 24  1  0  0  0  0
 23 25  2  0  0  0  0
 33 36  1  0  0  0  0
  8 11  1  0  0  0  0
 42 43  1  0  0  0  0
 21 22  1  0  0  0  0
 18 21  1  0  0  0  0
 32 33  1  0  0  0  0
  7  8  1  0  0  0  0
 17 18  1  0  0  0  0
  3  4  1  0  0  0  0
  3  5  1  0  0  0  0
  3  6  1  0  0  0  0
 36 39  1  0  0  0  0
 36 40  1  0  0  0  0
 36 41  1  0  0  0  0
 11 14  1  0  0  0  0
 11 15  1  0  0  0  0
 11 16  1  0  0  0  0
 43 45  1  0  0  0  0
 43 46  1  0  0  0  0
 43 47  1  0  0  0  0
 22 30  1  0  0  0  0
 22 31  1  0  0  0  0
 21 28  1  0  0  0  0
 21 29  1  0  0  0  0
 33 38  1  0  0  0  0
  8 13  1  0  0  0  0
 18 27  1  0  0  0  0
 42 44  1  0  0  0  0
  7 12  1  0  0  0  0
 32 37  1  0  0  0  0
 17 26  1  0  0  0  0
M  CHG  1  24  -1
M  END
$$$$

  -OEChem-05262214473D

 47 46  0     1  0  0  0  0  0999 V2000
    0.5093   -4.7265    3.0306 C   0  0  0  0  0  0  0  0  0  0  0  0
    1.2735   -4.4402    3.9448 O   0  0  0  0  0  0  0  0  0  0  0  0
   -0.4465   -5.8608    3.1982 C   0  0  0  0  0  0  0  0  0  0  0  0
   -0.0219   -6.8213    2.8645 H   0  0  0  0  0  0  0  0  0  0  0  0
   -0.7314   -6.0185    4.2509 H   0  0  0  0  0  0  0  0  0  0  0  0
   -1.3983   -5.7596    2.6527 H   0  0  0  0  0  0  0  0  0  0  0  0
    0.4252   -4.0886    1.8040 N   0  0  0  0  0  0  0  0  0  0  0  0
    1.2532   -2.9707    1.4349 C   0  0  2  0  0  0  0  0  0  0  0  0
    0.3395   -1.8293    1.0083 C   0  0  0  0  0  0  0  0  0  0  0  0
   -0.8136   -2.0027    0.6194 O   0  0  0  0  0  0  0  0  0  0  0  0
    2.2176   -3.3411    0.3189 C   0  0  0  0  0  0  0  0  0  0  0  0
   -0.2574   -4.4279    1.1287 H   0  0  0  0  0  0  0  0  0  0  0  0
    1.8087   -2.6785    2.3327 H   0  0  0  0  0  0  0  0  0  0  0  0
    1.6793   -3.6366   -0.5890 H   0  0  0  0  0  0  0  0  0  0  0  0
    2.8662   -2.4980    0.0589 H   0  0  0  0  0  0  0  0  0  0  0  0
    2.8538   -4.1816    0.6166 H   0  0  0  0  0  0  0  0  0  0  0  0
    0.9758   -0.5952    1.0708 N   0  0  0  0  0  0  0  0  0  0  0  0
    0.3258    0.6374    0.7059 C   0  0  2  0  0  0  0  0  0  0  0  0
    0.9432    1.7485    1.5484 C   0  0  0  0  0  0  0  0  0  0  0  0
    1.7688    2.5446    1.1058 O   0  0  0  0  0  0  0  0  0  0  0  0
   -1.1897    0.5758    0.9316 C   0  0  0  0  0  0  0  0  0  0  0  0
   -1.9046   -0.4036    0.0016 C   0  0  0  0  0  0  0  0  0  0  0  0
   -3.4198   -0.5319    0.1903 C   0  0  0  0  0  0  0  0  0  0  0  0
   -3.8738    0.0915    1.1927 O   0  5  0  0  0  0  0  0  0  0  0  0
   -4.0347   -1.2208   -0.6697 O   0  0  0  0  0  0  0  0  0  0  0  0
    1.9288   -0.5463    1.4242 H   0  0  0  0  0  0  0  0  0  0  0  0
    0.5658    0.8193   -0.3472 H   0  0  0  0  0  0  0  0  0  0  0  0
   -1.6274    1.5751    0.8155 H   0  0  0  0  0  0  0  0  0  0  0  0
   -1.3901    0.2776    1.9694 H   0  0  0  0  0  0  0  0  0  0  0  0
   -1.6935   -0.1489   -1.0438 H   0  0  0  0  0  0  0  0  0  0  0  0
   -1.4885   -1.4053    0.1685 H   0  0  0  0  0  0  0  0  0  0  0  0
    0.4982    1.7152    2.8627 N   0  0  0  0  0  0  0  0  0  0  0  0
    0.9462    2.6535    3.8655 C   0  0  2  0  0  0  0  0  0  0  0  0
    0.6299    2.0657    5.2344 C   0  0  0  0  0  0  0  0  0  0  0  0
   -0.2363    1.2122    5.4140 O   0  0  0  0  0  0  0  0  0  0  0  0
    0.2819    4.0102    3.6899 C   0  0  0  0  0  0  0  0  0  0  0  0
   -0.1986    1.0286    3.1361 H   0  0  0  0  0  0  0  0  0  0  0  0
    2.0315    2.7465    3.7492 H   0  0  0  0  0  0  0  0  0  0  0  0
   -0.8059    3.9371    3.8029 H   0  0  0  0  0  0  0  0  0  0  0  0
    0.6438    4.7284    4.4330 H   0  0  0  0  0  0  0  0  0  0  0  0
    0.4858    4.4181    2.6939 H   0  0  0  0  0  0  0  0  0  0  0  0
    1.3990    2.6374    6.2382 N   0  0  0  0  0  0  0  0  0  0  0  0
    1.2766    2.2574    7.6263 C   0  0  0  0  0  0  0  0  0  0  0  0
    2.1065    3.3246    5.9956 H   0  0  0  0  0  0  0  0  0  0  0  0
    0.5569    2.9218    8.1268 H   0  0  0  0  0  0  0  0  0  0  0  0
    0.9228    1.2179    7.6919 H   0  0  0  0  0  0  0  0  0  0  0  0
    2.2572    2.3426    8.1174 H   0  0  0  0  0  0  0  0  0  0  0  0
  1  3  1  0  0  0  0
  1  7  1  0  0  0  0
  1  2  2  0  0  0  0
 33 34  1  0  0  0  0
 34 42  1  0  0  0  0
 34 35  2  0  0  0  0
  8  9  1  0  0  0  0
  9 17  1  0  0  0  0
  9 10  2  0  0  0  0
 18 19  1  0  0  0  0
 19 32  1  0  0  0  0
 19 20  2  0  0  0  0
 22 23  1  0  0  0  0
 23 24  1  0  0  0  0
 23 25  2  0  0  0  0
 33 36  1  0  0  0  0
  8 11  1  0  0  0  0
 42 43  1  0  0  0  0
 21 22  1  0  0  0  0
 18 21  1  0  0  0  0
 32 33  1  0  0  0  0
  7  8  1  0  0  0  0
 17 18  1  0  0  0  0
  3  4  1  0  0  0  0
  3  5  1  0  0  0  0
  3  6  1  0  0  0  0
 36 39  1  0  0  0  0
 36 40  1  0  0  0  0
 36 41  1  0  0  0  0
 11 14  1  0  0  0  0
 11 15  1  0  0  0  0
 11 16  1  0  0  0  0
 43 45  1  0  0  0  0
 43 46  1  0  0  0  0
 43 47  1  0  0  0  0
 22 30  1  0  0  0  0
 22 31  1  0  0  0  0
 21 28  1  0  0  0  0
 21 29  1  0  0  0  0
 33 38  1  0  0  0  0
  8 13  1  0  0  0  0
 18 27  1  0  0  0  0
 42 44  1  0  0  0  0
  7 12  1  0  0  0  0
 32 37  1  0  0  0  0
 17 26  1  0  0  0  0
M  CHG  1  24  -1
M  END
$$$$

  -OEChem-05262214473D

 47 46  0     1  0  0  0  0  0999 V2000
    0.5093   -4.7265    3.0306 C   0  0  0  0  0  0  0  0  0  0  0  0
    1.2735   -4.4402    3.9448 O   0  0  0  0  0  0  0  0  0  0  0  0
   -0.4465   -5.8608    3.1982 C   0  0  0  0  0  0  0  0  0  0  0  0
   -0.0219   -6.8213    2.8645 H   0  0  0  0  0  0  0  0  0  0  0  0
   -0.7314   -6.0185    4.2509 H   0  0  0  0  0  0  0  0  0  0  0  0
   -1.3983   -5.7596    2.6527 H   0  0  0  0  0  0  0  0  0  0  0  0
    0.4252   -4.0886    1.8040 N   0  0  0  0  0  0  0  0  0  0  0  0
    1.2532   -2.9707    1.4349 C   0  0  2  0  0  0  0  0  0  0  0  0
    0.3395   -1.8293    1.0083 C   0  0  0  0  0  0  0  0  0  0  0  0
   -0.8136   -2.0027    0.6194 O   0  0  0  0  0  0  0  0  0  0  0  0
    2.2176   -3.3411    0.3189 C   0  0  0  0  0  0  0  0  0  0  0  0
   -0.2574   -4.4279    1.1287 H   0  0  0  0  0  0  0  0  0  0  0  0
    1.8087   -2.6785    2.3327 H   0  0  0  0  0  0  0  0  0  0  0  0
    1.6793   -3.6366   -0.5890 H   0  0  0  0  0  0  0  0  0  0  0  0
    2.8662   -2.4980    0.0589 H   0  0  0  0  0  0  0  0  0  0  0  0
    2.8538   -4.1816    0.6166 H   0  0  0  0  0  0  0  0  0  0  0  0
    0.9758   -0.5952    1.0708 N   0  0  0  0  0  0  0  0  0  0  0  0
    0.3258    0.6374    0.7059 C   0  0  2  0  0  0  0  0  0  0  0  0
    0.9432    1.7485    1.5484 C   0  0  0  0  0  0  0  0  0  0  0  0
    1.5526    2.6985    1.0613 O   0  0  0  0  0  0  0  0  0  0  0  0
   -1.1897    0.5758    0.9316 C   0  0  0  0  0  0  0  0  0  0  0  0
   -1.9046   -0.4036    0.0016 C   0  0  0  0  0  0  0  0  0  0  0  0
   -3.4198   -0.5319    0.1903 C   0  0  0  0  0  0  0  0  0  0  0  0
   -3.8738    0.0915    1.1927 O   0  5  0  0  0  0  0  0  0  0  0  0
   -4.0347   -1.2208   -0.6697 O   0  0  0  0  0  0  0  0  0  0  0  0
    1.9288   -0.5463    1.4242 H   0  0  0  0  0  0  0  0  0  0  0  0
    0.5658    0.8193   -0.3472 H   0  0  0  0  0  0  0  0  0  0  0  0
   -1.6274    1.5751    0.8155 H   0  0  0  0  0  0  0  0  0  0  0  0
   -1.3901    0.2776    1.9694 H   0  0  0  0  0  0  0  0  0  0  0  0
   -1.6935   -0.1489   -1.0438 H   0  0  0  0  0  0  0  0  0  0  0  0
   -1.4885   -1.4053    0.1685 H   0  0  0  0  0  0  0  0  0  0  0  0
    0.7731    1.5280    2.9082 N   0  0  0  0  0  0  0  0  0  0  0  0
    1.2804    2.4285    3.9173 C   0  0  2  0  0  0  0  0  0  0  0  0
    1.3198    1.6770    5.2414 C   0  0  0  0  0  0  0  0  0  0  0  0
    0.6270    0.6882    5.4723 O   0  0  0  0  0  0  0  0  0  0  0  0
    0.4202    3.6778    4.0269 C   0  0  0  0  0  0  0  0  0  0  0  0
    0.2411    0.7208    3.2198 H   0  0  0  0  0  0  0  0  0  0  0  0
    2.2996    2.6967    3.6184 H   0  0  0  0  0  0  0  0  0  0  0  0
   -0.6047    3.4290    4.3254 H   0  0  0  0  0  0  0  0  0  0  0  0
    0.8222    4.3722    4.7721 H   0  0  0  0  0  0  0  0  0  0  0  0
    0.3687    4.2011    3.0660 H   0  0  0  0  0  0  0  0  0  0  0  0
    2.1879    2.2658    6.1501 N   0  0  0  0  0  0  0  0  0  0  0  0
    2.3919    1.7467    7.4824 C   0  0  0  0  0  0  0  0  0  0  0  0
    2.7363    3.0725    5.8666 H   0  0  0  0  0  0  0  0  0  0  0  0
    1.7026    2.2448    8.1800 H   0  0  0  0  0  0  0  0  0  0  0  0
    2.1992    0.6638    7.4873 H   0  0  0  0  0  0  0  0  0  0  0  0
    3.4295    1.9360    7.7946 H   0  0  0  0  0  0  0  0  0  0  0  0
  1  3  1  0  0  0  0
  1  7  1  0  0  0  0
  1  2  2  0  0  0  0
 33 34  1  0  0  0  0
 34 42  1  0  0  0  0
 34 35  2  0  0  0  0
  8  9  1  0  0  0  0
  9 17  1  0  0  0  0
  9 10  2  0  0  0  0
 18 19  1  0  0  0  0
 19 32  1  0  0  0  0
 19 20  2  0  0  0  0
 22 23  1  0  0  0  0
 23 24  1  0  0  0  0
 23 25  2  0  0  0  0
 33 36  1  0  0  0  0
  8 11  1  0  0  0  0
 42 43  1  0  0  0  0
 21 22  1  0  0  0  0
 18 21  1  0  0  0  0
 32 33  1  0  0  0  0
  7  8  1  0  0  0  0
 17 18  1  0  0  0  0
  3  4  1  0  0  0  0
  3  5  1  0  0  0  0
  3  6  1  0  0  0  0
 36 39  1  0  0  0  0
 36 40  1  0  0  0  0
 36 41  1  0  0  0  0
 11 14  1  0  0  0  0
 11 15  1  0  0  0  0
 11 16  1  0  0  0  0
 43 45  1  0  0  0  0
 43 46  1  0  0  0  0
 43 47  1  0  0  0  0
 22 30  1  0  0  0  0
 22 31  1  0  0  0  0
 21 28  1  0  0  0  0
 21 29  1  0  0  0  0
 33 38  1  0  0  0  0
  8 13  1  0  0  0  0
 18 27  1  0  0  0  0
 42 44  1  0  0  0  0
  7 12  1  0  0  0  0
 32 37  1  0  0  0  0
 17 26  1  0  0  0  0
M  CHG  1  24  -1
M  END
$$$$

  -OEChem-05262214473D

 47 46  0     1  0  0  0  0  0999 V2000
    0.5093   -4.7265    3.0306 C   0  0  0  0  0  0  0  0  0  0  0  0
    1.2735   -4.4402    3.9448 O   0  0  0  0  0  0  0  0  0  0  0  0
   -0.4465   -5.8608    3.1982 C   0  0  0  0  0  0  0  0  0  0  0  0
   -0.0219   -6.8213    2.8645 H   0  0  0  0  0  0  0  0  0  0  0  0
   -0.7314   -6.0185    4.2509 H   0  0  0  0  0  0  0  0  0  0  0  0
   -1.3983   -5.7596    2.6527 H   0  0  0  0  0  0  0  0  0  0  0  0
    0.4252   -4.0886    1.8040 N   0  0  0  0  0  0  0  0  0  0  0  0
    1.2532   -2.9707    1.4349 C   0  0  2  0  0  0  0  0  0  0  0  0
    0.3395   -1.8293    1.0083 C   0  0  0  0  0  0  0  0  0  0  0  0
   -0.8136   -2.0027    0.6194 O   0  0  0  0  0  0  0  0  0  0  0  0
    2.2176   -3.3411    0.3189 C   0  0  0  0  0  0  0  0  0  0  0  0
   -0.2574   -4.4279    1.1287 H   0  0  0  0  0  0  0  0  0  0  0  0
    1.8087   -2.6785    2.3327 H   0  0  0  0  0  0  0  0  0  0  0  0
    1.6793   -3.6366   -0.5890 H   0  0  0  0  0  0  0  0  0  0  0  0
    2.8662   -2.4980    0.0589 H   0  0  0  0  0  0  0  0  0  0  0  0
    2.8538   -4.1816    0.6166 H   0  0  0  0  0  0  0  0  0  0  0  0
    0.9758   -0.5952    1.0708 N   0  0  0  0  0  0  0  0  0  0  0  0
    0.3258    0.6374    0.7059 C   0  0  2  0  0  0  0  0  0  0  0  0
    0.9432    1.7485    1.5484 C   0  0  0  0  0  0  0  0  0  0  0  0
    1.3134    2.8210    1.0751 O   0  0  0  0  0  0  0  0  0  0  0  0
   -1.1897    0.5758    0.9316 C   0  0  0  0  0  0  0  0  0  0  0  0
   -1.9046   -0.4036    0.0016 C   0  0  0  0  0  0  0  0  0  0  0  0
   -3.4198   -0.5319    0.1903 C   0  0  0  0  0  0  0  0  0  0  0  0
   -3.8738    0.0915    1.1927 O   0  5  0  0  0  0  0  0  0  0  0  0
   -4.0347   -1.2208   -0.6697 O   0  0  0  0  0  0  0  0  0  0  0  0
    1.9288   -0.5463    1.4242 H   0  0  0  0  0  0  0  0  0  0  0  0
    0.5658    0.8193   -0.3472 H   0  0  0  0  0  0  0  0  0  0  0  0
   -1.6274    1.5751    0.8155 H   0  0  0  0  0  0  0  0  0  0  0  0
   -1.3901    0.2776    1.9694 H   0  0  0  0  0  0  0  0  0  0  0  0
   -1.6935   -0.1489   -1.0438 H   0  0  0  0  0  0  0  0  0  0  0  0
   -1.4885   -1.4053    0.1685 H   0  0  0  0  0  0  0  0  0  0  0  0
    1.0741    1.3816    2.8806 N   0  0  0  0  0  0  0  0  0  0  0  0
    1.6451    2.2535    3.8808 C   0  0  2  0  0  0  0  0  0  0  0  0
    2.0431    1.3994    5.0773 C   0  0  0  0  0  0  0  0  0  0  0  0
    1.5468    0.2994    5.3110 O   0  0  0  0  0  0  0  0  0  0  0  0
    0.6649    3.3412    4.2915 C   0  0  0  0  0  0  0  0  0  0  0  0
    0.7257    0.4775    3.1855 H   0  0  0  0  0  0  0  0  0  0  0  0
    2.5410    2.7006    3.4364 H   0  0  0  0  0  0  0  0  0  0  0  0
   -0.2392    2.9124    4.7389 H   0  0  0  0  0  0  0  0  0  0  0  0
    1.1093    4.0182    5.0286 H   0  0  0  0  0  0  0  0  0  0  0  0
    0.3568    3.9357    3.4246 H   0  0  0  0  0  0  0  0  0  0  0  0
    2.9865    2.0290    5.8772 N   0  0  0  0  0  0  0  0  0  0  0  0
    3.5151    1.4280    7.0795 C   0  0  0  0  0  0  0  0  0  0  0  0
    3.3565    2.9324    5.5968 H   0  0  0  0  0  0  0  0  0  0  0  0
    2.9161    1.7492    7.9444 H   0  0  0  0  0  0  0  0  0  0  0  0
    3.4728    0.3324    6.9908 H   0  0  0  0  0  0  0  0  0  0  0  0
    4.5593    1.7446    7.2190 H   0  0  0  0  0  0  0  0  0  0  0  0
  1  3  1  0  0  0  0
  1  7  1  0  0  0  0
  1  2  2  0  0  0  0
 33 34  1  0  0  0  0
 34 42  1  0  0  0  0
 34 35  2  0  0  0  0
  8  9  1  0  0  0  0
  9 17  1  0  0  0  0
  9 10  2  0  0  0  0
 18 19  1  0  0  0  0
 19 32  1  0  0  0  0
 19 20  2  0  0  0  0
 22 23  1  0  0  0  0
 23 24  1  0  0  0  0
 23 25  2  0  0  0  0
 33 36  1  0  0  0  0
  8 11  1  0  0  0  0
 42 43  1  0  0  0  0
 21 22  1  0  0  0  0
 18 21  1  0  0  0  0
 32 33  1  0  0  0  0
  7  8  1  0  0  0  0
 17 18  1  0  0  0  0
  3  4  1  0  0  0  0
  3  5  1  0  0  0  0
  3  6  1  0  0  0  0
 36 39  1  0  0  0  0
 36 40  1  0  0  0  0
 36 41  1  0  0  0  0
 11 14  1  0  0  0  0
 11 15  1  0  0  0  0
 11 16  1  0  0  0  0
 43 45  1  0  0  0  0
 43 46  1  0  0  0  0
 43 47  1  0  0  0  0
 22 30  1  0  0  0  0
 22 31  1  0  0  0  0
 21 28  1  0  0  0  0
 21 29  1  0  0  0  0
 33 38  1  0  0  0  0
  8 13  1  0  0  0  0
 18 27  1  0  0  0  0
 42 44  1  0  0  0  0
  7 12  1  0  0  0  0
 32 37  1  0  0  0  0
 17 26  1  0  0  0  0
M  CHG  1  24  -1
M  END
$$$$

  -OEChem-05262214473D

 47 46  0     1  0  0  0  0  0999 V2000
    0.5093   -4.7265    3.0306 C   0  0  0  0  0  0  0  0  0  0  0  0
    1.2735   -4.4402    3.9448 O   0  0  0  0  0  0  0  0  0  0  0  0
   -0.4465   -5.8608    3.1982 C   0  0  0  0  0  0  0  0  0  0  0  0
   -0.0219   -6.8213    2.8645 H   0  0  0  0  0  0  0  0  0  0  0  0
   -0.7314   -6.0185    4.2509 H   0  0  0  0  0  0  0  0  0  0  0  0
   -1.3983   -5.7596    2.6527 H   0  0  0  0  0  0  0  0  0  0  0  0
    0.4252   -4.0886    1.8040 N   0  0  0  0  0  0  0  0  0  0  0  0
    1.2532   -2.9707    1.4349 C   0  0  2  0  0  0  0  0  0  0  0  0
    0.3395   -1.8293    1.0083 C   0  0  0  0  0  0  0  0  0  0  0  0
   -0.8136   -2.0027    0.6194 O   0  0  0  0  0  0  0  0  0  0  0  0
    2.2176   -3.3411    0.3189 C   0  0  0  0  0  0  0  0  0  0  0  0
   -0.2574   -4.4279    1.1287 H   0  0  0  0  0  0  0  0  0  0  0  0
    1.8087   -2.6785    2.3327 H   0  0  0  0  0  0  0  0  0  0  0  0
    1.6793   -3.6366   -0.5890 H   0  0  0  0  0  0  0  0  0  0  0  0
    2.8662   -2.4980    0.0589 H   0  0  0  0  0  0  0  0  0  0  0  0
    2.8538   -4.1816    0.6166 H   0  0  0  0  0  0  0  0  0  0  0  0
    0.9758   -0.5952    1.0708 N   0  0  0  0  0  0  0  0  0  0  0  0
    0.3258    0.6374    0.7059 C   0  0  2  0  0  0  0  0  0  0  0  0
    0.9432    1.7485    1.5484 C   0  0  0  0  0  0  0  0  0  0  0  0
    1.0674    2.9036    1.1464 O   0  0  0  0  0  0  0  0  0  0  0  0
   -1.1897    0.5758    0.9316 C   0  0  0  0  0  0  0  0  0  0  0  0
   -1.9046   -0.4036    0.0016 C   0  0  0  0  0  0  0  0  0  0  0  0
   -3.4198   -0.5319    0.1903 C   0  0  0  0  0  0  0  0  0  0  0  0
   -3.8738    0.0915    1.1927 O   0  5  0  0  0  0  0  0  0  0  0  0
   -4.0347   -1.2208   -0.6697 O   0  0  0  0  0  0  0  0  0  0  0  0
    1.9288   -0.5463    1.4242 H   0  0  0  0  0  0  0  0  0  0  0  0
    0.5658    0.8193   -0.3472 H   0  0  0  0  0  0  0  0  0  0  0  0
   -1.6274    1.5751    0.8155 H   0  0  0  0  0  0  0  0  0  0  0  0
   -1.3901    0.2776    1.9694 H   0  0  0  0  0  0  0  0  0  0  0  0
   -1.6935   -0.1489   -1.0438 H   0  0  0  0  0  0  0  0  0  0  0  0
   -1.4885   -1.4053    0.1685 H   0  0  0  0  0  0  0  0  0  0  0  0
    1.3805    1.2862    2.7819 N   0  0  0  0  0  0  0  0  0  0  0  0
    2.0156    2.1404    3.7584 C   0  0  2  0  0  0  0  0  0  0  0  0
    2.7506    1.2519    4.7534 C   0  0  0  0  0  0  0  0  0  0  0  0
    2.4604    0.0722    4.9410 O   0  0  0  0  0  0  0  0  0  0  0  0
    0.9992    3.0233    4.4657 C   0  0  0  0  0  0  0  0  0  0  0  0
    1.2220    0.3155    3.0355 H   0  0  0  0  0  0  0  0  0  0  0  0
    2.7393    2.7580    3.2154 H   0  0  0  0  0  0  0  0  0  0  0  0
    0.2657    2.4222    5.0153 H   0  0  0  0  0  0  0  0  0  0  0  0
    1.4856    3.6903    5.1851 H   0  0  0  0  0  0  0  0  0  0  0  0
    0.4508    3.6401    3.7455 H   0  0  0  0  0  0  0  0  0  0  0  0
    3.7403    1.9429    5.4383 N   0  0  0  0  0  0  0  0  0  0  0  0
    4.5696    1.3230    6.4452 C   0  0  0  0  0  0  0  0  0  0  0  0
    3.9246    2.9141    5.2046 H   0  0  0  0  0  0  0  0  0  0  0  0
    4.1146    1.4686    7.4361 H   0  0  0  0  0  0  0  0  0  0  0  0
    4.6567    0.2465    6.2365 H   0  0  0  0  0  0  0  0  0  0  0  0
    5.5693    1.7816    6.4300 H   0  0  0  0  0  0  0  0  0  0  0  0
  1  3  1  0  0  0  0
  1  7  1  0  0  0  0
  1  2  2  0  0  0  0
 33 34  1  0  0  0  0
 34 42  1  0  0  0  0
 34 35  2  0  0  0  0
  8  9  1  0  0  0  0
  9 17  1  0  0  0  0
  9 10  2  0  0  0  0
 18 19  1  0  0  0  0
 19 32  1  0  0  0  0
 19 20  2  0  0  0  0
 22 23  1  0  0  0  0
 23 24  1  0  0  0  0
 23 25  2  0  0  0  0
 33 36  1  0  0  0  0
  8 11  1  0  0  0  0
 42 43  1  0  0  0  0
 21 22  1  0  0  0  0
 18 21  1  0  0  0  0
 32 33  1  0  0  0  0
  7  8  1  0  0  0  0
 17 18  1  0  0  0  0
  3  4  1  0  0  0  0
  3  5  1  0  0  0  0
  3  6  1  0  0  0  0
 36 39  1  0  0  0  0
 36 40  1  0  0  0  0
 36 41  1  0  0  0  0
 11 14  1  0  0  0  0
 11 15  1  0  0  0  0
 11 16  1  0  0  0  0
 43 45  1  0  0  0  0
 43 46  1  0  0  0  0
 43 47  1  0  0  0  0
 22 30  1  0  0  0  0
 22 31  1  0  0  0  0
 21 28  1  0  0  0  0
 21 29  1  0  0  0  0
 33 38  1  0  0  0  0
  8 13  1  0  0  0  0
 18 27  1  0  0  0  0
 42 44  1  0  0  0  0
  7 12  1  0  0  0  0
 32 37  1  0  0  0  0
 17 26  1  0  0  0  0
M  CHG  1  24  -1
M  END
$$$$

  -OEChem-05262214473D

 47 46  0     1  0  0  0  0  0999 V2000
    0.5093   -4.7265    3.0306 C   0  0  0  0  0  0  0  0  0  0  0  0
    1.2735   -4.4402    3.9448 O   0  0  0  0  0  0  0  0  0  0  0  0
   -0.4465   -5.8608    3.1982 C   0  0  0  0  0  0  0  0  0  0  0  0
   -0.0219   -6.8213    2.8645 H   0  0  0  0  0  0  0  0  0  0  0  0
   -0.7314   -6.0185    4.2509 H   0  0  0  0  0  0  0  0  0  0  0  0
   -1.3983   -5.7596    2.6527 H   0  0  0  0  0  0  0  0  0  0  0  0
    0.4252   -4.0886    1.8040 N   0  0  0  0  0  0  0  0  0  0  0  0
    1.2532   -2.9707    1.4349 C   0  0  2  0  0  0  0  0  0  0  0  0
    0.3395   -1.8293    1.0083 C   0  0  0  0  0  0  0  0  0  0  0  0
   -0.8136   -2.0027    0.6194 O   0  0  0  0  0  0  0  0  0  0  0  0
    2.2176   -3.3411    0.3189 C   0  0  0  0  0  0  0  0  0  0  0  0
   -0.2574   -4.4279    1.1287 H   0  0  0  0  0  0  0  0  0  0  0  0
    1.8087   -2.6785    2.3327 H   0  0  0  0  0  0  0  0  0  0  0  0
    1.6793   -3.6366   -0.5890 H   0  0  0  0  0  0  0  0  0  0  0  0
    2.8662   -2.4980    0.0589 H   0  0  0  0  0  0  0  0  0  0  0  0
    2.8538   -4.1816    0.6166 H   0  0  0  0  0  0  0  0  0  0  0  0
    0.9758   -0.5952    1.0708 N   0  0  0  0  0  0  0  0  0  0  0  0
    0.3258    0.6374    0.7059 C   0  0  2  0  0  0  0  0  0  0  0  0
    0.9432    1.7485    1.5484 C   0  0  0  0  0  0  0  0  0  0  0  0
    0.8314    2.9407    1.2704 O   0  0  0  0  0  0  0  0  0  0  0  0
   -1.1897    0.5758    0.9316 C   0  0  0  0  0  0  0  0  0  0  0  0
   -1.9046   -0.4036    0.0016 C   0  0  0  0  0  0  0  0  0  0  0  0
   -3.4198   -0.5319    0.1903 C   0  0  0  0  0  0  0  0  0  0  0  0
   -3.8738    0.0915    1.1927 O   0  5  0  0  0  0  0  0  0  0  0  0
   -4.0347   -1.2208   -0.6697 O   0  0  0  0  0  0  0  0  0  0  0  0
    1.9288   -0.5463    1.4242 H   0  0  0  0  0  0  0  0  0  0  0  0
    0.5658    0.8193   -0.3472 H   0  0  0  0  0  0  0  0  0  0  0  0
   -1.6274    1.5751    0.8155 H   0  0  0  0  0  0  0  0  0  0  0  0
   -1.3901    0.2776    1.9694 H   0  0  0  0  0  0  0  0  0  0  0  0
   -1.6935   -0.1489   -1.0438 H   0  0  0  0  0  0  0  0  0  0  0  0
   -1.4885   -1.4053    0.1685 H   0  0  0  0  0  0  0  0  0  0  0  0
    1.6715    1.2482    2.6188 N   0  0  0  0  0  0  0  0  0  0  0  0
    2.3666    2.0970    3.5585 C   0  0  2  0  0  0  0  0  0  0  0  0
    3.3939    1.2446    4.2916 C   0  0  0  0  0  0  0  0  0  0  0  0
    3.3057    0.0222    4.3875 O   0  0  0  0  0  0  0  0  0  0  0  0
    1.4005    2.7458    4.5375 C   0  0  0  0  0  0  0  0  0  0  0  0
    1.6963    0.2456    2.7800 H   0  0  0  0  0  0  0  0  0  0  0  0
    2.8810    2.8649    2.9705 H   0  0  0  0  0  0  0  0  0  0  0  0
    0.8756    1.9920    5.1357 H   0  0  0  0  0  0  0  0  0  0  0  0
    1.9255    3.4111    5.2310 H   0  0  0  0  0  0  0  0  0  0  0  0
    0.6444    3.3344    4.0068 H   0  0  0  0  0  0  0  0  0  0  0  0
    4.3979    2.0136    4.8631 N   0  0  0  0  0  0  0  0  0  0  0  0
    5.4836    1.4388    5.6227 C   0  0  0  0  0  0  0  0  0  0  0  0
    4.4020    3.0188    4.7167 H   0  0  0  0  0  0  0  0  0  0  0  0
    5.2166    1.4222    6.6897 H   0  0  0  0  0  0  0  0  0  0  0  0
    5.6704    0.4119    5.2755 H   0  0  0  0  0  0  0  0  0  0  0  0
    6.3908    2.0445    5.4812 H   0  0  0  0  0  0  0  0  0  0  0  0
  1  3  1  0  0  0  0
  1  7  1  0  0  0  0
  1  2  2  0  0  0  0
 33 34  1  0  0  0  0
 34 42  1  0  0  0  0
 34 35  2  0  0  0  0
  8  9  1  0  0  0  0
  9 17  1  0  0  0  0
  9 10  2  0  0  0  0
 18 19  1  0  0  0  0
 19 32  1  0  0  0  0
 19 20  2  0  0  0  0
 22 23  1  0  0  0  0
 23 24  1  0  0  0  0
 23 25  2  0  0  0  0
 33 36  1  0  0  0  0
  8 11  1  0  0  0  0
 42 43  1  0  0  0  0
 21 22  1  0  0  0  0
 18 21  1  0  0  0  0
 32 33  1  0  0  0  0
  7  8  1  0  0  0  0
 17 18  1  0  0  0  0
  3  4  1  0  0  0  0
  3  5  1  0  0  0  0
  3  6  1  0  0  0  0
 36 39  1  0  0  0  0
 36 40  1  0  0  0  0
 36 41  1  0  0  0  0
 11 14  1  0  0  0  0
 11 15  1  0  0  0  0
 11 16  1  0  0  0  0
 43 45  1  0  0  0  0
 43 46  1  0  0  0  0
 43 47  1  0  0  0  0
 22 30  1  0  0  0  0
 22 31  1  0  0  0  0
 21 28  1  0  0  0  0
 21 29  1  0  0  0  0
 33 38  1  0  0  0  0
  8 13  1  0  0  0  0
 18 27  1  0  0  0  0
 42 44  1  0  0  0  0
  7 12  1  0  0  0  0
 32 37  1  0  0  0  0
 17 26  1  0  0  0  0
M  CHG  1  24  -1
M  END
$$$$

  -OEChem-05262214473D

 47 46  0     1  0  0  0  0  0999 V2000
    0.5093   -4.7265    3.0306 C   0  0  0  0  0  0  0  0  0  0  0  0
    1.2735   -4.4402    3.9448 O   0  0  0  0  0  0  0  0  0  0  0  0
   -0.4465   -5.8608    3.1982 C   0  0  0  0  0  0  0  0  0  0  0  0
   -0.0219   -6.8213    2.8645 H   0  0  0  0  0  0  0  0  0  0  0  0
   -0.7314   -6.0185    4.2509 H   0  0  0  0  0  0  0  0  0  0  0  0
   -1.3983   -5.7596    2.6527 H   0  0  0  0  0  0  0  0  0  0  0  0
    0.4252   -4.0886    1.8040 N   0  0  0  0  0  0  0  0  0  0  0  0
    1.2532   -2.9707    1.4349 C   0  0  2  0  0  0  0  0  0  0  0  0
    0.3395   -1.8293    1.0083 C   0  0  0  0  0  0  0  0  0  0  0  0
   -0.8136   -2.0027    0.6194 O   0  0  0  0  0  0  0  0  0  0  0  0
    2.2176   -3.3411    0.3189 C   0  0  0  0  0  0  0  0  0  0  0  0
   -0.2574   -4.4279    1.1287 H   0  0  0  0  0  0  0  0  0  0  0  0
    1.8087   -2.6785    2.3327 H   0  0  0  0  0  0  0  0  0  0  0  0
    1.6793   -3.6366   -0.5890 H   0  0  0  0  0  0  0  0  0  0  0  0
    2.8662   -2.4980    0.0589 H   0  0  0  0  0  0  0  0  0  0  0  0
    2.8538   -4.1816    0.6166 H   0  0  0  0  0  0  0  0  0  0  0  0
    0.9758   -0.5952    1.0708 N   0  0  0  0  0  0  0  0  0  0  0  0
    0.3258    0.6374    0.7059 C   0  0  2  0  0  0  0  0  0  0  0  0
    0.9432    1.7485    1.5484 C   0  0  0  0  0  0  0  0  0  0  0  0
    0.6216    2.9299    1.4385 O   0  0  0  0  0  0  0  0  0  0  0  0
   -1.1897    0.5758    0.9316 C   0  0  0  0  0  0  0  0  0  0  0  0
   -1.9046   -0.4036    0.0016 C   0  0  0  0  0  0  0  0  0  0  0  0
   -3.4198   -0.5319    0.1903 C   0  0  0  0  0  0  0  0  0  0  0  0
   -3.8738    0.0915    1.1927 O   0  5  0  0  0  0  0  0  0  0  0  0
   -4.0347   -1.2208   -0.6697 O   0  0  0  0  0  0  0  0  0  0  0  0
    1.9288   -0.5463    1.4242 H   0  0  0  0  0  0  0  0  0  0  0  0
    0.5658    0.8193   -0.3472 H   0  0  0  0  0  0  0  0  0  0  0  0
   -1.6274    1.5751    0.8155 H   0  0  0  0  0  0  0  0  0  0  0  0
   -1.3901    0.2776    1.9694 H   0  0  0  0  0  0  0  0  0  0  0  0
   -1.6935   -0.1489   -1.0438 H   0  0  0  0  0  0  0  0  0  0  0  0
   -1.4885   -1.4053    0.1685 H   0  0  0  0  0  0  0  0  0  0  0  0
    1.9273    1.2701    2.4024 N   0  0  0  0  0  0  0  0  0  0  0  0
    2.6740    2.1262    3.2947 C   0  0  2  0  0  0  0  0  0  0  0  0
    3.9293    1.3778    3.7235 C   0  0  0  0  0  0  0  0  0  0  0  0
    4.0248    0.1528    3.6882 O   0  0  0  0  0  0  0  0  0  0  0  0
    1.8413    2.5277    4.5022 C   0  0  0  0  0  0  0  0  0  0  0  0
    2.1163    0.2727    2.4365 H   0  0  0  0  0  0  0  0  0  0  0  0
    2.9564    3.0141    2.7185 H   0  0  0  0  0  0  0  0  0  0  0  0
    1.5490    1.6511    5.0918 H   0  0  0  0  0  0  0  0  0  0  0  0
    2.3990    3.1995    5.1631 H   0  0  0  0  0  0  0  0  0  0  0  0
    0.9244    3.0395    4.1906 H   0  0  0  0  0  0  0  0  0  0  0  0
    4.9146    2.2362    4.1909 N   0  0  0  0  0  0  0  0  0  0  0  0
    6.1947    1.7676    4.6680 C   0  0  0  0  0  0  0  0  0  0  0  0
    4.7562    3.2393    4.1664 H   0  0  0  0  0  0  0  0  0  0  0  0
    6.1470    1.6132    5.7560 H   0  0  0  0  0  0  0  0  0  0  0  0
    6.4446    0.8173    4.1735 H   0  0  0  0  0  0  0  0  0  0  0  0
    6.9679    2.5153    4.4375 H   0  0  0  0  0  0  0  0  0  0  0  0
  1  3  1  0  0  0  0
  1  7  1  0  0  0  0
  1  2  2  0  0  0  0
 33 34  1  0  0  0  0
 34 42  1  0  0  0  0
 34 35  2  0  0  0  0
  8  9  1  0  0  0  0
  9 17  1  0  0  0  0
  9 10  2  0  0  0  0
 18 19  1  0  0  0  0
 19 32  1  0  0  0  0
 19 20  2  0  0  0  0
 22 23  1  0  0  0  0
 23 24  1  0  0  0  0
 23 25  2  0  0  0  0
 33 36  1  0  0  0  0
  8 11  1  0  0  0  0
 42 43  1  0  0  0  0
 21 22  1  0  0  0  0
 18 21  1  0  0  0  0
 32 33  1  0  0  0  0
  7  8  1  0  0  0  0
 17 18  1  0  0  0  0
  3  4  1  0  0  0  0
  3  5  1  0  0  0  0
  3  6  1  0  0  0  0
 36 39  1  0  0  0  0
 36 40  1  0  0  0  0
 36 41  1  0  0  0  0
 11 14  1  0  0  0  0
 11 15  1  0  0  0  0
 11 16  1  0  0  0  0
 43 45  1  0  0  0  0
 43 46  1  0  0  0  0
 43 47  1  0  0  0  0
 22 30  1  0  0  0  0
 22 31  1  0  0  0  0
 21 28  1  0  0  0  0
 21 29  1  0  0  0  0
 33 38  1  0  0  0  0
  8 13  1  0  0  0  0
 18 27  1  0  0  0  0
 42 44  1  0  0  0  0
  7 12  1  0  0  0  0
 32 37  1  0  0  0  0
 17 26  1  0  0  0  0
M  CHG  1  24  -1
M  END
$$$$

  -OEChem-05262214473D

 47 46  0     1  0  0  0  0  0999 V2000
    0.5093   -4.7265    3.0306 C   0  0  0  0  0  0  0  0  0  0  0  0
    1.2735   -4.4402    3.9448 O   0  0  0  0  0  0  0  0  0  0  0  0
   -0.4465   -5.8608    3.1982 C   0  0  0  0  0  0  0  0  0  0  0  0
   -0.0219   -6.8213    2.8645 H   0  0  0  0  0  0  0  0  0  0  0  0
   -0.7314   -6.0185    4.2509 H   0  0  0  0  0  0  0  0  0  0  0  0
   -1.3983   -5.7596    2.6527 H   0  0  0  0  0  0  0  0  0  0  0  0
    0.4252   -4.0886    1.8040 N   0  0  0  0  0  0  0  0  0  0  0  0
    1.2532   -2.9707    1.4349 C   0  0  2  0  0  0  0  0  0  0  0  0
    0.3395   -1.8293    1.0083 C   0  0  0  0  0  0  0  0  0  0  0  0
   -0.8136   -2.0027    0.6194 O   0  0  0  0  0  0  0  0  0  0  0  0
    2.2176   -3.3411    0.3189 C   0  0  0  0  0  0  0  0  0  0  0  0
   -0.2574   -4.4279    1.1287 H   0  0  0  0  0  0  0  0  0  0  0  0
    1.8087   -2.6785    2.3327 H   0  0  0  0  0  0  0  0  0  0  0  0
    1.6793   -3.6366   -0.5890 H   0  0  0  0  0  0  0  0  0  0  0  0
    2.8662   -2.4980    0.0589 H   0  0  0  0  0  0  0  0  0  0  0  0
    2.8538   -4.1816    0.6166 H   0  0  0  0  0  0  0  0  0  0  0  0
    0.9758   -0.5952    1.0708 N   0  0  0  0  0  0  0  0  0  0  0  0
    0.3258    0.6374    0.7059 C   0  0  2  0  0  0  0  0  0  0  0  0
    0.9432    1.7485    1.5484 C   0  0  0  0  0  0  0  0  0  0  0  0
    0.4521    2.8718    1.6393 O   0  0  0  0  0  0  0  0  0  0  0  0
   -1.1897    0.5758    0.9316 C   0  0  0  0  0  0  0  0  0  0  0  0
   -1.9046   -0.4036    0.0016 C   0  0  0  0  0  0  0  0  0  0  0  0
   -3.4198   -0.5319    0.1903 C   0  0  0  0  0  0  0  0  0  0  0  0
   -3.8738    0.0915    1.1927 O   0  5  0  0  0  0  0  0  0  0  0  0
   -4.0347   -1.2208   -0.6697 O   0  0  0  0  0  0  0  0  0  0  0  0
    1.9288   -0.5463    1.4242 H   0  0  0  0  0  0  0  0  0  0  0  0
    0.5658    0.8193   -0.3472 H   0  0  0  0  0  0  0  0  0  0  0  0
   -1.6274    1.5751    0.8155 H   0  0  0  0  0  0  0  0  0  0  0  0
   -1.3901    0.2776    1.9694 H   0  0  0  0  0  0  0  0  0  0  0  0
   -1.6935   -0.1489   -1.0438 H   0  0  0  0  0  0  0  0  0  0  0  0
   -1.4885   -1.4053    0.1685 H   0  0  0  0  0  0  0  0  0  0  0  0
    2.1304    1.3506    2.1474 N   0  0  0  0  0  0  0  0  0  0  0  0
    2.9171    2.2260    2.9849 C   0  0  2  0  0  0  0  0  0  0  0  0
    4.3202    1.6427    3.0878 C   0  0  0  0  0  0  0  0  0  0  0  0
    4.5690    0.4551    2.8908 O   0  0  0  0  0  0  0  0  0  0  0  0
    2.2917    2.3836    4.3621 C   0  0  0  0  0  0  0  0  0  0  0  0
    2.4533    0.3950    2.0283 H   0  0  0  0  0  0  0  0  0  0  0  0
    2.9604    3.1954    2.4765 H   0  0  0  0  0  0  0  0  0  0  0  0
    2.2399    1.4226    4.8868 H   0  0  0  0  0  0  0  0  0  0  0  0
    2.8738    3.0698    4.9861 H   0  0  0  0  0  0  0  0  0  0  0  0
    1.2717    2.7753    4.2844 H   0  0  0  0  0  0  0  0  0  0  0  0
    5.2550    2.5956    3.4675 N   0  0  0  0  0  0  0  0  0  0  0  0
    6.6546    2.2869    3.6461 C   0  0  0  0  0  0  0  0  0  0  0  0
    4.9630    3.5606    3.5911 H   0  0  0  0  0  0  0  0  0  0  0  0
    6.8422    2.0285    4.6987 H   0  0  0  0  0  0  0  0  0  0  0  0
    6.9267    1.4351    3.0055 H   0  0  0  0  0  0  0  0  0  0  0  0
    7.2611    3.1619    3.3698 H   0  0  0  0  0  0  0  0  0  0  0  0
  1  3  1  0  0  0  0
  1  7  1  0  0  0  0
  1  2  2  0  0  0  0
 33 34  1  0  0  0  0
 34 42  1  0  0  0  0
 34 35  2  0  0  0  0
  8  9  1  0  0  0  0
  9 17  1  0  0  0  0
  9 10  2  0  0  0  0
 18 19  1  0  0  0  0
 19 32  1  0  0  0  0
 19 20  2  0  0  0  0
 22 23  1  0  0  0  0
 23 24  1  0  0  0  0
 23 25  2  0  0  0  0
 33 36  1  0  0  0  0
  8 11  1  0  0  0  0
 42 43  1  0  0  0  0
 21 22  1  0  0  0  0
 18 21  1  0  0  0  0
 32 33  1  0  0  0  0
  7  8  1  0  0  0  0
 17 18  1  0  0  0  0
  3  4  1  0  0  0  0
  3  5  1  0  0  0  0
  3  6  1  0  0  0  0
 36 39  1  0  0  0  0
 36 40  1  0  0  0  0
 36 41  1  0  0  0  0
 11 14  1  0  0  0  0
 11 15  1  0  0  0  0
 11 16  1  0  0  0  0
 43 45  1  0  0  0  0
 43 46  1  0  0  0  0
 43 47  1  0  0  0  0
 22 30  1  0  0  0  0
 22 31  1  0  0  0  0
 21 28  1  0  0  0  0
 21 29  1  0  0  0  0
 33 38  1  0  0  0  0
  8 13  1  0  0  0  0
 18 27  1  0  0  0  0
 42 44  1  0  0  0  0
  7 12  1  0  0  0  0
 32 37  1  0  0  0  0
 17 26  1  0  0  0  0
M  CHG  1  24  -1
M  END
$$$$

  -OEChem-05262214473D

 47 46  0     1  0  0  0  0  0999 V2000
    0.5093   -4.7265    3.0306 C   0  0  0  0  0  0  0  0  0  0  0  0
    1.2735   -4.4402    3.9448 O   0  0  0  0  0  0  0  0  0  0  0  0
   -0.4465   -5.8608    3.1982 C   0  0  0  0  0  0  0  0  0  0  0  0
   -0.0219   -6.8213    2.8645 H   0  0  0  0  0  0  0  0  0  0  0  0
   -0.7314   -6.0185    4.2509 H   0  0  0  0  0  0  0  0  0  0  0  0
   -1.3983   -5.7596    2.6527 H   0  0  0  0  0  0  0  0  0  0  0  0
    0.4252   -4.0886    1.8040 N   0  0  0  0  0  0  0  0  0  0  0  0
    1.2532   -2.9707    1.4349 C   0  0  2  0  0  0  0  0  0  0  0  0
    0.3395   -1.8293    1.0083 C   0  0  0  0  0  0  0  0  0  0  0  0
   -0.8136   -2.0027    0.6194 O   0  0  0  0  0  0  0  0  0  0  0  0
    2.2176   -3.3411    0.3189 C   0  0  0  0  0  0  0  0  0  0  0  0
   -0.2574   -4.4279    1.1287 H   0  0  0  0  0  0  0  0  0  0  0  0
    1.8087   -2.6785    2.3327 H   0  0  0  0  0  0  0  0  0  0  0  0
    1.6793   -3.6366   -0.5890 H   0  0  0  0  0  0  0  0  0  0  0  0
    2.8662   -2.4980    0.0589 H   0  0  0  0  0  0  0  0  0  0  0  0
    2.8538   -4.1816    0.6166 H   0  0  0  0  0  0  0  0  0  0  0  0
    0.9758   -0.5952    1.0708 N   0  0  0  0  0  0  0  0  0  0  0  0
    0.3258    0.6374    0.7059 C   0  0  2  0  0  0  0  0  0  0  0  0
    0.9432    1.7485    1.5484 C   0  0  0  0  0  0  0  0  0  0  0  0
    0.3346    2.7704    1.8591 O   0  0  0  0  0  0  0  0  0  0  0  0
   -1.1897    0.5758    0.9316 C   0  0  0  0  0  0  0  0  0  0  0  0
   -1.9046   -0.4036    0.0016 C   0  0  0  0  0  0  0  0  0  0  0  0
   -3.4198   -0.5319    0.1903 C   0  0  0  0  0  0  0  0  0  0  0  0
   -3.8738    0.0915    1.1927 O   0  5  0  0  0  0  0  0  0  0  0  0
   -4.0347   -1.2208   -0.6697 O   0  0  0  0  0  0  0  0  0  0  0  0
    1.9288   -0.5463    1.4242 H   0  0  0  0  0  0  0  0  0  0  0  0
    0.5658    0.8193   -0.3472 H   0  0  0  0  0  0  0  0  0  0  0  0
   -1.6274    1.5751    0.8155 H   0  0  0  0  0  0  0  0  0  0  0  0
   -1.3901    0.2776    1.9694 H   0  0  0  0  0  0  0  0  0  0  0  0
   -1.6935   -0.1489   -1.0438 H   0  0  0  0  0  0  0  0  0  0  0  0
   -1.4885   -1.4053    0.1685 H   0  0  0  0  0  0  0  0  0  0  0  0
    2.2670    1.4841    1.8713 N   0  0  0  0  0  0  0  0  0  0  0  0
    3.0792    2.3896    2.6503 C   0  0  2  0  0  0  0  0  0  0  0  0
    4.5401    2.0210    2.4277 C   0  0  0  0  0  0  0  0  0  0  0  0
    4.9010    0.9084    2.0497 O   0  0  0  0  0  0  0  0  0  0  0  0
    2.7209    2.3236    4.1268 C   0  0  0  0  0  0  0  0  0  0  0  0
    2.6844    0.6040    1.5833 H   0  0  0  0  0  0  0  0  0  0  0  0
    2.8926    3.3964    2.2610 H   0  0  0  0  0  0  0  0  0  0  0  0
    2.9012    1.3223    4.5345 H   0  0  0  0  0  0  0  0  0  0  0  0
    3.3176    3.0311    4.7119 H   0  0  0  0  0  0  0  0  0  0  0  0
    1.6626    2.5600    4.2819 H   0  0  0  0  0  0  0  0  0  0  0  0
    5.3961    3.0671    2.7422 N   0  0  0  0  0  0  0  0  0  0  0  0
    6.8319    2.9613    2.6268 C   0  0  0  0  0  0  0  0  0  0  0  0
    5.0084    3.9608    3.0301 H   0  0  0  0  0  0  0  0  0  0  0  0
    7.2550    2.6399    3.5899 H   0  0  0  0  0  0  0  0  0  0  0  0
    7.0838    2.2231    1.8511 H   0  0  0  0  0  0  0  0  0  0  0  0
    7.2506    3.9404    2.3509 H   0  0  0  0  0  0  0  0  0  0  0  0
  1  3  1  0  0  0  0
  1  7  1  0  0  0  0
  1  2  2  0  0  0  0
 33 34  1  0  0  0  0
 34 42  1  0  0  0  0
 34 35  2  0  0  0  0
  8  9  1  0  0  0  0
  9 17  1  0  0  0  0
  9 10  2  0  0  0  0
 18 19  1  0  0  0  0
 19 32  1  0  0  0  0
 19 20  2  0  0  0  0
 22 23  1  0  0  0  0
 23 24  1  0  0  0  0
 23 25  2  0  0  0  0
 33 36  1  0  0  0  0
  8 11  1  0  0  0  0
 42 43  1  0  0  0  0
 21 22  1  0  0  0  0
 18 21  1  0  0  0  0
 32 33  1  0  0  0  0
  7  8  1  0  0  0  0
 17 18  1  0  0  0  0
  3  4  1  0  0  0  0
  3  5  1  0  0  0  0
  3  6  1  0  0  0  0
 36 39  1  0  0  0  0
 36 40  1  0  0  0  0
 36 41  1  0  0  0  0
 11 14  1  0  0  0  0
 11 15  1  0  0  0  0
 11 16  1  0  0  0  0
 43 45  1  0  0  0  0
 43 46  1  0  0  0  0
 43 47  1  0  0  0  0
 22 30  1  0  0  0  0
 22 31  1  0  0  0  0
 21 28  1  0  0  0  0
 21 29  1  0  0  0  0
 33 38  1  0  0  0  0
  8 13  1  0  0  0  0
 18 27  1  0  0  0  0
 42 44  1  0  0  0  0
  7 12  1  0  0  0  0
 32 37  1  0  0  0  0
 17 26  1  0  0  0  0
M  CHG  1  24  -1
M  END
$$$$

  -OEChem-05262214473D

 47 46  0     1  0  0  0  0  0999 V2000
    0.5093   -4.7265    3.0306 C   0  0  0  0  0  0  0  0  0  0  0  0
    1.2735   -4.4402    3.9448 O   0  0  0  0  0  0  0  0  0  0  0  0
   -0.4465   -5.8608    3.1982 C   0  0  0  0  0  0  0  0  0  0  0  0
   -0.0219   -6.8213    2.8645 H   0  0  0  0  0  0  0  0  0  0  0  0
   -0.7314   -6.0185    4.2509 H   0  0  0  0  0  0  0  0  0  0  0  0
   -1.3983   -5.7596    2.6527 H   0  0  0  0  0  0  0  0  0  0  0  0
    0.4252   -4.0886    1.8040 N   0  0  0  0  0  0  0  0  0  0  0  0
    1.2532   -2.9707    1.4349 C   0  0  2  0  0  0  0  0  0  0  0  0
    0.3395   -1.8293    1.0083 C   0  0  0  0  0  0  0  0  0  0  0  0
   -0.8136   -2.0027    0.6194 O   0  0  0  0  0  0  0  0  0  0  0  0
    2.2176   -3.3411    0.3189 C   0  0  0  0  0  0  0  0  0  0  0  0
   -0.2574   -4.4279    1.1287 H   0  0  0  0  0  0  0  0  0  0  0  0
    1.8087   -2.6785    2.3327 H   0  0  0  0  0  0  0  0  0  0  0  0
    1.6793   -3.6366   -0.5890 H   0  0  0  0  0  0  0  0  0  0  0  0
    2.8662   -2.4980    0.0589 H   0  0  0  0  0  0  0  0  0  0  0  0
    2.8538   -4.1816    0.6166 H   0  0  0  0  0  0  0  0  0  0  0  0
    0.9758   -0.5952    1.0708 N   0  0  0  0  0  0  0  0  0  0  0  0
    0.3258    0.6374    0.7059 C   0  0  2  0  0  0  0  0  0  0  0  0
    0.9432    1.7485    1.5484 C   0  0  0  0  0  0  0  0  0  0  0  0
    0.2770    2.6326    2.0830 O   0  0  0  0  0  0  0  0  0  0  0  0
   -1.1897    0.5758    0.9316 C   0  0  0  0  0  0  0  0  0  0  0  0
   -1.9046   -0.4036    0.0016 C   0  0  0  0  0  0  0  0  0  0  0  0
   -3.4198   -0.5319    0.1903 C   0  0  0  0  0  0  0  0  0  0  0  0
   -3.8738    0.0915    1.1927 O   0  5  0  0  0  0  0  0  0  0  0  0
   -4.0347   -1.2208   -0.6697 O   0  0  0  0  0  0  0  0  0  0  0  0
    1.9288   -0.5463    1.4242 H   0  0  0  0  0  0  0  0  0  0  0  0
    0.5658    0.8193   -0.3472 H   0  0  0  0  0  0  0  0  0  0  0  0
   -1.6274    1.5751    0.8155 H   0  0  0  0  0  0  0  0  0  0  0  0
   -1.3901    0.2776    1.9694 H   0  0  0  0  0  0  0  0  0  0  0  0
   -1.6935   -0.1489   -1.0438 H   0  0  0  0  0  0  0  0  0  0  0  0
   -1.4885   -1.4053    0.1685 H   0  0  0  0  0  0  0  0  0  0  0  0
    2.3277    1.6615    1.5928 N   0  0  0  0  0  0  0  0  0  0  0  0
    3.1493    2.6059    2.3137 C   0  0  2  0  0  0  0  0  0  0  0  0
    4.5739    2.4870    1.7883 C   0  0  0  0  0  0  0  0  0  0  0  0
    4.9983    1.4819    1.2221 O   0  0  0  0  0  0  0  0  0  0  0  0
    3.0996    2.3516    3.8122 C   0  0  0  0  0  0  0  0  0  0  0  0
    2.7937    0.8856    1.1318 H   0  0  0  0  0  0  0  0  0  0  0  0
    2.7578    3.6035    2.0867 H   0  0  0  0  0  0  0  0  0  0  0  0
    3.4879    1.3568    4.0590 H   0  0  0  0  0  0  0  0  0  0  0  0
    3.7001    3.0859    4.3594 H   0  0  0  0  0  0  0  0  0  0  0  0
    2.0706    2.4082    4.1832 H   0  0  0  0  0  0  0  0  0  0  0  0
    5.3282    3.6188    2.0645 N   0  0  0  0  0  0  0  0  0  0  0  0
    6.7145    3.7449    1.6794 C   0  0  0  0  0  0  0  0  0  0  0  0
    4.8891    4.4126    2.5216 H   0  0  0  0  0  0  0  0  0  0  0  0
    7.3572    3.4057    2.5051 H   0  0  0  0  0  0  0  0  0  0  0  0
    6.9052    3.1277    0.7891 H   0  0  0  0  0  0  0  0  0  0  0  0
    6.9369    4.7975    1.4503 H   0  0  0  0  0  0  0  0  0  0  0  0
  1  3  1  0  0  0  0
  1  7  1  0  0  0  0
  1  2  2  0  0  0  0
 33 34  1  0  0  0  0
 34 42  1  0  0  0  0
 34 35  2  0  0  0  0
  8  9  1  0  0  0  0
  9 17  1  0  0  0  0
  9 10  2  0  0  0  0
 18 19  1  0  0  0  0
 19 32  1  0  0  0  0
 19 20  2  0  0  0  0
 22 23  1  0  0  0  0
 23 24  1  0  0  0  0
 23 25  2  0  0  0  0
 33 36  1  0  0  0  0
  8 11  1  0  0  0  0
 42 43  1  0  0  0  0
 21 22  1  0  0  0  0
 18 21  1  0  0  0  0
 32 33  1  0  0  0  0
  7  8  1  0  0  0  0
 17 18  1  0  0  0  0
  3  4  1  0  0  0  0
  3  5  1  0  0  0  0
  3  6  1  0  0  0  0
 36 39  1  0  0  0  0
 36 40  1  0  0  0  0
 36 41  1  0  0  0  0
 11 14  1  0  0  0  0
 11 15  1  0  0  0  0
 11 16  1  0  0  0  0
 43 45  1  0  0  0  0
 43 46  1  0  0  0  0
 43 47  1  0  0  0  0
 22 30  1  0  0  0  0
 22 31  1  0  0  0  0
 21 28  1  0  0  0  0
 21 29  1  0  0  0  0
 33 38  1  0  0  0  0
  8 13  1  0  0  0  0
 18 27  1  0  0  0  0
 42 44  1  0  0  0  0
  7 12  1  0  0  0  0
 32 37  1  0  0  0  0
 17 26  1  0  0  0  0
M  CHG  1  24  -1
M  END
$$$$

  -OEChem-05262214473D

 47 46  0     1  0  0  0  0  0999 V2000
    0.5093   -4.7265    3.0306 C   0  0  0  0  0  0  0  0  0  0  0  0
    1.2735   -4.4402    3.9448 O   0  0  0  0  0  0  0  0  0  0  0  0
   -0.4465   -5.8608    3.1982 C   0  0  0  0  0  0  0  0  0  0  0  0
   -0.0219   -6.8213    2.8645 H   0  0  0  0  0  0  0  0  0  0  0  0
   -0.7314   -6.0185    4.2509 H   0  0  0  0  0  0  0  0  0  0  0  0
   -1.3983   -5.7596    2.6527 H   0  0  0  0  0  0  0  0  0  0  0  0
    0.4252   -4.0886    1.8040 N   0  0  0  0  0  0  0  0  0  0  0  0
    1.2532   -2.9707    1.4349 C   0  0  2  0  0  0  0  0  0  0  0  0
    0.3395   -1.8293    1.0083 C   0  0  0  0  0  0  0  0  0  0  0  0
   -0.8136   -2.0027    0.6194 O   0  0  0  0  0  0  0  0  0  0  0  0
    2.2176   -3.3411    0.3189 C   0  0  0  0  0  0  0  0  0  0  0  0
   -0.2574   -4.4279    1.1287 H   0  0  0  0  0  0  0  0  0  0  0  0
    1.8087   -2.6785    2.3327 H   0  0  0  0  0  0  0  0  0  0  0  0
    1.6793   -3.6366   -0.5890 H   0  0  0  0  0  0  0  0  0  0  0  0
    2.8662   -2.4980    0.0589 H   0  0  0  0  0  0  0  0  0  0  0  0
    2.8538   -4.1816    0.6166 H   0  0  0  0  0  0  0  0  0  0  0  0
    0.9758   -0.5952    1.0708 N   0  0  0  0  0  0  0  0  0  0  0  0
    0.3258    0.6374    0.7059 C   0  0  2  0  0  0  0  0  0  0  0  0
    0.9432    1.7485    1.5484 C   0  0  0  0  0  0  0  0  0  0  0  0
    0.2833    2.4678    2.2957 O   0  0  0  0  0  0  0  0  0  0  0  0
   -1.1897    0.5758    0.9316 C   0  0  0  0  0  0  0  0  0  0  0  0
   -1.9046   -0.4036    0.0016 C   0  0  0  0  0  0  0  0  0  0  0  0
   -3.4198   -0.5319    0.1903 C   0  0  0  0  0  0  0  0  0  0  0  0
   -3.8738    0.0915    1.1927 O   0  5  0  0  0  0  0  0  0  0  0  0
   -4.0347   -1.2208   -0.6697 O   0  0  0  0  0  0  0  0  0  0  0  0
    1.9288   -0.5463    1.4242 H   0  0  0  0  0  0  0  0  0  0  0  0
    0.5658    0.8193   -0.3472 H   0  0  0  0  0  0  0  0  0  0  0  0
   -1.6274    1.5751    0.8155 H   0  0  0  0  0  0  0  0  0  0  0  0
   -1.3901    0.2776    1.9694 H   0  0  0  0  0  0  0  0  0  0  0  0
   -1.6935   -0.1489   -1.0438 H   0  0  0  0  0  0  0  0  0  0  0  0
   -1.4885   -1.4053    0.1685 H   0  0  0  0  0  0  0  0  0  0  0  0
    2.3085    1.8707    1.3309 N   0  0  0  0  0  0  0  0  0  0  0  0
    3.1226    2.8602    1.9980 C   0  0  2  0  0  0  0  0  0  0  0  0
    4.4193    3.0090    1.2132 C   0  0  0  0  0  0  0  0  0  0  0  0
    4.8542    2.1364    0.4644 O   0  0  0  0  0  0  0  0  0  0  0  0
    3.4022    2.4659    3.4399 C   0  0  0  0  0  0  0  0  0  0  0  0
    2.7740    1.2206    0.7045 H   0  0  0  0  0  0  0  0  0  0  0  0
    2.5651    3.8026    1.9654 H   0  0  0  0  0  0  0  0  0  0  0  0
    3.9601    1.5238    3.4927 H   0  0  0  0  0  0  0  0  0  0  0  0
    3.9953    3.2304    3.9525 H   0  0  0  0  0  0  0  0  0  0  0  0
    2.4677    2.3302    3.9950 H   0  0  0  0  0  0  0  0  0  0  0  0
    5.0558    4.2130    1.4804 N   0  0  0  0  0  0  0  0  0  0  0  0
    6.3103    4.5843    0.8686 C   0  0  0  0  0  0  0  0  0  0  0  0
    4.6135    4.8853    2.1002 H   0  0  0  0  0  0  0  0  0  0  0  0
    7.1419    4.2737    1.5182 H   0  0  0  0  0  0  0  0  0  0  0  0
    6.4030    4.0872   -0.1083 H   0  0  0  0  0  0  0  0  0  0  0  0
    6.3416    5.6750    0.7294 H   0  0  0  0  0  0  0  0  0  0  0  0
  1  3  1  0  0  0  0
  1  7  1  0  0  0  0
  1  2  2  0  0  0  0
 33 34  1  0  0  0  0
 34 42  1  0  0  0  0
 34 35  2  0  0  0  0
  8  9  1  0  0  0  0
  9 17  1  0  0  0  0
  9 10  2  0  0  0  0
 18 19  1  0  0  0  0
 19 32  1  0  0  0  0
 19 20  2  0  0  0  0
 22 23  1  0  0  0  0
 23 24  1  0  0  0  0
 23 25  2  0  0  0  0
 33 36  1  0  0  0  0
  8 11  1  0  0  0  0
 42 43  1  0  0  0  0
 21 22  1  0  0  0  0
 18 21  1  0  0  0  0
 32 33  1  0  0  0  0
  7  8  1  0  0  0  0
 17 18  1  0  0  0  0
  3  4  1  0  0  0  0
  3  5  1  0  0  0  0
  3  6  1  0  0  0  0
 36 39  1  0  0  0  0
 36 40  1  0  0  0  0
 36 41  1  0  0  0  0
 11 14  1  0  0  0  0
 11 15  1  0  0  0  0
 11 16  1  0  0  0  0
 43 45  1  0  0  0  0
 43 46  1  0  0  0  0
 43 47  1  0  0  0  0
 22 30  1  0  0  0  0
 22 31  1  0  0  0  0
 21 28  1  0  0  0  0
 21 29  1  0  0  0  0
 33 38  1  0  0  0  0
  8 13  1  0  0  0  0
 18 27  1  0  0  0  0
 42 44  1  0  0  0  0
  7 12  1  0  0  0  0
 32 37  1  0  0  0  0
 17 26  1  0  0  0  0
M  CHG  1  24  -1
M  END
$$$$

  -OEChem-05262214473D

 47 46  0     1  0  0  0  0  0999 V2000
    0.5093   -4.7265    3.0306 C   0  0  0  0  0  0  0  0  0  0  0  0
    1.2735   -4.4402    3.9448 O   0  0  0  0  0  0  0  0  0  0  0  0
   -0.4465   -5.8608    3.1982 C   0  0  0  0  0  0  0  0  0  0  0  0
   -0.0219   -6.8213    2.8645 H   0  0  0  0  0  0  0  0  0  0  0  0
   -0.7314   -6.0185    4.2509 H   0  0  0  0  0  0  0  0  0  0  0  0
   -1.3983   -5.7596    2.6527 H   0  0  0  0  0  0  0  0  0  0  0  0
    0.4252   -4.0886    1.8040 N   0  0  0  0  0  0  0  0  0  0  0  0
    1.2532   -2.9707    1.4349 C   0  0  2  0  0  0  0  0  0  0  0  0
    0.3395   -1.8293    1.0083 C   0  0  0  0  0  0  0  0  0  0  0  0
   -0.8136   -2.0027    0.6194 O   0  0  0  0  0  0  0  0  0  0  0  0
    2.2176   -3.3411    0.3189 C   0  0  0  0  0  0  0  0  0  0  0  0
   -0.2574   -4.4279    1.1287 H   0  0  0  0  0  0  0  0  0  0  0  0
    1.8087   -2.6785    2.3327 H   0  0  0  0  0  0  0  0  0  0  0  0
    1.6793   -3.6366   -0.5890 H   0  0  0  0  0  0  0  0  0  0  0  0
    2.8662   -2.4980    0.0589 H   0  0  0  0  0  0  0  0  0  0  0  0
    2.8538   -4.1816    0.6166 H   0  0  0  0  0  0  0  0  0  0  0  0
    0.9758   -0.5952    1.0708 N   0  0  0  0  0  0  0  0  0  0  0  0
    0.3258    0.6374    0.7059 C   0  0  2  0  0  0  0  0  0  0  0  0
    0.9432    1.7485    1.5484 C   0  0  0  0  0  0  0  0  0  0  0  0
    0.3531    2.2873    2.4826 O   0  0  0  0  0  0  0  0  0  0  0  0
   -1.1897    0.5758    0.9316 C   0  0  0  0  0  0  0  0  0  0  0  0
   -1.9046   -0.4036    0.0016 C   0  0  0  0  0  0  0  0  0  0  0  0
   -3.4198   -0.5319    0.1903 C   0  0  0  0  0  0  0  0  0  0  0  0
   -3.8738    0.0915    1.1927 O   0  5  0  0  0  0  0  0  0  0  0  0
   -4.0347   -1.2208   -0.6697 O   0  0  0  0  0  0  0  0  0  0  0  0
    1.9288   -0.5463    1.4242 H   0  0  0  0  0  0  0  0  0  0  0  0
    0.5658    0.8193   -0.3472 H   0  0  0  0  0  0  0  0  0  0  0  0
   -1.6274    1.5751    0.8155 H   0  0  0  0  0  0  0  0  0  0  0  0
   -1.3901    0.2776    1.9694 H   0  0  0  0  0  0  0  0  0  0  0  0
   -1.6935   -0.1489   -1.0438 H   0  0  0  0  0  0  0  0  0  0  0  0
   -1.4885   -1.4053    0.1685 H   0  0  0  0  0  0  0  0  0  0  0  0
    2.2107    2.0976    1.1035 N   0  0  0  0  0  0  0  0  0  0  0  0
    3.0010    3.1350    1.7247 C   0  0  2  0  0  0  0  0  0  0  0  0
    4.0870    3.5514    0.7415 C   0  0  0  0  0  0  0  0  0  0  0  0
    4.4785    2.8275   -0.1716 O   0  0  0  0  0  0  0  0  0  0  0  0
    3.6078    2.6584    3.0352 C   0  0  0  0  0  0  0  0  0  0  0  0
    2.6264    1.5860    0.3307 H   0  0  0  0  0  0  0  0  0  0  0  0
    2.3277    3.9800    1.9055 H   0  0  0  0  0  0  0  0  0  0  0  0
    4.2855    1.8121    2.8741 H   0  0  0  0  0  0  0  0  0  0  0  0
    4.1830    3.4549    3.5189 H   0  0  0  0  0  0  0  0  0  0  0  0
    2.8269    2.3314    3.7301 H   0  0  0  0  0  0  0  0  0  0  0  0
    4.5977    4.8092    1.0299 N   0  0  0  0  0  0  0  0  0  0  0  0
    5.6470    5.4223    0.2495 C   0  0  0  0  0  0  0  0  0  0  0  0
    4.2002    5.3466    1.7947 H   0  0  0  0  0  0  0  0  0  0  0  0
    6.6237    5.1847    0.6965 H   0  0  0  0  0  0  0  0  0  0  0  0
    5.6115    5.0363   -0.7799 H   0  0  0  0  0  0  0  0  0  0  0  0
    5.5051    6.5130    0.2373 H   0  0  0  0  0  0  0  0  0  0  0  0
  1  3  1  0  0  0  0
  1  7  1  0  0  0  0
  1  2  2  0  0  0  0
 33 34  1  0  0  0  0
 34 42  1  0  0  0  0
 34 35  2  0  0  0  0
  8  9  1  0  0  0  0
  9 17  1  0  0  0  0
  9 10  2  0  0  0  0
 18 19  1  0  0  0  0
 19 32  1  0  0  0  0
 19 20  2  0  0  0  0
 22 23  1  0  0  0  0
 23 24  1  0  0  0  0
 23 25  2  0  0  0  0
 33 36  1  0  0  0  0
  8 11  1  0  0  0  0
 42 43  1  0  0  0  0
 21 22  1  0  0  0  0
 18 21  1  0  0  0  0
 32 33  1  0  0  0  0
  7  8  1  0  0  0  0
 17 18  1  0  0  0  0
  3  4  1  0  0  0  0
  3  5  1  0  0  0  0
  3  6  1  0  0  0  0
 36 39  1  0  0  0  0
 36 40  1  0  0  0  0
 36 41  1  0  0  0  0
 11 14  1  0  0  0  0
 11 15  1  0  0  0  0
 11 16  1  0  0  0  0
 43 45  1  0  0  0  0
 43 46  1  0  0  0  0
 43 47  1  0  0  0  0
 22 30  1  0  0  0  0
 22 31  1  0  0  0  0
 21 28  1  0  0  0  0
 21 29  1  0  0  0  0
 33 38  1  0  0  0  0
  8 13  1  0  0  0  0
 18 27  1  0  0  0  0
 42 44  1  0  0  0  0
  7 12  1  0  0  0  0
 32 37  1  0  0  0  0
 17 26  1  0  0  0  0
M  CHG  1  24  -1
M  END
$$$$

  -OEChem-05262214473D

 47 46  0     1  0  0  0  0  0999 V2000
    0.5093   -4.7265    3.0306 C   0  0  0  0  0  0  0  0  0  0  0  0
    1.2735   -4.4402    3.9448 O   0  0  0  0  0  0  0  0  0  0  0  0
   -0.4465   -5.8608    3.1982 C   0  0  0  0  0  0  0  0  0  0  0  0
   -0.0219   -6.8213    2.8645 H   0  0  0  0  0  0  0  0  0  0  0  0
   -0.7314   -6.0185    4.2509 H   0  0  0  0  0  0  0  0  0  0  0  0
   -1.3983   -5.7596    2.6527 H   0  0  0  0  0  0  0  0  0  0  0  0
    0.4252   -4.0886    1.8040 N   0  0  0  0  0  0  0  0  0  0  0  0
    1.2532   -2.9707    1.4349 C   0  0  2  0  0  0  0  0  0  0  0  0
    0.3395   -1.8293    1.0083 C   0  0  0  0  0  0  0  0  0  0  0  0
   -0.8136   -2.0027    0.6194 O   0  0  0  0  0  0  0  0  0  0  0  0
    2.2176   -3.3411    0.3189 C   0  0  0  0  0  0  0  0  0  0  0  0
   -0.2574   -4.4279    1.1287 H   0  0  0  0  0  0  0  0  0  0  0  0
    1.8087   -2.6785    2.3327 H   0  0  0  0  0  0  0  0  0  0  0  0
    1.6793   -3.6366   -0.5890 H   0  0  0  0  0  0  0  0  0  0  0  0
    2.8662   -2.4980    0.0589 H   0  0  0  0  0  0  0  0  0  0  0  0
    2.8538   -4.1816    0.6166 H   0  0  0  0  0  0  0  0  0  0  0  0
    0.9758   -0.5952    1.0708 N   0  0  0  0  0  0  0  0  0  0  0  0
    0.3258    0.6374    0.7059 C   0  0  2  0  0  0  0  0  0  0  0  0
    0.9432    1.7485    1.5484 C   0  0  0  0  0  0  0  0  0  0  0  0
    0.4816    2.1033    2.6312 O   0  0  0  0  0  0  0  0  0  0  0  0
   -1.1897    0.5758    0.9316 C   0  0  0  0  0  0  0  0  0  0  0  0
   -1.9046   -0.4036    0.0016 C   0  0  0  0  0  0  0  0  0  0  0  0
   -3.4198   -0.5319    0.1903 C   0  0  0  0  0  0  0  0  0  0  0  0
   -3.8738    0.0915    1.1927 O   0  5  0  0  0  0  0  0  0  0  0  0
   -4.0347   -1.2208   -0.6697 O   0  0  0  0  0  0  0  0  0  0  0  0
    1.9288   -0.5463    1.4242 H   0  0  0  0  0  0  0  0  0  0  0  0
    0.5658    0.8193   -0.3472 H   0  0  0  0  0  0  0  0  0  0  0  0
   -1.6274    1.5751    0.8155 H   0  0  0  0  0  0  0  0  0  0  0  0
   -1.3901    0.2776    1.9694 H   0  0  0  0  0  0  0  0  0  0  0  0
   -1.6935   -0.1489   -1.0438 H   0  0  0  0  0  0  0  0  0  0  0  0
   -1.4885   -1.4053    0.1685 H   0  0  0  0  0  0  0  0  0  0  0  0
    2.0409    2.3265    0.9260 N   0  0  0  0  0  0  0  0  0  0  0  0
    2.7926    3.4117    1.5125 C   0  0  2  0  0  0  0  0  0  0  0  0
    3.5994    4.0772    0.4054 C   0  0  0  0  0  0  0  0  0  0  0  0
    3.8969    3.5080   -0.6427 O   0  0  0  0  0  0  0  0  0  0  0  0
    3.7026    2.9163    2.6256 C   0  0  0  0  0  0  0  0  0  0  0  0
    2.3612    1.9572    0.0357 H   0  0  0  0  0  0  0  0  0  0  0  0
    2.0616    4.1237    1.9109 H   0  0  0  0  0  0  0  0  0  0  0  0
    4.4419    2.2018    2.2455 H   0  0  0  0  0  0  0  0  0  0  0  0
    4.2504    3.7439    3.0882 H   0  0  0  0  0  0  0  0  0  0  0  0
    3.1238    2.4117    3.4067 H   0  0  0  0  0  0  0  0  0  0  0  0
    3.9850    5.3668    0.7436 N   0  0  0  0  0  0  0  0  0  0  0  0
    4.7698    6.2017   -0.1355 C   0  0  0  0  0  0  0  0  0  0  0  0
    3.6774    5.7651    1.6260 H   0  0  0  0  0  0  0  0  0  0  0  0
    5.8379    6.0767    0.0960 H   0  0  0  0  0  0  0  0  0  0  0  0
    4.5846    5.9102   -1.1799 H   0  0  0  0  0  0  0  0  0  0  0  0
    4.4845    7.2544    0.0075 H   0  0  0  0  0  0  0  0  0  0  0  0
  1  3  1  0  0  0  0
  1  7  1  0  0  0  0
  1  2  2  0  0  0  0
 33 34  1  0  0  0  0
 34 42  1  0  0  0  0
 34 35  2  0  0  0  0
  8  9  1  0  0  0  0
  9 17  1  0  0  0  0
  9 10  2  0  0  0  0
 18 19  1  0  0  0  0
 19 32  1  0  0  0  0
 19 20  2  0  0  0  0
 22 23  1  0  0  0  0
 23 24  1  0  0  0  0
 23 25  2  0  0  0  0
 33 36  1  0  0  0  0
  8 11  1  0  0  0  0
 42 43  1  0  0  0  0
 21 22  1  0  0  0  0
 18 21  1  0  0  0  0
 32 33  1  0  0  0  0
  7  8  1  0  0  0  0
 17 18  1  0  0  0  0
  3  4  1  0  0  0  0
  3  5  1  0  0  0  0
  3  6  1  0  0  0  0
 36 39  1  0  0  0  0
 36 40  1  0  0  0  0
 36 41  1  0  0  0  0
 11 14  1  0  0  0  0
 11 15  1  0  0  0  0
 11 16  1  0  0  0  0
 43 45  1  0  0  0  0
 43 46  1  0  0  0  0
 43 47  1  0  0  0  0
 22 30  1  0  0  0  0
 22 31  1  0  0  0  0
 21 28  1  0  0  0  0
 21 29  1  0  0  0  0
 33 38  1  0  0  0  0
  8 13  1  0  0  0  0
 18 27  1  0  0  0  0
 42 44  1  0  0  0  0
  7 12  1  0  0  0  0
 32 37  1  0  0  0  0
 17 26  1  0  0  0  0
M  CHG  1  24  -1
M  END
$$$$

  -OEChem-05262214473D

 47 46  0     1  0  0  0  0  0999 V2000
    0.5093   -4.7265    3.0306 C   0  0  0  0  0  0  0  0  0  0  0  0
    1.2735   -4.4402    3.9448 O   0  0  0  0  0  0  0  0  0  0  0  0
   -0.4465   -5.8608    3.1982 C   0  0  0  0  0  0  0  0  0  0  0  0
   -0.0219   -6.8213    2.8645 H   0  0  0  0  0  0  0  0  0  0  0  0
   -0.7314   -6.0185    4.2509 H   0  0  0  0  0  0  0  0  0  0  0  0
   -1.3983   -5.7596    2.6527 H   0  0  0  0  0  0  0  0  0  0  0  0
    0.4252   -4.0886    1.8040 N   0  0  0  0  0  0  0  0  0  0  0  0
    1.2532   -2.9707    1.4349 C   0  0  2  0  0  0  0  0  0  0  0  0
    0.3395   -1.8293    1.0083 C   0  0  0  0  0  0  0  0  0  0  0  0
   -0.8136   -2.0027    0.6194 O   0  0  0  0  0  0  0  0  0  0  0  0
    2.2176   -3.3411    0.3189 C   0  0  0  0  0  0  0  0  0  0  0  0
   -0.2574   -4.4279    1.1287 H   0  0  0  0  0  0  0  0  0  0  0  0
    1.8087   -2.6785    2.3327 H   0  0  0  0  0  0  0  0  0  0  0  0
    1.6793   -3.6366   -0.5890 H   0  0  0  0  0  0  0  0  0  0  0  0
    2.8662   -2.4980    0.0589 H   0  0  0  0  0  0  0  0  0  0  0  0
    2.8538   -4.1816    0.6166 H   0  0  0  0  0  0  0  0  0  0  0  0
    0.9758   -0.5952    1.0708 N   0  0  0  0  0  0  0  0  0  0  0  0
    0.3258    0.6374    0.7059 C   0  0  2  0  0  0  0  0  0  0  0  0
    0.9432    1.7485    1.5484 C   0  0  0  0  0  0  0  0  0  0  0  0
    0.6600    1.9284    2.7311 O   0  0  0  0  0  0  0  0  0  0  0  0
   -1.1897    0.5758    0.9316 C   0  0  0  0  0  0  0  0  0  0  0  0
   -1.9046   -0.4036    0.0016 C   0  0  0  0  0  0  0  0  0  0  0  0
   -3.4198   -0.5319    0.1903 C   0  0  0  0  0  0  0  0  0  0  0  0
   -3.8738    0.0915    1.1927 O   0  5  0  0  0  0  0  0  0  0  0  0
   -4.0347   -1.2208   -0.6697 O   0  0  0  0  0  0  0  0  0  0  0  0
    1.9288   -0.5463    1.4242 H   0  0  0  0  0  0  0  0  0  0  0  0
    0.5658    0.8193   -0.3472 H   0  0  0  0  0  0  0  0  0  0  0  0
   -1.6274    1.5751    0.8155 H   0  0  0  0  0  0  0  0  0  0  0  0
   -1.3901    0.2776    1.9694 H   0  0  0  0  0  0  0  0  0  0  0  0
   -1.6935   -0.1489   -1.0438 H   0  0  0  0  0  0  0  0  0  0  0  0
   -1.4885   -1.4053    0.1685 H   0  0  0  0  0  0  0  0  0  0  0  0
    1.8107    2.5419    0.8106 N   0  0  0  0  0  0  0  0  0  0  0  0
    2.5118    3.6714    1.3758 C   0  0  2  0  0  0  0  0  0  0  0  0
    2.9899    4.5506    0.2278 C   0  0  0  0  0  0  0  0  0  0  0  0
    3.1489    4.1314   -0.9168 O   0  0  0  0  0  0  0  0  0  0  0  0
    3.6801    3.2218    2.2392 C   0  0  0  0  0  0  0  0  0  0  0  0
    1.9962    2.3086   -0.1604 H   0  0  0  0  0  0  0  0  0  0  0  0
    1.7851    4.2239    1.9815 H   0  0  0  0  0  0  0  0  0  0  0  0
    4.4187    2.6665    1.6496 H   0  0  0  0  0  0  0  0  0  0  0  0
    4.1930    4.0779    2.6898 H   0  0  0  0  0  0  0  0  0  0  0  0
    3.3381    2.5655    3.0467 H   0  0  0  0  0  0  0  0  0  0  0  0
    3.2594    5.8478    0.6411 N   0  0  0  0  0  0  0  0  0  0  0  0
    3.7384    6.8696   -0.2603 C   0  0  0  0  0  0  0  0  0  0  0  0
    3.0808    6.1123    1.6054 H   0  0  0  0  0  0  0  0  0  0  0  0
    4.8381    6.8889   -0.2424 H   0  0  0  0  0  0  0  0  0  0  0  0
    3.3923    6.6495   -1.2810 H   0  0  0  0  0  0  0  0  0  0  0  0
    3.3494    7.8487    0.0556 H   0  0  0  0  0  0  0  0  0  0  0  0
  1  3  1  0  0  0  0
  1  7  1  0  0  0  0
  1  2  2  0  0  0  0
 33 34  1  0  0  0  0
 34 42  1  0  0  0  0
 34 35  2  0  0  0  0
  8  9  1  0  0  0  0
  9 17  1  0  0  0  0
  9 10  2  0  0  0  0
 18 19  1  0  0  0  0
 19 32  1  0  0  0  0
 19 20  2  0  0  0  0
 22 23  1  0  0  0  0
 23 24  1  0  0  0  0
 23 25  2  0  0  0  0
 33 36  1  0  0  0  0
  8 11  1  0  0  0  0
 42 43  1  0  0  0  0
 21 22  1  0  0  0  0
 18 21  1  0  0  0  0
 32 33  1  0  0  0  0
  7  8  1  0  0  0  0
 17 18  1  0  0  0  0
  3  4  1  0  0  0  0
  3  5  1  0  0  0  0
  3  6  1  0  0  0  0
 36 39  1  0  0  0  0
 36 40  1  0  0  0  0
 36 41  1  0  0  0  0
 11 14  1  0  0  0  0
 11 15  1  0  0  0  0
 11 16  1  0  0  0  0
 43 45  1  0  0  0  0
 43 46  1  0  0  0  0
 43 47  1  0  0  0  0
 22 30  1  0  0  0  0
 22 31  1  0  0  0  0
 21 28  1  0  0  0  0
 21 29  1  0  0  0  0
 33 38  1  0  0  0  0
  8 13  1  0  0  0  0
 18 27  1  0  0  0  0
 42 44  1  0  0  0  0
  7 12  1  0  0  0  0
 32 37  1  0  0  0  0
 17 26  1  0  0  0  0
M  CHG  1  24  -1
M  END
$$$$

  -OEChem-05262214473D

 47 46  0     1  0  0  0  0  0999 V2000
    0.5093   -4.7265    3.0306 C   0  0  0  0  0  0  0  0  0  0  0  0
    1.2735   -4.4402    3.9448 O   0  0  0  0  0  0  0  0  0  0  0  0
   -0.4465   -5.8608    3.1982 C   0  0  0  0  0  0  0  0  0  0  0  0
   -0.0219   -6.8213    2.8645 H   0  0  0  0  0  0  0  0  0  0  0  0
   -0.7314   -6.0185    4.2509 H   0  0  0  0  0  0  0  0  0  0  0  0
   -1.3983   -5.7596    2.6527 H   0  0  0  0  0  0  0  0  0  0  0  0
    0.4252   -4.0886    1.8040 N   0  0  0  0  0  0  0  0  0  0  0  0
    1.2532   -2.9707    1.4349 C   0  0  2  0  0  0  0  0  0  0  0  0
    0.3395   -1.8293    1.0083 C   0  0  0  0  0  0  0  0  0  0  0  0
   -0.8136   -2.0027    0.6194 O   0  0  0  0  0  0  0  0  0  0  0  0
    2.2176   -3.3411    0.3189 C   0  0  0  0  0  0  0  0  0  0  0  0
   -0.2574   -4.4279    1.1287 H   0  0  0  0  0  0  0  0  0  0  0  0
    1.8087   -2.6785    2.3327 H   0  0  0  0  0  0  0  0  0  0  0  0
    1.6793   -3.6366   -0.5890 H   0  0  0  0  0  0  0  0  0  0  0  0
    2.8662   -2.4980    0.0589 H   0  0  0  0  0  0  0  0  0  0  0  0
    2.8538   -4.1816    0.6166 H   0  0  0  0  0  0  0  0  0  0  0  0
    0.9758   -0.5952    1.0708 N   0  0  0  0  0  0  0  0  0  0  0  0
    0.3258    0.6374    0.7059 C   0  0  2  0  0  0  0  0  0  0  0  0
    0.9432    1.7485    1.5484 C   0  0  0  0  0  0  0  0  0  0  0  0
    0.8762    1.7744    2.7757 O   0  0  0  0  0  0  0  0  0  0  0  0
   -1.1897    0.5758    0.9316 C   0  0  0  0  0  0  0  0  0  0  0  0
   -1.9046   -0.4036    0.0016 C   0  0  0  0  0  0  0  0  0  0  0  0
   -3.4198   -0.5319    0.1903 C   0  0  0  0  0  0  0  0  0  0  0  0
   -3.8738    0.0915    1.1927 O   0  5  0  0  0  0  0  0  0  0  0  0
   -4.0347   -1.2208   -0.6697 O   0  0  0  0  0  0  0  0  0  0  0  0
    1.9288   -0.5463    1.4242 H   0  0  0  0  0  0  0  0  0  0  0  0
    0.5658    0.8193   -0.3472 H   0  0  0  0  0  0  0  0  0  0  0  0
   -1.6274    1.5751    0.8155 H   0  0  0  0  0  0  0  0  0  0  0  0
   -1.3901    0.2776    1.9694 H   0  0  0  0  0  0  0  0  0  0  0  0
   -1.6935   -0.1489   -1.0438 H   0  0  0  0  0  0  0  0  0  0  0  0
   -1.4885   -1.4053    0.1685 H   0  0  0  0  0  0  0  0  0  0  0  0
    1.5357    2.7292    0.7651 N   0  0  0  0  0  0  0  0  0  0  0  0
    2.1776    3.8965    1.3239 C   0  0  2  0  0  0  0  0  0  0  0  0
    2.3000    4.9393    0.2208 C   0  0  0  0  0  0  0  0  0  0  0  0
    2.2856    4.6554   -0.9752 O   0  0  0  0  0  0  0  0  0  0  0  0
    3.5418    3.5542    1.9022 C   0  0  0  0  0  0  0  0  0  0  0  0
    1.5565    2.6164   -0.2441 H   0  0  0  0  0  0  0  0  0  0  0  0
    1.5170    4.2737    2.1122 H   0  0  0  0  0  0  0  0  0  0  0  0
    4.2175    3.1745    1.1271 H   0  0  0  0  0  0  0  0  0  0  0  0
    4.0147    4.4341    2.3508 H   0  0  0  0  0  0  0  0  0  0  0  0
    3.4552    2.7825    2.6747 H   0  0  0  0  0  0  0  0  0  0  0  0
    2.4705    6.2193    0.7292 N   0  0  0  0  0  0  0  0  0  0  0  0
    2.6231    7.3802   -0.1164 C   0  0  0  0  0  0  0  0  0  0  0  0
    2.4509    6.3644    1.7344 H   0  0  0  0  0  0  0  0  0  0  0  0
    3.6924    7.5659   -0.2956 H   0  0  0  0  0  0  0  0  0  0  0  0
    2.1159    7.2036   -1.0764 H   0  0  0  0  0  0  0  0  0  0  0  0
    2.1770    8.2554    0.3785 H   0  0  0  0  0  0  0  0  0  0  0  0
  1  3  1  0  0  0  0
  1  7  1  0  0  0  0
  1  2  2  0  0  0  0
 33 34  1  0  0  0  0
 34 42  1  0  0  0  0
 34 35  2  0  0  0  0
  8  9  1  0  0  0  0
  9 17  1  0  0  0  0
  9 10  2  0  0  0  0
 18 19  1  0  0  0  0
 19 32  1  0  0  0  0
 19 20  2  0  0  0  0
 22 23  1  0  0  0  0
 23 24  1  0  0  0  0
 23 25  2  0  0  0  0
 33 36  1  0  0  0  0
  8 11  1  0  0  0  0
 42 43  1  0  0  0  0
 21 22  1  0  0  0  0
 18 21  1  0  0  0  0
 32 33  1  0  0  0  0
  7  8  1  0  0  0  0
 17 18  1  0  0  0  0
  3  4  1  0  0  0  0
  3  5  1  0  0  0  0
  3  6  1  0  0  0  0
 36 39  1  0  0  0  0
 36 40  1  0  0  0  0
 36 41  1  0  0  0  0
 11 14  1  0  0  0  0
 11 15  1  0  0  0  0
 11 16  1  0  0  0  0
 43 45  1  0  0  0  0
 43 46  1  0  0  0  0
 43 47  1  0  0  0  0
 22 30  1  0  0  0  0
 22 31  1  0  0  0  0
 21 28  1  0  0  0  0
 21 29  1  0  0  0  0
 33 38  1  0  0  0  0
  8 13  1  0  0  0  0
 18 27  1  0  0  0  0
 42 44  1  0  0  0  0
  7 12  1  0  0  0  0
 32 37  1  0  0  0  0
 17 26  1  0  0  0  0
M  CHG  1  24  -1
M  END
$$$$

  -OEChem-05262214473D

 47 46  0     1  0  0  0  0  0999 V2000
    0.5093   -4.7265    3.0306 C   0  0  0  0  0  0  0  0  0  0  0  0
    1.2735   -4.4402    3.9448 O   0  0  0  0  0  0  0  0  0  0  0  0
   -0.4465   -5.8608    3.1982 C   0  0  0  0  0  0  0  0  0  0  0  0
   -0.0219   -6.8213    2.8645 H   0  0  0  0  0  0  0  0  0  0  0  0
   -0.7314   -6.0185    4.2509 H   0  0  0  0  0  0  0  0  0  0  0  0
   -1.3983   -5.7596    2.6527 H   0  0  0  0  0  0  0  0  0  0  0  0
    0.4252   -4.0886    1.8040 N   0  0  0  0  0  0  0  0  0  0  0  0
    1.2532   -2.9707    1.4349 C   0  0  2  0  0  0  0  0  0  0  0  0
    0.3395   -1.8293    1.0083 C   0  0  0  0  0  0  0  0  0  0  0  0
   -0.8136   -2.0027    0.6194 O   0  0  0  0  0  0  0  0  0  0  0  0
    2.2176   -3.3411    0.3189 C   0  0  0  0  0  0  0  0  0  0  0  0
   -0.2574   -4.4279    1.1287 H   0  0  0  0  0  0  0  0  0  0  0  0
    1.8087   -2.6785    2.3327 H   0  0  0  0  0  0  0  0  0  0  0  0
    1.6793   -3.6366   -0.5890 H   0  0  0  0  0  0  0  0  0  0  0  0
    2.8662   -2.4980    0.0589 H   0  0  0  0  0  0  0  0  0  0  0  0
    2.8538   -4.1816    0.6166 H   0  0  0  0  0  0  0  0  0  0  0  0
    0.9758   -0.5952    1.0708 N   0  0  0  0  0  0  0  0  0  0  0  0
    0.3258    0.6374    0.7059 C   0  0  2  0  0  0  0  0  0  0  0  0
    0.9432    1.7485    1.5484 C   0  0  0  0  0  0  0  0  0  0  0  0
    1.1154    1.6520    2.7618 O   0  0  0  0  0  0  0  0  0  0  0  0
   -1.1897    0.5758    0.9316 C   0  0  0  0  0  0  0  0  0  0  0  0
   -1.9046   -0.4036    0.0016 C   0  0  0  0  0  0  0  0  0  0  0  0
   -3.4198   -0.5319    0.1903 C   0  0  0  0  0  0  0  0  0  0  0  0
   -3.8738    0.0915    1.1927 O   0  5  0  0  0  0  0  0  0  0  0  0
   -4.0347   -1.2208   -0.6697 O   0  0  0  0  0  0  0  0  0  0  0  0
    1.9288   -0.5463    1.4242 H   0  0  0  0  0  0  0  0  0  0  0  0
    0.5658    0.8193   -0.3472 H   0  0  0  0  0  0  0  0  0  0  0  0
   -1.6274    1.5751    0.8155 H   0  0  0  0  0  0  0  0  0  0  0  0
   -1.3901    0.2776    1.9694 H   0  0  0  0  0  0  0  0  0  0  0  0
   -1.6935   -0.1489   -1.0438 H   0  0  0  0  0  0  0  0  0  0  0  0
   -1.4885   -1.4053    0.1685 H   0  0  0  0  0  0  0  0  0  0  0  0
    1.2348    2.8755    0.7927 N   0  0  0  0  0  0  0  0  0  0  0  0
    1.8128    4.0715    1.3604 C   0  0  2  0  0  0  0  0  0  0  0  0
    1.5767    5.2168    0.3848 C   0  0  0  0  0  0  0  0  0  0  0  0
    1.3658    5.0442   -0.8139 O   0  0  0  0  0  0  0  0  0  0  0  0
    3.2971    3.8908    1.6376 C   0  0  0  0  0  0  0  0  0  0  0  0
    1.0720    2.8597   -0.2098 H   0  0  0  0  0  0  0  0  0  0  0  0
    1.2756    4.2698    2.2943 H   0  0  0  0  0  0  0  0  0  0  0  0
    3.8520    3.6912    0.7136 H   0  0  0  0  0  0  0  0  0  0  0  0
    3.7276    4.7882    2.0942 H   0  0  0  0  0  0  0  0  0  0  0  0
    3.4672    3.0479    2.3161 H   0  0  0  0  0  0  0  0  0  0  0  0
    1.6719    6.4562    1.0021 N   0  0  0  0  0  0  0  0  0  0  0  0
    1.4999    7.6989    0.2864 C   0  0  0  0  0  0  0  0  0  0  0  0
    1.8308    6.5045    2.0041 H   0  0  0  0  0  0  0  0  0  0  0  0
    2.4790    8.0616   -0.0600 H   0  0  0  0  0  0  0  0  0  0  0  0
    0.8423    7.5350   -0.5800 H   0  0  0  0  0  0  0  0  0  0  0  0
    1.0473    8.4468    0.9541 H   0  0  0  0  0  0  0  0  0  0  0  0
  1  3  1  0  0  0  0
  1  7  1  0  0  0  0
  1  2  2  0  0  0  0
 33 34  1  0  0  0  0
 34 42  1  0  0  0  0
 34 35  2  0  0  0  0
  8  9  1  0  0  0  0
  9 17  1  0  0  0  0
  9 10  2  0  0  0  0
 18 19  1  0  0  0  0
 19 32  1  0  0  0  0
 19 20  2  0  0  0  0
 22 23  1  0  0  0  0
 23 24  1  0  0  0  0
 23 25  2  0  0  0  0
 33 36  1  0  0  0  0
  8 11  1  0  0  0  0
 42 43  1  0  0  0  0
 21 22  1  0  0  0  0
 18 21  1  0  0  0  0
 32 33  1  0  0  0  0
  7  8  1  0  0  0  0
 17 18  1  0  0  0  0
  3  4  1  0  0  0  0
  3  5  1  0  0  0  0
  3  6  1  0  0  0  0
 36 39  1  0  0  0  0
 36 40  1  0  0  0  0
 36 41  1  0  0  0  0
 11 14  1  0  0  0  0
 11 15  1  0  0  0  0
 11 16  1  0  0  0  0
 43 45  1  0  0  0  0
 43 46  1  0  0  0  0
 43 47  1  0  0  0  0
 22 30  1  0  0  0  0
 22 31  1  0  0  0  0
 21 28  1  0  0  0  0
 21 29  1  0  0  0  0
 33 38  1  0  0  0  0
  8 13  1  0  0  0  0
 18 27  1  0  0  0  0
 42 44  1  0  0  0  0
  7 12  1  0  0  0  0
 32 37  1  0  0  0  0
 17 26  1  0  0  0  0
M  CHG  1  24  -1
M  END
$$$$

  -OEChem-05262214473D

 47 46  0     1  0  0  0  0  0999 V2000
    0.5093   -4.7265    3.0306 C   0  0  0  0  0  0  0  0  0  0  0  0
    1.2735   -4.4402    3.9448 O   0  0  0  0  0  0  0  0  0  0  0  0
   -0.4465   -5.8608    3.1982 C   0  0  0  0  0  0  0  0  0  0  0  0
   -0.0219   -6.8213    2.8645 H   0  0  0  0  0  0  0  0  0  0  0  0
   -0.7314   -6.0185    4.2509 H   0  0  0  0  0  0  0  0  0  0  0  0
   -1.3983   -5.7596    2.6527 H   0  0  0  0  0  0  0  0  0  0  0  0
    0.4252   -4.0886    1.8040 N   0  0  0  0  0  0  0  0  0  0  0  0
    1.2532   -2.9707    1.4349 C   0  0  2  0  0  0  0  0  0  0  0  0
    0.3395   -1.8293    1.0083 C   0  0  0  0  0  0  0  0  0  0  0  0
   -0.8136   -2.0027    0.6194 O   0  0  0  0  0  0  0  0  0  0  0  0
    2.2176   -3.3411    0.3189 C   0  0  0  0  0  0  0  0  0  0  0  0
   -0.2574   -4.4279    1.1287 H   0  0  0  0  0  0  0  0  0  0  0  0
    1.8087   -2.6785    2.3327 H   0  0  0  0  0  0  0  0  0  0  0  0
    1.6793   -3.6366   -0.5890 H   0  0  0  0  0  0  0  0  0  0  0  0
    2.8662   -2.4980    0.0589 H   0  0  0  0  0  0  0  0  0  0  0  0
    2.8538   -4.1816    0.6166 H   0  0  0  0  0  0  0  0  0  0  0  0
    0.9758   -0.5952    1.0708 N   0  0  0  0  0  0  0  0  0  0  0  0
    0.3258    0.6374    0.7059 C   0  0  2  0  0  0  0  0  0  0  0  0
    0.9432    1.7485    1.5484 C   0  0  0  0  0  0  0  0  0  0  0  0
    1.3614    1.5694    2.6905 O   0  0  0  0  0  0  0  0  0  0  0  0
   -1.1897    0.5758    0.9316 C   0  0  0  0  0  0  0  0  0  0  0  0
   -1.9046   -0.4036    0.0016 C   0  0  0  0  0  0  0  0  0  0  0  0
   -3.4198   -0.5319    0.1903 C   0  0  0  0  0  0  0  0  0  0  0  0
   -3.8738    0.0915    1.1927 O   0  5  0  0  0  0  0  0  0  0  0  0
   -4.0347   -1.2208   -0.6697 O   0  0  0  0  0  0  0  0  0  0  0  0
    1.9288   -0.5463    1.4242 H   0  0  0  0  0  0  0  0  0  0  0  0
    0.5658    0.8193   -0.3472 H   0  0  0  0  0  0  0  0  0  0  0  0
   -1.6274    1.5751    0.8155 H   0  0  0  0  0  0  0  0  0  0  0  0
   -1.3901    0.2776    1.9694 H   0  0  0  0  0  0  0  0  0  0  0  0
   -1.6935   -0.1489   -1.0438 H   0  0  0  0  0  0  0  0  0  0  0  0
   -1.4885   -1.4053    0.1685 H   0  0  0  0  0  0  0  0  0  0  0  0
    0.9284    2.9710    0.8914 N   0  0  0  0  0  0  0  0  0  0  0  0
    1.4423    4.1845    1.4828 C   0  0  2  0  0  0  0  0  0  0  0  0
    0.8692    5.3643    0.7087 C   0  0  0  0  0  0  0  0  0  0  0  0
    0.4522    5.2714   -0.4439 O   0  0  0  0  0  0  0  0  0  0  0  0
    2.9628    4.2087    1.4634 C   0  0  0  0  0  0  0  0  0  0  0  0
    0.5756    3.0217   -0.0598 H   0  0  0  0  0  0  0  0  0  0  0  0
    1.0773    4.2124    2.5153 H   0  0  0  0  0  0  0  0  0  0  0  0
    3.3470    4.1813    0.4372 H   0  0  0  0  0  0  0  0  0  0  0  0
    3.3513    5.1160    1.9377 H   0  0  0  0  0  0  0  0  0  0  0  0
    3.3731    3.3435    1.9952 H   0  0  0  0  0  0  0  0  0  0  0  0
    0.9181    6.5422    1.4411 N   0  0  0  0  0  0  0  0  0  0  0  0
    0.4454    7.8039    0.9207 C   0  0  0  0  0  0  0  0  0  0  0  0
    1.2627    6.5228    2.3964 H   0  0  0  0  0  0  0  0  0  0  0  0
    1.2804    8.3422    0.4483 H   0  0  0  0  0  0  0  0  0  0  0  0
   -0.3417    7.6209    0.1744 H   0  0  0  0  0  0  0  0  0  0  0  0
    0.0372    8.4098    1.7431 H   0  0  0  0  0  0  0  0  0  0  0  0
  1  3  1  0  0  0  0
  1  7  1  0  0  0  0
  1  2  2  0  0  0  0
 33 34  1  0  0  0  0
 34 42  1  0  0  0  0
 34 35  2  0  0  0  0
  8  9  1  0  0  0  0
  9 17  1  0  0  0  0
  9 10  2  0  0  0  0
 18 19  1  0  0  0  0
 19 32  1  0  0  0  0
 19 20  2  0  0  0  0
 22 23  1  0  0  0  0
 23 24  1  0  0  0  0
 23 25  2  0  0  0  0
 33 36  1  0  0  0  0
  8 11  1  0  0  0  0
 42 43  1  0  0  0  0
 21 22  1  0  0  0  0
 18 21  1  0  0  0  0
 32 33  1  0  0  0  0
  7  8  1  0  0  0  0
 17 18  1  0  0  0  0
  3  4  1  0  0  0  0
  3  5  1  0  0  0  0
  3  6  1  0  0  0  0
 36 39  1  0  0  0  0
 36 40  1  0  0  0  0
 36 41  1  0  0  0  0
 11 14  1  0  0  0  0
 11 15  1  0  0  0  0
 11 16  1  0  0  0  0
 43 45  1  0  0  0  0
 43 46  1  0  0  0  0
 43 47  1  0  0  0  0
 22 30  1  0  0  0  0
 22 31  1  0  0  0  0
 21 28  1  0  0  0  0
 21 29  1  0  0  0  0
 33 38  1  0  0  0  0
  8 13  1  0  0  0  0
 18 27  1  0  0  0  0
 42 44  1  0  0  0  0
  7 12  1  0  0  0  0
 32 37  1  0  0  0  0
 17 26  1  0  0  0  0
M  CHG  1  24  -1
M  END
$$$$

  -OEChem-05262214473D

 47 46  0     1  0  0  0  0  0999 V2000
    0.5093   -4.7265    3.0306 C   0  0  0  0  0  0  0  0  0  0  0  0
    1.2735   -4.4402    3.9448 O   0  0  0  0  0  0  0  0  0  0  0  0
   -0.4465   -5.8608    3.1982 C   0  0  0  0  0  0  0  0  0  0  0  0
   -0.0219   -6.8213    2.8645 H   0  0  0  0  0  0  0  0  0  0  0  0
   -0.7314   -6.0185    4.2509 H   0  0  0  0  0  0  0  0  0  0  0  0
   -1.3983   -5.7596    2.6527 H   0  0  0  0  0  0  0  0  0  0  0  0
    0.4252   -4.0886    1.8040 N   0  0  0  0  0  0  0  0  0  0  0  0
    1.2532   -2.9707    1.4349 C   0  0  2  0  0  0  0  0  0  0  0  0
    0.3395   -1.8293    1.0083 C   0  0  0  0  0  0  0  0  0  0  0  0
   -0.8136   -2.0027    0.6194 O   0  0  0  0  0  0  0  0  0  0  0  0
    2.2176   -3.3411    0.3189 C   0  0  0  0  0  0  0  0  0  0  0  0
   -0.2574   -4.4279    1.1287 H   0  0  0  0  0  0  0  0  0  0  0  0
    1.8087   -2.6785    2.3327 H   0  0  0  0  0  0  0  0  0  0  0  0
    1.6793   -3.6366   -0.5890 H   0  0  0  0  0  0  0  0  0  0  0  0
    2.8662   -2.4980    0.0589 H   0  0  0  0  0  0  0  0  0  0  0  0
    2.8538   -4.1816    0.6166 H   0  0  0  0  0  0  0  0  0  0  0  0
    0.9758   -0.5952    1.0708 N   0  0  0  0  0  0  0  0  0  0  0  0
    0.3258    0.6374    0.7059 C   0  0  2  0  0  0  0  0  0  0  0  0
    0.9432    1.7485    1.5484 C   0  0  0  0  0  0  0  0  0  0  0  0
    1.5974    1.5322    2.5666 O   0  0  0  0  0  0  0  0  0  0  0  0
   -1.1897    0.5758    0.9316 C   0  0  0  0  0  0  0  0  0  0  0  0
   -1.9046   -0.4036    0.0016 C   0  0  0  0  0  0  0  0  0  0  0  0
   -3.4198   -0.5319    0.1903 C   0  0  0  0  0  0  0  0  0  0  0  0
   -3.8738    0.0915    1.1927 O   0  5  0  0  0  0  0  0  0  0  0  0
   -4.0347   -1.2208   -0.6697 O   0  0  0  0  0  0  0  0  0  0  0  0
    1.9288   -0.5463    1.4242 H   0  0  0  0  0  0  0  0  0  0  0  0
    0.5658    0.8193   -0.3472 H   0  0  0  0  0  0  0  0  0  0  0  0
   -1.6274    1.5751    0.8155 H   0  0  0  0  0  0  0  0  0  0  0  0
   -1.3901    0.2776    1.9694 H   0  0  0  0  0  0  0  0  0  0  0  0
   -1.6935   -0.1489   -1.0438 H   0  0  0  0  0  0  0  0  0  0  0  0
   -1.4885   -1.4053    0.1685 H   0  0  0  0  0  0  0  0  0  0  0  0
    0.6374    3.0090    1.0545 N   0  0  0  0  0  0  0  0  0  0  0  0
    1.0914    4.2280    1.6828 C   0  0  2  0  0  0  0  0  0  0  0  0
    0.2259    5.3717    1.1705 C   0  0  0  0  0  0  0  0  0  0  0  0
   -0.3931    5.3214    0.1097 O   0  0  0  0  0  0  0  0  0  0  0  0
    2.5615    4.4862    1.3915 C   0  0  0  0  0  0  0  0  0  0  0  0
    0.1013    3.0916    0.1957 H   0  0  0  0  0  0  0  0  0  0  0  0
    0.9356    4.1055    2.7601 H   0  0  0  0  0  0  0  0  0  0  0  0
    2.7371    4.6115    0.3169 H   0  0  0  0  0  0  0  0  0  0  0  0
    2.9114    5.3952    1.8918 H   0  0  0  0  0  0  0  0  0  0  0  0
    3.1795    3.6492    1.7339 H   0  0  0  0  0  0  0  0  0  0  0  0
    0.2605    6.4715    2.0162 N   0  0  0  0  0  0  0  0  0  0  0  0
   -0.4685    7.6881    1.7432 C   0  0  0  0  0  0  0  0  0  0  0  0
    0.7852    6.4181    2.8843 H   0  0  0  0  0  0  0  0  0  0  0  0
    0.1784    8.3886    1.1948 H   0  0  0  0  0  0  0  0  0  0  0  0
   -1.3553    7.4555    1.1354 H   0  0  0  0  0  0  0  0  0  0  0  0
   -0.7843    8.1469    2.6918 H   0  0  0  0  0  0  0  0  0  0  0  0
  1  3  1  0  0  0  0
  1  7  1  0  0  0  0
  1  2  2  0  0  0  0
 33 34  1  0  0  0  0
 34 42  1  0  0  0  0
 34 35  2  0  0  0  0
  8  9  1  0  0  0  0
  9 17  1  0  0  0  0
  9 10  2  0  0  0  0
 18 19  1  0  0  0  0
 19 32  1  0  0  0  0
 19 20  2  0  0  0  0
 22 23  1  0  0  0  0
 23 24  1  0  0  0  0
 23 25  2  0  0  0  0
 33 36  1  0  0  0  0
  8 11  1  0  0  0  0
 42 43  1  0  0  0  0
 21 22  1  0  0  0  0
 18 21  1  0  0  0  0
 32 33  1  0  0  0  0
  7  8  1  0  0  0  0
 17 18  1  0  0  0  0
  3  4  1  0  0  0  0
  3  5  1  0  0  0  0
  3  6  1  0  0  0  0
 36 39  1  0  0  0  0
 36 40  1  0  0  0  0
 36 41  1  0  0  0  0
 11 14  1  0  0  0  0
 11 15  1  0  0  0  0
 11 16  1  0  0  0  0
 43 45  1  0  0  0  0
 43 46  1  0  0  0  0
 43 47  1  0  0  0  0
 22 30  1  0  0  0  0
 22 31  1  0  0  0  0
 21 28  1  0  0  0  0
 21 29  1  0  0  0  0
 33 38  1  0  0  0  0
  8 13  1  0  0  0  0
 18 27  1  0  0  0  0
 42 44  1  0  0  0  0
  7 12  1  0  0  0  0
 32 37  1  0  0  0  0
 17 26  1  0  0  0  0
M  CHG  1  24  -1
M  END
$$$$

  -OEChem-05262214473D

 47 46  0     1  0  0  0  0  0999 V2000
    0.5093   -4.7265    3.0306 C   0  0  0  0  0  0  0  0  0  0  0  0
    1.2735   -4.4402    3.9448 O   0  0  0  0  0  0  0  0  0  0  0  0
   -0.4465   -5.8608    3.1982 C   0  0  0  0  0  0  0  0  0  0  0  0
   -0.0219   -6.8213    2.8645 H   0  0  0  0  0  0  0  0  0  0  0  0
   -0.7314   -6.0185    4.2509 H   0  0  0  0  0  0  0  0  0  0  0  0
   -1.3983   -5.7596    2.6527 H   0  0  0  0  0  0  0  0  0  0  0  0
    0.4252   -4.0886    1.8040 N   0  0  0  0  0  0  0  0  0  0  0  0
    1.2532   -2.9707    1.4349 C   0  0  2  0  0  0  0  0  0  0  0  0
    0.3395   -1.8293    1.0083 C   0  0  0  0  0  0  0  0  0  0  0  0
   -0.8136   -2.0027    0.6194 O   0  0  0  0  0  0  0  0  0  0  0  0
    2.2176   -3.3411    0.3189 C   0  0  0  0  0  0  0  0  0  0  0  0
   -0.2574   -4.4279    1.1287 H   0  0  0  0  0  0  0  0  0  0  0  0
    1.8087   -2.6785    2.3327 H   0  0  0  0  0  0  0  0  0  0  0  0
    1.6793   -3.6366   -0.5890 H   0  0  0  0  0  0  0  0  0  0  0  0
    2.8662   -2.4980    0.0589 H   0  0  0  0  0  0  0  0  0  0  0  0
    2.8538   -4.1816    0.6166 H   0  0  0  0  0  0  0  0  0  0  0  0
    0.9758   -0.5952    1.0708 N   0  0  0  0  0  0  0  0  0  0  0  0
    0.3258    0.6374    0.7059 C   0  0  2  0  0  0  0  0  0  0  0  0
    1.1746    1.7819    1.2493 C   0  0  0  0  0  0  0  0  0  0  0  0
    2.1959    1.6034    1.9097 O   0  0  0  0  0  0  0  0  0  0  0  0
   -1.1009    0.7204    1.2617 C   0  0  0  0  0  0  0  0  0  0  0  0
   -2.0574   -0.2955    0.6386 C   0  0  0  0  0  0  0  0  0  0  0  0
   -3.4957   -0.2827    1.1668 C   0  0  0  0  0  0  0  0  0  0  0  0
   -3.6788    0.4804    2.1587 O   0  5  0  0  0  0  0  0  0  0  0  0
   -4.3238   -1.0111    0.5536 O   0  0  0  0  0  0  0  0  0  0  0  0
    1.9288   -0.5463    1.4242 H   0  0  0  0  0  0  0  0  0  0  0  0
    0.3315    0.6835   -0.3885 H   0  0  0  0  0  0  0  0  0  0  0  0
   -1.5005    1.7323    1.1205 H   0  0  0  0  0  0  0  0  0  0  0  0
   -1.0777    0.5542    2.3471 H   0  0  0  0  0  0  0  0  0  0  0  0
   -2.0743   -0.1742   -0.4511 H   0  0  0  0  0  0  0  0  0  0  0  0
   -1.6675   -1.3027    0.8340 H   0  0  0  0  0  0  0  0  0  0  0  0
    0.6306    3.0230    0.9489 N   0  0  0  0  0  0  0  0  0  0  0  0
    1.2377    4.2659    1.3651 C   0  0  2  0  0  0  0  0  0  0  0  0
    0.1817    5.3594    1.2725 C   0  0  0  0  0  0  0  0  0  0  0  0
   -0.8113    5.2737    0.5530 O   0  0  0  0  0  0  0  0  0  0  0  0
    2.4476    4.6048    0.5083 C   0  0  0  0  0  0  0  0  0  0  0  0
   -0.2115    3.0748    0.3833 H   0  0  0  0  0  0  0  0  0  0  0  0
    1.5394    4.1363    2.4102 H   0  0  0  0  0  0  0  0  0  0  0  0
    2.1650    4.7385   -0.5423 H   0  0  0  0  0  0  0  0  0  0  0  0
    2.9236    5.5324    0.8431 H   0  0  0  0  0  0  0  0  0  0  0  0
    3.1932    3.8037    0.5525 H   0  0  0  0  0  0  0  0  0  0  0  0
    0.5005    6.4605    2.0549 N   0  0  0  0  0  0  0  0  0  0  0  0
   -0.3376    7.6345    2.1272 C   0  0  0  0  0  0  0  0  0  0  0  0
    1.3346    6.4372    2.6342 H   0  0  0  0  0  0  0  0  0  0  0  0
   -0.0059    8.3691    1.3786 H   0  0  0  0  0  0  0  0  0  0  0  0
   -1.3817    7.3524    1.9263 H   0  0  0  0  0  0  0  0  0  0  0  0
   -0.2639    8.0762    3.1319 H   0  0  0  0  0  0  0  0  0  0  0  0
  1  3  1  0  0  0  0
  1  7  1  0  0  0  0
  1  2  2  0  0  0  0
 33 34  1  0  0  0  0
 34 42  1  0  0  0  0
 34 35  2  0  0  0  0
  8  9  1  0  0  0  0
  9 17  1  0  0  0  0
  9 10  2  0  0  0  0
 18 19  1  0  0  0  0
 19 32  1  0  0  0  0
 19 20  2  0  0  0  0
 22 23  1  0  0  0  0
 23 24  1  0  0  0  0
 23 25  2  0  0  0  0
 33 36  1  0  0  0  0
  8 11  1  0  0  0  0
 42 43  1  0  0  0  0
 21 22  1  0  0  0  0
 18 21  1  0  0  0  0
 32 33  1  0  0  0  0
  7  8  1  0  0  0  0
 17 18  1  0  0  0  0
  3  4  1  0  0  0  0
  3  5  1  0  0  0  0
  3  6  1  0  0  0  0
 36 39  1  0  0  0  0
 36 40  1  0  0  0  0
 36 41  1  0  0  0  0
 11 14  1  0  0  0  0
 11 15  1  0  0  0  0
 11 16  1  0  0  0  0
 43 45  1  0  0  0  0
 43 46  1  0  0  0  0
 43 47  1  0  0  0  0
 22 30  1  0  0  0  0
 22 31  1  0  0  0  0
 21 28  1  0  0  0  0
 21 29  1  0  0  0  0
 33 38  1  0  0  0  0
  8 13  1  0  0  0  0
 18 27  1  0  0  0  0
 42 44  1  0  0  0  0
  7 12  1  0  0  0  0
 32 37  1  0  0  0  0
 17 26  1  0  0  0  0
M  CHG  1  24  -1
M  END
$$$$

  -OEChem-05262214473D

 47 46  0     1  0  0  0  0  0999 V2000
    0.5093   -4.7265    3.0306 C   0  0  0  0  0  0  0  0  0  0  0  0
    1.2735   -4.4402    3.9448 O   0  0  0  0  0  0  0  0  0  0  0  0
   -0.4465   -5.8608    3.1982 C   0  0  0  0  0  0  0  0  0  0  0  0
   -0.0219   -6.8213    2.8645 H   0  0  0  0  0  0  0  0  0  0  0  0
   -0.7314   -6.0185    4.2509 H   0  0  0  0  0  0  0  0  0  0  0  0
   -1.3983   -5.7596    2.6527 H   0  0  0  0  0  0  0  0  0  0  0  0
    0.4252   -4.0886    1.8040 N   0  0  0  0  0  0  0  0  0  0  0  0
    1.2532   -2.9707    1.4349 C   0  0  2  0  0  0  0  0  0  0  0  0
    0.3395   -1.8293    1.0083 C   0  0  0  0  0  0  0  0  0  0  0  0
   -0.8136   -2.0027    0.6194 O   0  0  0  0  0  0  0  0  0  0  0  0
    2.2176   -3.3411    0.3189 C   0  0  0  0  0  0  0  0  0  0  0  0
   -0.2574   -4.4279    1.1287 H   0  0  0  0  0  0  0  0  0  0  0  0
    1.8087   -2.6785    2.3327 H   0  0  0  0  0  0  0  0  0  0  0  0
    1.6793   -3.6366   -0.5890 H   0  0  0  0  0  0  0  0  0  0  0  0
    2.8662   -2.4980    0.0589 H   0  0  0  0  0  0  0  0  0  0  0  0
    2.8538   -4.1816    0.6166 H   0  0  0  0  0  0  0  0  0  0  0  0
    0.9758   -0.5952    1.0708 N   0  0  0  0  0  0  0  0  0  0  0  0
    0.3258    0.6374    0.7059 C   0  0  2  0  0  0  0  0  0  0  0  0
    1.1746    1.7819    1.2493 C   0  0  0  0  0  0  0  0  0  0  0  0
    2.3186    1.6256    1.6712 O   0  0  0  0  0  0  0  0  0  0  0  0
   -1.1009    0.7204    1.2617 C   0  0  0  0  0  0  0  0  0  0  0  0
   -2.0574   -0.2955    0.6386 C   0  0  0  0  0  0  0  0  0  0  0  0
   -3.4957   -0.2827    1.1668 C   0  0  0  0  0  0  0  0  0  0  0  0
   -3.6788    0.4804    2.1587 O   0  5  0  0  0  0  0  0  0  0  0  0
   -4.3238   -1.0111    0.5536 O   0  0  0  0  0  0  0  0  0  0  0  0
    1.9288   -0.5463    1.4242 H   0  0  0  0  0  0  0  0  0  0  0  0
    0.3315    0.6835   -0.3885 H   0  0  0  0  0  0  0  0  0  0  0  0
   -1.5005    1.7323    1.1205 H   0  0  0  0  0  0  0  0  0  0  0  0
   -1.0777    0.5542    2.3471 H   0  0  0  0  0  0  0  0  0  0  0  0
   -2.0743   -0.1742   -0.4511 H   0  0  0  0  0  0  0  0  0  0  0  0
   -1.6675   -1.3027    0.8340 H   0  0  0  0  0  0  0  0  0  0  0  0
    0.4862    2.9872    1.2500 N   0  0  0  0  0  0  0  0  0  0  0  0
    1.0658    4.2201    1.7302 C   0  0  2  0  0  0  0  0  0  0  0  0
   -0.0693    5.1973    2.0059 C   0  0  0  0  0  0  0  0  0  0  0  0
   -1.1769    5.1043    1.4809 O   0  0  0  0  0  0  0  0  0  0  0  0
    2.0486    4.7983    0.7240 C   0  0  0  0  0  0  0  0  0  0  0  0
   -0.4538    3.0249    0.8670 H   0  0  0  0  0  0  0  0  0  0  0  0
    1.5806    3.9834    2.6678 H   0  0  0  0  0  0  0  0  0  0  0  0
    1.5510    5.0417   -0.2219 H   0  0  0  0  0  0  0  0  0  0  0  0
    2.5083    5.7176    1.1017 H   0  0  0  0  0  0  0  0  0  0  0  0
    2.8481    4.0825    0.5045 H   0  0  0  0  0  0  0  0  0  0  0  0
    0.3135    6.2104    2.8739 N   0  0  0  0  0  0  0  0  0  0  0  0
   -0.5820    7.2680    3.2810 C   0  0  0  0  0  0  0  0  0  0  0  0
    1.2462    6.1980    3.2760 H   0  0  0  0  0  0  0  0  0  0  0  0
   -0.4658    8.1280    2.6050 H   0  0  0  0  0  0  0  0  0  0  0  0
   -1.6199    6.9061    3.2387 H   0  0  0  0  0  0  0  0  0  0  0  0
   -0.3425    7.5753    4.3097 H   0  0  0  0  0  0  0  0  0  0  0  0
  1  3  1  0  0  0  0
  1  7  1  0  0  0  0
  1  2  2  0  0  0  0
 33 34  1  0  0  0  0
 34 42  1  0  0  0  0
 34 35  2  0  0  0  0
  8  9  1  0  0  0  0
  9 17  1  0  0  0  0
  9 10  2  0  0  0  0
 18 19  1  0  0  0  0
 19 32  1  0  0  0  0
 19 20  2  0  0  0  0
 22 23  1  0  0  0  0
 23 24  1  0  0  0  0
 23 25  2  0  0  0  0
 33 36  1  0  0  0  0
  8 11  1  0  0  0  0
 42 43  1  0  0  0  0
 21 22  1  0  0  0  0
 18 21  1  0  0  0  0
 32 33  1  0  0  0  0
  7  8  1  0  0  0  0
 17 18  1  0  0  0  0
  3  4  1  0  0  0  0
  3  5  1  0  0  0  0
  3  6  1  0  0  0  0
 36 39  1  0  0  0  0
 36 40  1  0  0  0  0
 36 41  1  0  0  0  0
 11 14  1  0  0  0  0
 11 15  1  0  0  0  0
 11 16  1  0  0  0  0
 43 45  1  0  0  0  0
 43 46  1  0  0  0  0
 43 47  1  0  0  0  0
 22 30  1  0  0  0  0
 22 31  1  0  0  0  0
 21 28  1  0  0  0  0
 21 29  1  0  0  0  0
 33 38  1  0  0  0  0
  8 13  1  0  0  0  0
 18 27  1  0  0  0  0
 42 44  1  0  0  0  0
  7 12  1  0  0  0  0
 32 37  1  0  0  0  0
 17 26  1  0  0  0  0
M  CHG  1  24  -1
M  END
$$$$

  -OEChem-05262214473D

 47 46  0     1  0  0  0  0  0999 V2000
    0.5093   -4.7265    3.0306 C   0  0  0  0  0  0  0  0  0  0  0  0
    1.2735   -4.4402    3.9448 O   0  0  0  0  0  0  0  0  0  0  0  0
   -0.4465   -5.8608    3.1982 C   0  0  0  0  0  0  0  0  0  0  0  0
   -0.0219   -6.8213    2.8645 H   0  0  0  0  0  0  0  0  0  0  0  0
   -0.7314   -6.0185    4.2509 H   0  0  0  0  0  0  0  0  0  0  0  0
   -1.3983   -5.7596    2.6527 H   0  0  0  0  0  0  0  0  0  0  0  0
    0.4252   -4.0886    1.8040 N   0  0  0  0  0  0  0  0  0  0  0  0
    1.2532   -2.9707    1.4349 C   0  0  2  0  0  0  0  0  0  0  0  0
    0.3395   -1.8293    1.0083 C   0  0  0  0  0  0  0  0  0  0  0  0
   -0.8136   -2.0027    0.6194 O   0  0  0  0  0  0  0  0  0  0  0  0
    2.2176   -3.3411    0.3189 C   0  0  0  0  0  0  0  0  0  0  0  0
   -0.2574   -4.4279    1.1287 H   0  0  0  0  0  0  0  0  0  0  0  0
    1.8087   -2.6785    2.3327 H   0  0  0  0  0  0  0  0  0  0  0  0
    1.6793   -3.6366   -0.5890 H   0  0  0  0  0  0  0  0  0  0  0  0
    2.8662   -2.4980    0.0589 H   0  0  0  0  0  0  0  0  0  0  0  0
    2.8538   -4.1816    0.6166 H   0  0  0  0  0  0  0  0  0  0  0  0
    0.9758   -0.5952    1.0708 N   0  0  0  0  0  0  0  0  0  0  0  0
    0.3258    0.6374    0.7059 C   0  0  2  0  0  0  0  0  0  0  0  0
    1.1746    1.7819    1.2493 C   0  0  0  0  0  0  0  0  0  0  0  0
    2.3887    1.6928    1.4202 O   0  0  0  0  0  0  0  0  0  0  0  0
   -1.1009    0.7204    1.2617 C   0  0  0  0  0  0  0  0  0  0  0  0
   -2.0574   -0.2955    0.6386 C   0  0  0  0  0  0  0  0  0  0  0  0
   -3.4957   -0.2827    1.1668 C   0  0  0  0  0  0  0  0  0  0  0  0
   -3.6788    0.4804    2.1587 O   0  5  0  0  0  0  0  0  0  0  0  0
   -4.3238   -1.0111    0.5536 O   0  0  0  0  0  0  0  0  0  0  0  0
    1.9288   -0.5463    1.4242 H   0  0  0  0  0  0  0  0  0  0  0  0
    0.3315    0.6835   -0.3885 H   0  0  0  0  0  0  0  0  0  0  0  0
   -1.5005    1.7323    1.1205 H   0  0  0  0  0  0  0  0  0  0  0  0
   -1.0777    0.5542    2.3471 H   0  0  0  0  0  0  0  0  0  0  0  0
   -2.0743   -0.1742   -0.4511 H   0  0  0  0  0  0  0  0  0  0  0  0
   -1.6675   -1.3027    0.8340 H   0  0  0  0  0  0  0  0  0  0  0  0
    0.4086    2.8958    1.5636 N   0  0  0  0  0  0  0  0  0  0  0  0
    0.9749    4.1073    2.1098 C   0  0  2  0  0  0  0  0  0  0  0  0
   -0.1543    4.9120    2.7397 C   0  0  0  0  0  0  0  0  0  0  0  0
   -1.3341    4.7733    2.4237 O   0  0  0  0  0  0  0  0  0  0  0  0
    1.6872    4.9174    1.0378 C   0  0  0  0  0  0  0  0  0  0  0  0
   -0.5892    2.8846    1.3741 H   0  0  0  0  0  0  0  0  0  0  0  0
    1.6845    3.8024    2.8867 H   0  0  0  0  0  0  0  0  0  0  0  0
    0.9923    5.2318    0.2506 H   0  0  0  0  0  0  0  0  0  0  0  0
    2.1404    5.8209    1.4588 H   0  0  0  0  0  0  0  0  0  0  0  0
    2.4796    4.3269    0.5652 H   0  0  0  0  0  0  0  0  0  0  0  0
    0.3149    5.8336    3.6653 N   0  0  0  0  0  0  0  0  0  0  0  0
   -0.5600    6.7252    4.3902 C   0  0  0  0  0  0  0  0  0  0  0  0
    1.3075    5.8664    3.8787 H   0  0  0  0  0  0  0  0  0  0  0  0
   -0.6495    7.6760    3.8443 H   0  0  0  0  0  0  0  0  0  0  0  0
   -1.5538    6.2639    4.4883 H   0  0  0  0  0  0  0  0  0  0  0  0
   -0.1434    6.9146    5.3904 H   0  0  0  0  0  0  0  0  0  0  0  0
  1  3  1  0  0  0  0
  1  7  1  0  0  0  0
  1  2  2  0  0  0  0
 33 34  1  0  0  0  0
 34 42  1  0  0  0  0
 34 35  2  0  0  0  0
  8  9  1  0  0  0  0
  9 17  1  0  0  0  0
  9 10  2  0  0  0  0
 18 19  1  0  0  0  0
 19 32  1  0  0  0  0
 19 20  2  0  0  0  0
 22 23  1  0  0  0  0
 23 24  1  0  0  0  0
 23 25  2  0  0  0  0
 33 36  1  0  0  0  0
  8 11  1  0  0  0  0
 42 43  1  0  0  0  0
 21 22  1  0  0  0  0
 18 21  1  0  0  0  0
 32 33  1  0  0  0  0
  7  8  1  0  0  0  0
 17 18  1  0  0  0  0
  3  4  1  0  0  0  0
  3  5  1  0  0  0  0
  3  6  1  0  0  0  0
 36 39  1  0  0  0  0
 36 40  1  0  0  0  0
 36 41  1  0  0  0  0
 11 14  1  0  0  0  0
 11 15  1  0  0  0  0
 11 16  1  0  0  0  0
 43 45  1  0  0  0  0
 43 46  1  0  0  0  0
 43 47  1  0  0  0  0
 22 30  1  0  0  0  0
 22 31  1  0  0  0  0
 21 28  1  0  0  0  0
 21 29  1  0  0  0  0
 33 38  1  0  0  0  0
  8 13  1  0  0  0  0
 18 27  1  0  0  0  0
 42 44  1  0  0  0  0
  7 12  1  0  0  0  0
 32 37  1  0  0  0  0
 17 26  1  0  0  0  0
M  CHG  1  24  -1
M  END
$$$$

  -OEChem-05262214473D

 47 46  0     1  0  0  0  0  0999 V2000
    0.5093   -4.7265    3.0306 C   0  0  0  0  0  0  0  0  0  0  0  0
    1.2735   -4.4402    3.9448 O   0  0  0  0  0  0  0  0  0  0  0  0
   -0.4465   -5.8608    3.1982 C   0  0  0  0  0  0  0  0  0  0  0  0
   -0.0219   -6.8213    2.8645 H   0  0  0  0  0  0  0  0  0  0  0  0
   -0.7314   -6.0185    4.2509 H   0  0  0  0  0  0  0  0  0  0  0  0
   -1.3983   -5.7596    2.6527 H   0  0  0  0  0  0  0  0  0  0  0  0
    0.4252   -4.0886    1.8040 N   0  0  0  0  0  0  0  0  0  0  0  0
    1.2532   -2.9707    1.4349 C   0  0  2  0  0  0  0  0  0  0  0  0
    0.3395   -1.8293    1.0083 C   0  0  0  0  0  0  0  0  0  0  0  0
   -0.8136   -2.0027    0.6194 O   0  0  0  0  0  0  0  0  0  0  0  0
    2.2176   -3.3411    0.3189 C   0  0  0  0  0  0  0  0  0  0  0  0
   -0.2574   -4.4279    1.1287 H   0  0  0  0  0  0  0  0  0  0  0  0
    1.8087   -2.6785    2.3327 H   0  0  0  0  0  0  0  0  0  0  0  0
    1.6793   -3.6366   -0.5890 H   0  0  0  0  0  0  0  0  0  0  0  0
    2.8662   -2.4980    0.0589 H   0  0  0  0  0  0  0  0  0  0  0  0
    2.8538   -4.1816    0.6166 H   0  0  0  0  0  0  0  0  0  0  0  0
    0.9758   -0.5952    1.0708 N   0  0  0  0  0  0  0  0  0  0  0  0
    0.3258    0.6374    0.7059 C   0  0  2  0  0  0  0  0  0  0  0  0
    1.1746    1.7819    1.2493 C   0  0  0  0  0  0  0  0  0  0  0  0
    2.4015    1.8003    1.1738 O   0  0  0  0  0  0  0  0  0  0  0  0
   -1.1009    0.7204    1.2617 C   0  0  0  0  0  0  0  0  0  0  0  0
   -2.0574   -0.2955    0.6386 C   0  0  0  0  0  0  0  0  0  0  0  0
   -3.4957   -0.2827    1.1668 C   0  0  0  0  0  0  0  0  0  0  0  0
   -3.6788    0.4804    2.1587 O   0  5  0  0  0  0  0  0  0  0  0  0
   -4.3238   -1.0111    0.5536 O   0  0  0  0  0  0  0  0  0  0  0  0
    1.9288   -0.5463    1.4242 H   0  0  0  0  0  0  0  0  0  0  0  0
    0.3315    0.6835   -0.3885 H   0  0  0  0  0  0  0  0  0  0  0  0
   -1.5005    1.7323    1.1205 H   0  0  0  0  0  0  0  0  0  0  0  0
   -1.0777    0.5542    2.3471 H   0  0  0  0  0  0  0  0  0  0  0  0
   -2.0743   -0.1742   -0.4511 H   0  0  0  0  0  0  0  0  0  0  0  0
   -1.6675   -1.3027    0.8340 H   0  0  0  0  0  0  0  0  0  0  0  0
    0.4029    2.7553    1.8685 N   0  0  0  0  0  0  0  0  0  0  0  0
    0.9713    3.9353    2.4778 C   0  0  2  0  0  0  0  0  0  0  0  0
   -0.0675    4.5228    3.4240 C   0  0  0  0  0  0  0  0  0  0  0  0
   -1.2723    4.3033    3.3173 O   0  0  0  0  0  0  0  0  0  0  0  0
    1.3882    4.9538    1.4282 C   0  0  0  0  0  0  0  0  0  0  0  0
   -0.6087    2.6636    1.8700 H   0  0  0  0  0  0  0  0  0  0  0  0
    1.8441    3.6057    3.0519 H   0  0  0  0  0  0  0  0  0  0  0  0
    0.5268    5.2958    0.8429 H   0  0  0  0  0  0  0  0  0  0  0  0
    1.8448    5.8354    1.8901 H   0  0  0  0  0  0  0  0  0  0  0  0
    2.1130    4.5203    0.7307 H   0  0  0  0  0  0  0  0  0  0  0  0
    0.5049    5.3557    4.3752 N   0  0  0  0  0  0  0  0  0  0  0  0
   -0.2734    6.0431    5.3791 C   0  0  0  0  0  0  0  0  0  0  0  0
    1.5144    5.4650    4.4011 H   0  0  0  0  0  0  0  0  0  0  0  0
   -0.5446    7.0439    5.0118 H   0  0  0  0  0  0  0  0  0  0  0  0
   -1.1881    5.4697    5.5900 H   0  0  0  0  0  0  0  0  0  0  0  0
    0.3198    6.1392    6.3005 H   0  0  0  0  0  0  0  0  0  0  0  0
  1  3  1  0  0  0  0
  1  7  1  0  0  0  0
  1  2  2  0  0  0  0
 33 34  1  0  0  0  0
 34 42  1  0  0  0  0
 34 35  2  0  0  0  0
  8  9  1  0  0  0  0
  9 17  1  0  0  0  0
  9 10  2  0  0  0  0
 18 19  1  0  0  0  0
 19 32  1  0  0  0  0
 19 20  2  0  0  0  0
 22 23  1  0  0  0  0
 23 24  1  0  0  0  0
 23 25  2  0  0  0  0
 33 36  1  0  0  0  0
  8 11  1  0  0  0  0
 42 43  1  0  0  0  0
 21 22  1  0  0  0  0
 18 21  1  0  0  0  0
 32 33  1  0  0  0  0
  7  8  1  0  0  0  0
 17 18  1  0  0  0  0
  3  4  1  0  0  0  0
  3  5  1  0  0  0  0
  3  6  1  0  0  0  0
 36 39  1  0  0  0  0
 36 40  1  0  0  0  0
 36 41  1  0  0  0  0
 11 14  1  0  0  0  0
 11 15  1  0  0  0  0
 11 16  1  0  0  0  0
 43 45  1  0  0  0  0
 43 46  1  0  0  0  0
 43 47  1  0  0  0  0
 22 30  1  0  0  0  0
 22 31  1  0  0  0  0
 21 28  1  0  0  0  0
 21 29  1  0  0  0  0
 33 38  1  0  0  0  0
  8 13  1  0  0  0  0
 18 27  1  0  0  0  0
 42 44  1  0  0  0  0
  7 12  1  0  0  0  0
 32 37  1  0  0  0  0
 17 26  1  0  0  0  0
M  CHG  1  24  -1
M  END
$$$$

  -OEChem-05262214473D

 47 46  0     1  0  0  0  0  0999 V2000
    0.5093   -4.7265    3.0306 C   0  0  0  0  0  0  0  0  0  0  0  0
    1.2735   -4.4402    3.9448 O   0  0  0  0  0  0  0  0  0  0  0  0
   -0.4465   -5.8608    3.1982 C   0  0  0  0  0  0  0  0  0  0  0  0
   -0.0219   -6.8213    2.8645 H   0  0  0  0  0  0  0  0  0  0  0  0
   -0.7314   -6.0185    4.2509 H   0  0  0  0  0  0  0  0  0  0  0  0
   -1.3983   -5.7596    2.6527 H   0  0  0  0  0  0  0  0  0  0  0  0
    0.4252   -4.0886    1.8040 N   0  0  0  0  0  0  0  0  0  0  0  0
    1.2532   -2.9707    1.4349 C   0  0  2  0  0  0  0  0  0  0  0  0
    0.3395   -1.8293    1.0083 C   0  0  0  0  0  0  0  0  0  0  0  0
   -0.8136   -2.0027    0.6194 O   0  0  0  0  0  0  0  0  0  0  0  0
    2.2176   -3.3411    0.3189 C   0  0  0  0  0  0  0  0  0  0  0  0
   -0.2574   -4.4279    1.1287 H   0  0  0  0  0  0  0  0  0  0  0  0
    1.8087   -2.6785    2.3327 H   0  0  0  0  0  0  0  0  0  0  0  0
    1.6793   -3.6366   -0.5890 H   0  0  0  0  0  0  0  0  0  0  0  0
    2.8662   -2.4980    0.0589 H   0  0  0  0  0  0  0  0  0  0  0  0
    2.8538   -4.1816    0.6166 H   0  0  0  0  0  0  0  0  0  0  0  0
    0.9758   -0.5952    1.0708 N   0  0  0  0  0  0  0  0  0  0  0  0
    0.3258    0.6374    0.7059 C   0  0  2  0  0  0  0  0  0  0  0  0
    1.1746    1.7819    1.2493 C   0  0  0  0  0  0  0  0  0  0  0  0
    2.3560    1.9408    0.9489 O   0  0  0  0  0  0  0  0  0  0  0  0
   -1.1009    0.7204    1.2617 C   0  0  0  0  0  0  0  0  0  0  0  0
   -2.0574   -0.2955    0.6386 C   0  0  0  0  0  0  0  0  0  0  0  0
   -3.4957   -0.2827    1.1668 C   0  0  0  0  0  0  0  0  0  0  0  0
   -3.6788    0.4804    2.1587 O   0  5  0  0  0  0  0  0  0  0  0  0
   -4.3238   -1.0111    0.5536 O   0  0  0  0  0  0  0  0  0  0  0  0
    1.9288   -0.5463    1.4242 H   0  0  0  0  0  0  0  0  0  0  0  0
    0.3315    0.6835   -0.3885 H   0  0  0  0  0  0  0  0  0  0  0  0
   -1.5005    1.7323    1.1205 H   0  0  0  0  0  0  0  0  0  0  0  0
   -1.0777    0.5542    2.3471 H   0  0  0  0  0  0  0  0  0  0  0  0
   -2.0743   -0.1742   -0.4511 H   0  0  0  0  0  0  0  0  0  0  0  0
   -1.6675   -1.3027    0.8340 H   0  0  0  0  0  0  0  0  0  0  0  0
    0.4696    2.5751    2.1438 N   0  0  0  0  0  0  0  0  0  0  0  0
    1.0551    3.7159    2.8092 C   0  0  2  0  0  0  0  0  0  0  0  0
    0.1851    4.0564    4.0120 C   0  0  0  0  0  0  0  0  0  0  0  0
   -0.9956    3.7262    4.1008 O   0  0  0  0  0  0  0  0  0  0  0  0
    1.1718    4.9052    1.8686 C   0  0  0  0  0  0  0  0  0  0  0  0
   -0.5107    2.3769    2.3209 H   0  0  0  0  0  0  0  0  0  0  0  0
    2.0484    3.4066    3.1521 H   0  0  0  0  0  0  0  0  0  0  0  0
    0.1864    5.2294    1.5146 H   0  0  0  0  0  0  0  0  0  0  0  0
    1.6418    5.7599    2.3662 H   0  0  0  0  0  0  0  0  0  0  0  0
    1.7731    4.6494    0.9896 H   0  0  0  0  0  0  0  0  0  0  0  0
    0.8703    4.8094    4.9552 N   0  0  0  0  0  0  0  0  0  0  0  0
    0.2585    5.2683    6.1804 C   0  0  0  0  0  0  0  0  0  0  0  0
    1.8527    5.0210    4.8078 H   0  0  0  0  0  0  0  0  0  0  0  0
   -0.1582    6.2749    6.0282 H   0  0  0  0  0  0  0  0  0  0  0  0
   -0.5476    4.5776    6.4686 H   0  0  0  0  0  0  0  0  0  0  0  0
    1.0154    5.3017    6.9779 H   0  0  0  0  0  0  0  0  0  0  0  0
  1  3  1  0  0  0  0
  1  7  1  0  0  0  0
  1  2  2  0  0  0  0
 33 34  1  0  0  0  0
 34 42  1  0  0  0  0
 34 35  2  0  0  0  0
  8  9  1  0  0  0  0
  9 17  1  0  0  0  0
  9 10  2  0  0  0  0
 18 19  1  0  0  0  0
 19 32  1  0  0  0  0
 19 20  2  0  0  0  0
 22 23  1  0  0  0  0
 23 24  1  0  0  0  0
 23 25  2  0  0  0  0
 33 36  1  0  0  0  0
  8 11  1  0  0  0  0
 42 43  1  0  0  0  0
 21 22  1  0  0  0  0
 18 21  1  0  0  0  0
 32 33  1  0  0  0  0
  7  8  1  0  0  0  0
 17 18  1  0  0  0  0
  3  4  1  0  0  0  0
  3  5  1  0  0  0  0
  3  6  1  0  0  0  0
 36 39  1  0  0  0  0
 36 40  1  0  0  0  0
 36 41  1  0  0  0  0
 11 14  1  0  0  0  0
 11 15  1  0  0  0  0
 11 16  1  0  0  0  0
 43 45  1  0  0  0  0
 43 46  1  0  0  0  0
 43 47  1  0  0  0  0
 22 30  1  0  0  0  0
 22 31  1  0  0  0  0
 21 28  1  0  0  0  0
 21 29  1  0  0  0  0
 33 38  1  0  0  0  0
  8 13  1  0  0  0  0
 18 27  1  0  0  0  0
 42 44  1  0  0  0  0
  7 12  1  0  0  0  0
 32 37  1  0  0  0  0
 17 26  1  0  0  0  0
M  CHG  1  24  -1
M  END
$$$$

  -OEChem-05262214473D

 47 46  0     1  0  0  0  0  0999 V2000
    0.5093   -4.7265    3.0306 C   0  0  0  0  0  0  0  0  0  0  0  0
    1.2735   -4.4402    3.9448 O   0  0  0  0  0  0  0  0  0  0  0  0
   -0.4465   -5.8608    3.1982 C   0  0  0  0  0  0  0  0  0  0  0  0
   -0.0219   -6.8213    2.8645 H   0  0  0  0  0  0  0  0  0  0  0  0
   -0.7314   -6.0185    4.2509 H   0  0  0  0  0  0  0  0  0  0  0  0
   -1.3983   -5.7596    2.6527 H   0  0  0  0  0  0  0  0  0  0  0  0
    0.4252   -4.0886    1.8040 N   0  0  0  0  0  0  0  0  0  0  0  0
    1.2532   -2.9707    1.4349 C   0  0  2  0  0  0  0  0  0  0  0  0
    0.3395   -1.8293    1.0083 C   0  0  0  0  0  0  0  0  0  0  0  0
   -0.8136   -2.0027    0.6194 O   0  0  0  0  0  0  0  0  0  0  0  0
    2.2176   -3.3411    0.3189 C   0  0  0  0  0  0  0  0  0  0  0  0
   -0.2574   -4.4279    1.1287 H   0  0  0  0  0  0  0  0  0  0  0  0
    1.8087   -2.6785    2.3327 H   0  0  0  0  0  0  0  0  0  0  0  0
    1.6793   -3.6366   -0.5890 H   0  0  0  0  0  0  0  0  0  0  0  0
    2.8662   -2.4980    0.0589 H   0  0  0  0  0  0  0  0  0  0  0  0
    2.8538   -4.1816    0.6166 H   0  0  0  0  0  0  0  0  0  0  0  0
    0.9758   -0.5952    1.0708 N   0  0  0  0  0  0  0  0  0  0  0  0
    0.3258    0.6374    0.7059 C   0  0  2  0  0  0  0  0  0  0  0  0
    1.1746    1.7819    1.2493 C   0  0  0  0  0  0  0  0  0  0  0  0
    2.2555    2.1047    0.7606 O   0  0  0  0  0  0  0  0  0  0  0  0
   -1.1009    0.7204    1.2617 C   0  0  0  0  0  0  0  0  0  0  0  0
   -2.0574   -0.2955    0.6386 C   0  0  0  0  0  0  0  0  0  0  0  0
   -3.4957   -0.2827    1.1668 C   0  0  0  0  0  0  0  0  0  0  0  0
   -3.6788    0.4804    2.1587 O   0  5  0  0  0  0  0  0  0  0  0  0
   -4.3238   -1.0111    0.5536 O   0  0  0  0  0  0  0  0  0  0  0  0
    1.9288   -0.5463    1.4242 H   0  0  0  0  0  0  0  0  0  0  0  0
    0.3315    0.6835   -0.3885 H   0  0  0  0  0  0  0  0  0  0  0  0
   -1.5005    1.7323    1.1205 H   0  0  0  0  0  0  0  0  0  0  0  0
   -1.0777    0.5542    2.3471 H   0  0  0  0  0  0  0  0  0  0  0  0
   -2.0743   -0.1742   -0.4511 H   0  0  0  0  0  0  0  0  0  0  0  0
   -1.6675   -1.3027    0.8340 H   0  0  0  0  0  0  0  0  0  0  0  0
    0.6042    2.3676    2.3709 N   0  0  0  0  0  0  0  0  0  0  0  0
    1.2206    3.4639    3.0814 C   0  0  2  0  0  0  0  0  0  0  0  0
    0.5863    3.5444    4.4637 C   0  0  0  0  0  0  0  0  0  0  0  0
   -0.5231    3.0815    4.7206 O   0  0  0  0  0  0  0  0  0  0  0  0
    1.0528    4.7748    2.3291 C   0  0  0  0  0  0  0  0  0  0  0  0
   -0.3021    2.0441    2.6961 H   0  0  0  0  0  0  0  0  0  0  0  0
    2.2837    3.2186    3.1804 H   0  0  0  0  0  0  0  0  0  0  0  0
   -0.0059    5.0371    2.2200 H   0  0  0  0  0  0  0  0  0  0  0  0
    1.5452    5.5997    2.8547 H   0  0  0  0  0  0  0  0  0  0  0  0
    1.4833    4.7055    1.3243 H   0  0  0  0  0  0  0  0  0  0  0  0
    1.3862    4.2319    5.3657 N   0  0  0  0  0  0  0  0  0  0  0  0
    0.9994    4.4535    6.7394 C   0  0  0  0  0  0  0  0  0  0  0  0
    2.2995    4.5648    5.0709 H   0  0  0  0  0  0  0  0  0  0  0  0
    0.4834    5.4212    6.8241 H   0  0  0  0  0  0  0  0  0  0  0  0
    0.3240    3.6483    7.0645 H   0  0  0  0  0  0  0  0  0  0  0  0
    1.8962    4.4593    7.3764 H   0  0  0  0  0  0  0  0  0  0  0  0
  1  3  1  0  0  0  0
  1  7  1  0  0  0  0
  1  2  2  0  0  0  0
 33 34  1  0  0  0  0
 34 42  1  0  0  0  0
 34 35  2  0  0  0  0
  8  9  1  0  0  0  0
  9 17  1  0  0  0  0
  9 10  2  0  0  0  0
 18 19  1  0  0  0  0
 19 32  1  0  0  0  0
 19 20  2  0  0  0  0
 22 23  1  0  0  0  0
 23 24  1  0  0  0  0
 23 25  2  0  0  0  0
 33 36  1  0  0  0  0
  8 11  1  0  0  0  0
 42 43  1  0  0  0  0
 21 22  1  0  0  0  0
 18 21  1  0  0  0  0
 32 33  1  0  0  0  0
  7  8  1  0  0  0  0
 17 18  1  0  0  0  0
  3  4  1  0  0  0  0
  3  5  1  0  0  0  0
  3  6  1  0  0  0  0
 36 39  1  0  0  0  0
 36 40  1  0  0  0  0
 36 41  1  0  0  0  0
 11 14  1  0  0  0  0
 11 15  1  0  0  0  0
 11 16  1  0  0  0  0
 43 45  1  0  0  0  0
 43 46  1  0  0  0  0
 43 47  1  0  0  0  0
 22 30  1  0  0  0  0
 22 31  1  0  0  0  0
 21 28  1  0  0  0  0
 21 29  1  0  0  0  0
 33 38  1  0  0  0  0
  8 13  1  0  0  0  0
 18 27  1  0  0  0  0
 42 44  1  0  0  0  0
  7 12  1  0  0  0  0
 32 37  1  0  0  0  0
 17 26  1  0  0  0  0
M  CHG  1  24  -1
M  END
$$$$

  -OEChem-05262214473D

 47 46  0     1  0  0  0  0  0999 V2000
    0.5093   -4.7265    3.0306 C   0  0  0  0  0  0  0  0  0  0  0  0
    1.2735   -4.4402    3.9448 O   0  0  0  0  0  0  0  0  0  0  0  0
   -0.4465   -5.8608    3.1982 C   0  0  0  0  0  0  0  0  0  0  0  0
   -0.0219   -6.8213    2.8645 H   0  0  0  0  0  0  0  0  0  0  0  0
   -0.7314   -6.0185    4.2509 H   0  0  0  0  0  0  0  0  0  0  0  0
   -1.3983   -5.7596    2.6527 H   0  0  0  0  0  0  0  0  0  0  0  0
    0.4252   -4.0886    1.8040 N   0  0  0  0  0  0  0  0  0  0  0  0
    1.2532   -2.9707    1.4349 C   0  0  2  0  0  0  0  0  0  0  0  0
    0.3395   -1.8293    1.0083 C   0  0  0  0  0  0  0  0  0  0  0  0
   -0.8136   -2.0027    0.6194 O   0  0  0  0  0  0  0  0  0  0  0  0
    2.2176   -3.3411    0.3189 C   0  0  0  0  0  0  0  0  0  0  0  0
   -0.2574   -4.4279    1.1287 H   0  0  0  0  0  0  0  0  0  0  0  0
    1.8087   -2.6785    2.3327 H   0  0  0  0  0  0  0  0  0  0  0  0
    1.6793   -3.6366   -0.5890 H   0  0  0  0  0  0  0  0  0  0  0  0
    2.8662   -2.4980    0.0589 H   0  0  0  0  0  0  0  0  0  0  0  0
    2.8538   -4.1816    0.6166 H   0  0  0  0  0  0  0  0  0  0  0  0
    0.9758   -0.5952    1.0708 N   0  0  0  0  0  0  0  0  0  0  0  0
    0.3258    0.6374    0.7059 C   0  0  2  0  0  0  0  0  0  0  0  0
    1.1746    1.7819    1.2493 C   0  0  0  0  0  0  0  0  0  0  0  0
    2.1066    2.2809    0.6219 O   0  0  0  0  0  0  0  0  0  0  0  0
   -1.1009    0.7204    1.2617 C   0  0  0  0  0  0  0  0  0  0  0  0
   -2.0574   -0.2955    0.6386 C   0  0  0  0  0  0  0  0  0  0  0  0
   -3.4957   -0.2827    1.1668 C   0  0  0  0  0  0  0  0  0  0  0  0
   -3.6788    0.4804    2.1587 O   0  5  0  0  0  0  0  0  0  0  0  0
   -4.3238   -1.0111    0.5536 O   0  0  0  0  0  0  0  0  0  0  0  0
    1.9288   -0.5463    1.4242 H   0  0  0  0  0  0  0  0  0  0  0  0
    0.3315    0.6835   -0.3885 H   0  0  0  0  0  0  0  0  0  0  0  0
   -1.5005    1.7323    1.1205 H   0  0  0  0  0  0  0  0  0  0  0  0
   -1.0777    0.5542    2.3471 H   0  0  0  0  0  0  0  0  0  0  0  0
   -2.0743   -0.1742   -0.4511 H   0  0  0  0  0  0  0  0  0  0  0  0
   -1.6675   -1.3027    0.8340 H   0  0  0  0  0  0  0  0  0  0  0  0
    0.7974    2.1468    2.5342 N   0  0  0  0  0  0  0  0  0  0  0  0
    1.4566    3.1965    3.2759 C   0  0  2  0  0  0  0  0  0  0  0  0
    1.1088    3.0218    4.7483 C   0  0  0  0  0  0  0  0  0  0  0  0
    0.1133    2.4130    5.1347 O   0  0  0  0  0  0  0  0  0  0  0  0
    1.0393    4.5716    2.7782 C   0  0  0  0  0  0  0  0  0  0  0  0
    0.0030    1.6877    2.9701 H   0  0  0  0  0  0  0  0  0  0  0  0
    2.5337    3.0547    3.1351 H   0  0  0  0  0  0  0  0  0  0  0  0
   -0.0368    4.7320    2.9111 H   0  0  0  0  0  0  0  0  0  0  0  0
    1.5614    5.3657    3.3222 H   0  0  0  0  0  0  0  0  0  0  0  0
    1.2631    4.6847    1.7120 H   0  0  0  0  0  0  0  0  0  0  0  0
    2.0176    3.6625    5.5788 N   0  0  0  0  0  0  0  0  0  0  0  0
    1.8987    3.6542    7.0182 C   0  0  0  0  0  0  0  0  0  0  0  0
    2.8242    4.1274    5.1725 H   0  0  0  0  0  0  0  0  0  0  0  0
    1.3364    4.5412    7.3452 H   0  0  0  0  0  0  0  0  0  0  0  0
    1.3674    2.7453    7.3368 H   0  0  0  0  0  0  0  0  0  0  0  0
    2.9020    3.6695    7.4689 H   0  0  0  0  0  0  0  0  0  0  0  0
  1  3  1  0  0  0  0
  1  7  1  0  0  0  0
  1  2  2  0  0  0  0
 33 34  1  0  0  0  0
 34 42  1  0  0  0  0
 34 35  2  0  0  0  0
  8  9  1  0  0  0  0
  9 17  1  0  0  0  0
  9 10  2  0  0  0  0
 18 19  1  0  0  0  0
 19 32  1  0  0  0  0
 19 20  2  0  0  0  0
 22 23  1  0  0  0  0
 23 24  1  0  0  0  0
 23 25  2  0  0  0  0
 33 36  1  0  0  0  0
  8 11  1  0  0  0  0
 42 43  1  0  0  0  0
 21 22  1  0  0  0  0
 18 21  1  0  0  0  0
 32 33  1  0  0  0  0
  7  8  1  0  0  0  0
 17 18  1  0  0  0  0
  3  4  1  0  0  0  0
  3  5  1  0  0  0  0
  3  6  1  0  0  0  0
 36 39  1  0  0  0  0
 36 40  1  0  0  0  0
 36 41  1  0  0  0  0
 11 14  1  0  0  0  0
 11 15  1  0  0  0  0
 11 16  1  0  0  0  0
 43 45  1  0  0  0  0
 43 46  1  0  0  0  0
 43 47  1  0  0  0  0
 22 30  1  0  0  0  0
 22 31  1  0  0  0  0
 21 28  1  0  0  0  0
 21 29  1  0  0  0  0
 33 38  1  0  0  0  0
  8 13  1  0  0  0  0
 18 27  1  0  0  0  0
 42 44  1  0  0  0  0
  7 12  1  0  0  0  0
 32 37  1  0  0  0  0
 17 26  1  0  0  0  0
M  CHG  1  24  -1
M  END
$$$$

  -OEChem-05262214473D

 47 46  0     1  0  0  0  0  0999 V2000
    0.5093   -4.7265    3.0306 C   0  0  0  0  0  0  0  0  0  0  0  0
    1.2735   -4.4402    3.9448 O   0  0  0  0  0  0  0  0  0  0  0  0
   -0.4465   -5.8608    3.1982 C   0  0  0  0  0  0  0  0  0  0  0  0
   -0.0219   -6.8213    2.8645 H   0  0  0  0  0  0  0  0  0  0  0  0
   -0.7314   -6.0185    4.2509 H   0  0  0  0  0  0  0  0  0  0  0  0
   -1.3983   -5.7596    2.6527 H   0  0  0  0  0  0  0  0  0  0  0  0
    0.4252   -4.0886    1.8040 N   0  0  0  0  0  0  0  0  0  0  0  0
    1.2532   -2.9707    1.4349 C   0  0  2  0  0  0  0  0  0  0  0  0
    0.3395   -1.8293    1.0083 C   0  0  0  0  0  0  0  0  0  0  0  0
   -0.8136   -2.0027    0.6194 O   0  0  0  0  0  0  0  0  0  0  0  0
    2.2176   -3.3411    0.3189 C   0  0  0  0  0  0  0  0  0  0  0  0
   -0.2574   -4.4279    1.1287 H   0  0  0  0  0  0  0  0  0  0  0  0
    1.8087   -2.6785    2.3327 H   0  0  0  0  0  0  0  0  0  0  0  0
    1.6793   -3.6366   -0.5890 H   0  0  0  0  0  0  0  0  0  0  0  0
    2.8662   -2.4980    0.0589 H   0  0  0  0  0  0  0  0  0  0  0  0
    2.8538   -4.1816    0.6166 H   0  0  0  0  0  0  0  0  0  0  0  0
    0.9758   -0.5952    1.0708 N   0  0  0  0  0  0  0  0  0  0  0  0
    0.3258    0.6374    0.7059 C   0  0  2  0  0  0  0  0  0  0  0  0
    1.1746    1.7819    1.2493 C   0  0  0  0  0  0  0  0  0  0  0  0
    1.9197    2.4573    0.5423 O   0  0  0  0  0  0  0  0  0  0  0  0
   -1.1009    0.7204    1.2617 C   0  0  0  0  0  0  0  0  0  0  0  0
   -2.0574   -0.2955    0.6386 C   0  0  0  0  0  0  0  0  0  0  0  0
   -3.4957   -0.2827    1.1668 C   0  0  0  0  0  0  0  0  0  0  0  0
   -3.6788    0.4804    2.1587 O   0  5  0  0  0  0  0  0  0  0  0  0
   -4.3238   -1.0111    0.5536 O   0  0  0  0  0  0  0  0  0  0  0  0
    1.9288   -0.5463    1.4242 H   0  0  0  0  0  0  0  0  0  0  0  0
    0.3315    0.6835   -0.3885 H   0  0  0  0  0  0  0  0  0  0  0  0
   -1.5005    1.7323    1.1205 H   0  0  0  0  0  0  0  0  0  0  0  0
   -1.0777    0.5542    2.3471 H   0  0  0  0  0  0  0  0  0  0  0  0
   -2.0743   -0.1742   -0.4511 H   0  0  0  0  0  0  0  0  0  0  0  0
   -1.6675   -1.3027    0.8340 H   0  0  0  0  0  0  0  0  0  0  0  0
    1.0361    1.9278    2.6225 N   0  0  0  0  0  0  0  0  0  0  0  0
    1.7471    2.9320    3.3794 C   0  0  2  0  0  0  0  0  0  0  0  0
    1.7170    2.5242    4.8464 C   0  0  0  0  0  0  0  0  0  0  0  0
    0.8700    1.7663    5.3147 O   0  0  0  0  0  0  0  0  0  0  0  0
    1.1323    4.3094    3.1854 C   0  0  0  0  0  0  0  0  0  0  0  0
    0.3838    1.3322    3.1241 H   0  0  0  0  0  0  0  0  0  0  0  0
    2.7816    2.9260    3.0191 H   0  0  0  0  0  0  0  0  0  0  0  0
    0.0957    4.3349    3.5406 H   0  0  0  0  0  0  0  0  0  0  0  0
    1.6895    5.0738    3.7369 H   0  0  0  0  0  0  0  0  0  0  0  0
    1.1277    4.5885    2.1262 H   0  0  0  0  0  0  0  0  0  0  0  0
    2.7214    3.1400    5.5800 N   0  0  0  0  0  0  0  0  0  0  0  0
    2.8953    2.9249    6.9975 C   0  0  0  0  0  0  0  0  0  0  0  0
    3.3911    3.7387    5.1058 H   0  0  0  0  0  0  0  0  0  0  0  0
    2.3427    3.6948    7.5562 H   0  0  0  0  0  0  0  0  0  0  0  0
    2.5113    1.9300    7.2671 H   0  0  0  0  0  0  0  0  0  0  0  0
    3.9644    2.9860    7.2491 H   0  0  0  0  0  0  0  0  0  0  0  0
  1  3  1  0  0  0  0
  1  7  1  0  0  0  0
  1  2  2  0  0  0  0
 33 34  1  0  0  0  0
 34 42  1  0  0  0  0
 34 35  2  0  0  0  0
  8  9  1  0  0  0  0
  9 17  1  0  0  0  0
  9 10  2  0  0  0  0
 18 19  1  0  0  0  0
 19 32  1  0  0  0  0
 19 20  2  0  0  0  0
 22 23  1  0  0  0  0
 23 24  1  0  0  0  0
 23 25  2  0  0  0  0
 33 36  1  0  0  0  0
  8 11  1  0  0  0  0
 42 43  1  0  0  0  0
 21 22  1  0  0  0  0
 18 21  1  0  0  0  0
 32 33  1  0  0  0  0
  7  8  1  0  0  0  0
 17 18  1  0  0  0  0
  3  4  1  0  0  0  0
  3  5  1  0  0  0  0
  3  6  1  0  0  0  0
 36 39  1  0  0  0  0
 36 40  1  0  0  0  0
 36 41  1  0  0  0  0
 11 14  1  0  0  0  0
 11 15  1  0  0  0  0
 11 16  1  0  0  0  0
 43 45  1  0  0  0  0
 43 46  1  0  0  0  0
 43 47  1  0  0  0  0
 22 30  1  0  0  0  0
 22 31  1  0  0  0  0
 21 28  1  0  0  0  0
 21 29  1  0  0  0  0
 33 38  1  0  0  0  0
  8 13  1  0  0  0  0
 18 27  1  0  0  0  0
 42 44  1  0  0  0  0
  7 12  1  0  0  0  0
 32 37  1  0  0  0  0
 17 26  1  0  0  0  0
M  CHG  1  24  -1
M  END
$$$$

  -OEChem-05262214473D

 47 46  0     1  0  0  0  0  0999 V2000
    0.5093   -4.7265    3.0306 C   0  0  0  0  0  0  0  0  0  0  0  0
    1.2735   -4.4402    3.9448 O   0  0  0  0  0  0  0  0  0  0  0  0
   -0.4465   -5.8608    3.1982 C   0  0  0  0  0  0  0  0  0  0  0  0
   -0.0219   -6.8213    2.8645 H   0  0  0  0  0  0  0  0  0  0  0  0
   -0.7314   -6.0185    4.2509 H   0  0  0  0  0  0  0  0  0  0  0  0
   -1.3983   -5.7596    2.6527 H   0  0  0  0  0  0  0  0  0  0  0  0
    0.4252   -4.0886    1.8040 N   0  0  0  0  0  0  0  0  0  0  0  0
    1.2532   -2.9707    1.4349 C   0  0  2  0  0  0  0  0  0  0  0  0
    0.3395   -1.8293    1.0083 C   0  0  0  0  0  0  0  0  0  0  0  0
   -0.8136   -2.0027    0.6194 O   0  0  0  0  0  0  0  0  0  0  0  0
    2.2176   -3.3411    0.3189 C   0  0  0  0  0  0  0  0  0  0  0  0
   -0.2574   -4.4279    1.1287 H   0  0  0  0  0  0  0  0  0  0  0  0
    1.8087   -2.6785    2.3327 H   0  0  0  0  0  0  0  0  0  0  0  0
    1.6793   -3.6366   -0.5890 H   0  0  0  0  0  0  0  0  0  0  0  0
    2.8662   -2.4980    0.0589 H   0  0  0  0  0  0  0  0  0  0  0  0
    2.8538   -4.1816    0.6166 H   0  0  0  0  0  0  0  0  0  0  0  0
    0.9758   -0.5952    1.0708 N   0  0  0  0  0  0  0  0  0  0  0  0
    0.3258    0.6374    0.7059 C   0  0  2  0  0  0  0  0  0  0  0  0
    1.1746    1.7819    1.2493 C   0  0  0  0  0  0  0  0  0  0  0  0
    1.7074    2.6220    0.5271 O   0  0  0  0  0  0  0  0  0  0  0  0
   -1.1009    0.7204    1.2617 C   0  0  0  0  0  0  0  0  0  0  0  0
   -2.0574   -0.2955    0.6386 C   0  0  0  0  0  0  0  0  0  0  0  0
   -3.4957   -0.2827    1.1668 C   0  0  0  0  0  0  0  0  0  0  0  0
   -3.6788    0.4804    2.1587 O   0  5  0  0  0  0  0  0  0  0  0  0
   -4.3238   -1.0111    0.5536 O   0  0  0  0  0  0  0  0  0  0  0  0
    1.9288   -0.5463    1.4242 H   0  0  0  0  0  0  0  0  0  0  0  0
    0.3315    0.6835   -0.3885 H   0  0  0  0  0  0  0  0  0  0  0  0
   -1.5005    1.7323    1.1205 H   0  0  0  0  0  0  0  0  0  0  0  0
   -1.0777    0.5542    2.3471 H   0  0  0  0  0  0  0  0  0  0  0  0
   -2.0743   -0.1742   -0.4511 H   0  0  0  0  0  0  0  0  0  0  0  0
   -1.6675   -1.3027    0.8340 H   0  0  0  0  0  0  0  0  0  0  0  0
    1.3040    1.7256    2.6300 N   0  0  0  0  0  0  0  0  0  0  0  0
    2.0721    2.6884    3.3848 C   0  0  2  0  0  0  0  0  0  0  0  0
    2.3694    2.0855    4.7514 C   0  0  0  0  0  0  0  0  0  0  0  0
    1.6956    1.1855    5.2485 O   0  0  0  0  0  0  0  0  0  0  0  0
    1.3254    4.0060    3.5228 C   0  0  0  0  0  0  0  0  0  0  0  0
    0.8143    1.0017    3.1477 H   0  0  0  0  0  0  0  0  0  0  0  0
    3.0103    2.8412    2.8404 H   0  0  0  0  0  0  0  0  0  0  0  0
    0.3825    3.8729    4.0657 H   0  0  0  0  0  0  0  0  0  0  0  0
    1.9208    4.7440    4.0706 H   0  0  0  0  0  0  0  0  0  0  0  0
    1.0862    4.4234    2.5388 H   0  0  0  0  0  0  0  0  0  0  0  0
    3.4496    2.7001    5.3691 N   0  0  0  0  0  0  0  0  0  0  0  0
    3.9211    2.3154    6.6790 C   0  0  0  0  0  0  0  0  0  0  0  0
    3.9616    3.4251    4.8752 H   0  0  0  0  0  0  0  0  0  0  0  0
    3.4338    2.9396    7.4425 H   0  0  0  0  0  0  0  0  0  0  0  0
    3.6780    1.2580    6.8601 H   0  0  0  0  0  0  0  0  0  0  0  0
    5.0109    2.4554    6.7320 H   0  0  0  0  0  0  0  0  0  0  0  0
  1  3  1  0  0  0  0
  1  7  1  0  0  0  0
  1  2  2  0  0  0  0
 33 34  1  0  0  0  0
 34 42  1  0  0  0  0
 34 35  2  0  0  0  0
  8  9  1  0  0  0  0
  9 17  1  0  0  0  0
  9 10  2  0  0  0  0
 18 19  1  0  0  0  0
 19 32  1  0  0  0  0
 19 20  2  0  0  0  0
 22 23  1  0  0  0  0
 23 24  1  0  0  0  0
 23 25  2  0  0  0  0
 33 36  1  0  0  0  0
  8 11  1  0  0  0  0
 42 43  1  0  0  0  0
 21 22  1  0  0  0  0
 18 21  1  0  0  0  0
 32 33  1  0  0  0  0
  7  8  1  0  0  0  0
 17 18  1  0  0  0  0
  3  4  1  0  0  0  0
  3  5  1  0  0  0  0
  3  6  1  0  0  0  0
 36 39  1  0  0  0  0
 36 40  1  0  0  0  0
 36 41  1  0  0  0  0
 11 14  1  0  0  0  0
 11 15  1  0  0  0  0
 11 16  1  0  0  0  0
 43 45  1  0  0  0  0
 43 46  1  0  0  0  0
 43 47  1  0  0  0  0
 22 30  1  0  0  0  0
 22 31  1  0  0  0  0
 21 28  1  0  0  0  0
 21 29  1  0  0  0  0
 33 38  1  0  0  0  0
  8 13  1  0  0  0  0
 18 27  1  0  0  0  0
 42 44  1  0  0  0  0
  7 12  1  0  0  0  0
 32 37  1  0  0  0  0
 17 26  1  0  0  0  0
M  CHG  1  24  -1
M  END
$$$$

  -OEChem-05262214473D

 47 46  0     1  0  0  0  0  0999 V2000
    0.5093   -4.7265    3.0306 C   0  0  0  0  0  0  0  0  0  0  0  0
    1.2735   -4.4402    3.9448 O   0  0  0  0  0  0  0  0  0  0  0  0
   -0.4465   -5.8608    3.1982 C   0  0  0  0  0  0  0  0  0  0  0  0
   -0.0219   -6.8213    2.8645 H   0  0  0  0  0  0  0  0  0  0  0  0
   -0.7314   -6.0185    4.2509 H   0  0  0  0  0  0  0  0  0  0  0  0
   -1.3983   -5.7596    2.6527 H   0  0  0  0  0  0  0  0  0  0  0  0
    0.4252   -4.0886    1.8040 N   0  0  0  0  0  0  0  0  0  0  0  0
    1.2532   -2.9707    1.4349 C   0  0  2  0  0  0  0  0  0  0  0  0
    0.3395   -1.8293    1.0083 C   0  0  0  0  0  0  0  0  0  0  0  0
   -0.8136   -2.0027    0.6194 O   0  0  0  0  0  0  0  0  0  0  0  0
    2.2176   -3.3411    0.3189 C   0  0  0  0  0  0  0  0  0  0  0  0
   -0.2574   -4.4279    1.1287 H   0  0  0  0  0  0  0  0  0  0  0  0
    1.8087   -2.6785    2.3327 H   0  0  0  0  0  0  0  0  0  0  0  0
    1.6793   -3.6366   -0.5890 H   0  0  0  0  0  0  0  0  0  0  0  0
    2.8662   -2.4980    0.0589 H   0  0  0  0  0  0  0  0  0  0  0  0
    2.8538   -4.1816    0.6166 H   0  0  0  0  0  0  0  0  0  0  0  0
    0.9758   -0.5952    1.0708 N   0  0  0  0  0  0  0  0  0  0  0  0
    0.3258    0.6374    0.7059 C   0  0  2  0  0  0  0  0  0  0  0  0
    1.1746    1.7819    1.2493 C   0  0  0  0  0  0  0  0  0  0  0  0
    1.4842    2.7637    0.5773 O   0  0  0  0  0  0  0  0  0  0  0  0
   -1.1009    0.7204    1.2617 C   0  0  0  0  0  0  0  0  0  0  0  0
   -2.0574   -0.2955    0.6386 C   0  0  0  0  0  0  0  0  0  0  0  0
   -3.4957   -0.2827    1.1668 C   0  0  0  0  0  0  0  0  0  0  0  0
   -3.6788    0.4804    2.1587 O   0  5  0  0  0  0  0  0  0  0  0  0
   -4.3238   -1.0111    0.5536 O   0  0  0  0  0  0  0  0  0  0  0  0
    1.9288   -0.5463    1.4242 H   0  0  0  0  0  0  0  0  0  0  0  0
    0.3315    0.6835   -0.3885 H   0  0  0  0  0  0  0  0  0  0  0  0
   -1.5005    1.7323    1.1205 H   0  0  0  0  0  0  0  0  0  0  0  0
   -1.0777    0.5542    2.3471 H   0  0  0  0  0  0  0  0  0  0  0  0
   -2.0743   -0.1742   -0.4511 H   0  0  0  0  0  0  0  0  0  0  0  0
   -1.6675   -1.3027    0.8340 H   0  0  0  0  0  0  0  0  0  0  0  0
    1.5829    1.5539    2.5560 N   0  0  0  0  0  0  0  0  0  0  0  0
    2.4095    2.4823    3.2918 C   0  0  2  0  0  0  0  0  0  0  0  0
    3.0216    1.7355    4.4697 C   0  0  0  0  0  0  0  0  0  0  0  0
    2.5337    0.7102    4.9405 O   0  0  0  0  0  0  0  0  0  0  0  0
    1.6054    3.6822    3.7676 C   0  0  0  0  0  0  0  0  0  0  0  0
    1.2653    0.7188    3.0393 H   0  0  0  0  0  0  0  0  0  0  0  0
    3.2044    2.8061    2.6111 H   0  0  0  0  0  0  0  0  0  0  0  0
    0.8042    3.3774    4.4507 H   0  0  0  0  0  0  0  0  0  0  0  0
    2.2393    4.3986    4.3004 H   0  0  0  0  0  0  0  0  0  0  0  0
    1.1415    4.2006    2.9216 H   0  0  0  0  0  0  0  0  0  0  0  0
    4.1526    2.3726    4.9606 N   0  0  0  0  0  0  0  0  0  0  0  0
    4.9063    1.8671    6.0842 C   0  0  0  0  0  0  0  0  0  0  0  0
    4.4967    3.2080    4.4965 H   0  0  0  0  0  0  0  0  0  0  0  0
    4.5353    2.3271    7.0120 H   0  0  0  0  0  0  0  0  0  0  0  0
    4.7878    0.7751    6.1436 H   0  0  0  0  0  0  0  0  0  0  0  0
    5.9702    2.1138    5.9528 H   0  0  0  0  0  0  0  0  0  0  0  0
  1  3  1  0  0  0  0
  1  7  1  0  0  0  0
  1  2  2  0  0  0  0
 33 34  1  0  0  0  0
 34 42  1  0  0  0  0
 34 35  2  0  0  0  0
  8  9  1  0  0  0  0
  9 17  1  0  0  0  0
  9 10  2  0  0  0  0
 18 19  1  0  0  0  0
 19 32  1  0  0  0  0
 19 20  2  0  0  0  0
 22 23  1  0  0  0  0
 23 24  1  0  0  0  0
 23 25  2  0  0  0  0
 33 36  1  0  0  0  0
  8 11  1  0  0  0  0
 42 43  1  0  0  0  0
 21 22  1  0  0  0  0
 18 21  1  0  0  0  0
 32 33  1  0  0  0  0
  7  8  1  0  0  0  0
 17 18  1  0  0  0  0
  3  4  1  0  0  0  0
  3  5  1  0  0  0  0
  3  6  1  0  0  0  0
 36 39  1  0  0  0  0
 36 40  1  0  0  0  0
 36 41  1  0  0  0  0
 11 14  1  0  0  0  0
 11 15  1  0  0  0  0
 11 16  1  0  0  0  0
 43 45  1  0  0  0  0
 43 46  1  0  0  0  0
 43 47  1  0  0  0  0
 22 30  1  0  0  0  0
 22 31  1  0  0  0  0
 21 28  1  0  0  0  0
 21 29  1  0  0  0  0
 33 38  1  0  0  0  0
  8 13  1  0  0  0  0
 18 27  1  0  0  0  0
 42 44  1  0  0  0  0
  7 12  1  0  0  0  0
 32 37  1  0  0  0  0
 17 26  1  0  0  0  0
M  CHG  1  24  -1
M  END
$$$$

  -OEChem-05262214473D

 47 46  0     1  0  0  0  0  0999 V2000
    0.5093   -4.7265    3.0306 C   0  0  0  0  0  0  0  0  0  0  0  0
    1.2735   -4.4402    3.9448 O   0  0  0  0  0  0  0  0  0  0  0  0
   -0.4465   -5.8608    3.1982 C   0  0  0  0  0  0  0  0  0  0  0  0
   -0.0219   -6.8213    2.8645 H   0  0  0  0  0  0  0  0  0  0  0  0
   -0.7314   -6.0185    4.2509 H   0  0  0  0  0  0  0  0  0  0  0  0
   -1.3983   -5.7596    2.6527 H   0  0  0  0  0  0  0  0  0  0  0  0
    0.4252   -4.0886    1.8040 N   0  0  0  0  0  0  0  0  0  0  0  0
    1.2532   -2.9707    1.4349 C   0  0  2  0  0  0  0  0  0  0  0  0
    0.3395   -1.8293    1.0083 C   0  0  0  0  0  0  0  0  0  0  0  0
   -0.8136   -2.0027    0.6194 O   0  0  0  0  0  0  0  0  0  0  0  0
    2.2176   -3.3411    0.3189 C   0  0  0  0  0  0  0  0  0  0  0  0
   -0.2574   -4.4279    1.1287 H   0  0  0  0  0  0  0  0  0  0  0  0
    1.8087   -2.6785    2.3327 H   0  0  0  0  0  0  0  0  0  0  0  0
    1.6793   -3.6366   -0.5890 H   0  0  0  0  0  0  0  0  0  0  0  0
    2.8662   -2.4980    0.0589 H   0  0  0  0  0  0  0  0  0  0  0  0
    2.8538   -4.1816    0.6166 H   0  0  0  0  0  0  0  0  0  0  0  0
    0.9758   -0.5952    1.0708 N   0  0  0  0  0  0  0  0  0  0  0  0
    0.3258    0.6374    0.7059 C   0  0  2  0  0  0  0  0  0  0  0  0
    1.1746    1.7819    1.2493 C   0  0  0  0  0  0  0  0  0  0  0  0
    1.2653    2.8727    0.6896 O   0  0  0  0  0  0  0  0  0  0  0  0
   -1.1009    0.7204    1.2617 C   0  0  0  0  0  0  0  0  0  0  0  0
   -2.0574   -0.2955    0.6386 C   0  0  0  0  0  0  0  0  0  0  0  0
   -3.4957   -0.2827    1.1668 C   0  0  0  0  0  0  0  0  0  0  0  0
   -3.6788    0.4804    2.1587 O   0  5  0  0  0  0  0  0  0  0  0  0
   -4.3238   -1.0111    0.5536 O   0  0  0  0  0  0  0  0  0  0  0  0
    1.9288   -0.5463    1.4242 H   0  0  0  0  0  0  0  0  0  0  0  0
    0.3315    0.6835   -0.3885 H   0  0  0  0  0  0  0  0  0  0  0  0
   -1.5005    1.7323    1.1205 H   0  0  0  0  0  0  0  0  0  0  0  0
   -1.0777    0.5542    2.3471 H   0  0  0  0  0  0  0  0  0  0  0  0
   -2.0743   -0.1742   -0.4511 H   0  0  0  0  0  0  0  0  0  0  0  0
   -1.6675   -1.3027    0.8340 H   0  0  0  0  0  0  0  0  0  0  0  0
    1.8537    1.4244    2.4057 N   0  0  0  0  0  0  0  0  0  0  0  0
    2.7365    2.3277    3.1068 C   0  0  2  0  0  0  0  0  0  0  0  0
    3.6291    1.4983    4.0204 C   0  0  0  0  0  0  0  0  0  0  0  0
    3.3273    0.3727    4.4117 O   0  0  0  0  0  0  0  0  0  0  0  0
    1.9533    3.3599    3.9029 C   0  0  0  0  0  0  0  0  0  0  0  0
    1.7058    0.5027    2.8062 H   0  0  0  0  0  0  0  0  0  0  0  0
    3.3505    2.8232    2.3469 H   0  0  0  0  0  0  0  0  0  0  0  0
    1.3321    2.8822    4.6693 H   0  0  0  0  0  0  0  0  0  0  0  0
    2.6236    4.0613    4.4108 H   0  0  0  0  0  0  0  0  0  0  0  0
    1.2898    3.9355    3.2485 H   0  0  0  0  0  0  0  0  0  0  0  0
    4.7826    2.1800    4.3823 N   0  0  0  0  0  0  0  0  0  0  0  0
    5.7838    1.6106    5.2538 C   0  0  0  0  0  0  0  0  0  0  0  0
    4.9601    3.1023    3.9954 H   0  0  0  0  0  0  0  0  0  0  0  0
    5.5721    1.8991    6.2940 H   0  0  0  0  0  0  0  0  0  0  0  0
    5.7651    0.5143    5.1664 H   0  0  0  0  0  0  0  0  0  0  0  0
    6.7769    1.9847    4.9645 H   0  0  0  0  0  0  0  0  0  0  0  0
  1  3  1  0  0  0  0
  1  7  1  0  0  0  0
  1  2  2  0  0  0  0
 33 34  1  0  0  0  0
 34 42  1  0  0  0  0
 34 35  2  0  0  0  0
  8  9  1  0  0  0  0
  9 17  1  0  0  0  0
  9 10  2  0  0  0  0
 18 19  1  0  0  0  0
 19 32  1  0  0  0  0
 19 20  2  0  0  0  0
 22 23  1  0  0  0  0
 23 24  1  0  0  0  0
 23 25  2  0  0  0  0
 33 36  1  0  0  0  0
  8 11  1  0  0  0  0
 42 43  1  0  0  0  0
 21 22  1  0  0  0  0
 18 21  1  0  0  0  0
 32 33  1  0  0  0  0
  7  8  1  0  0  0  0
 17 18  1  0  0  0  0
  3  4  1  0  0  0  0
  3  5  1  0  0  0  0
  3  6  1  0  0  0  0
 36 39  1  0  0  0  0
 36 40  1  0  0  0  0
 36 41  1  0  0  0  0
 11 14  1  0  0  0  0
 11 15  1  0  0  0  0
 11 16  1  0  0  0  0
 43 45  1  0  0  0  0
 43 46  1  0  0  0  0
 43 47  1  0  0  0  0
 22 30  1  0  0  0  0
 22 31  1  0  0  0  0
 21 28  1  0  0  0  0
 21 29  1  0  0  0  0
 33 38  1  0  0  0  0
  8 13  1  0  0  0  0
 18 27  1  0  0  0  0
 42 44  1  0  0  0  0
  7 12  1  0  0  0  0
 32 37  1  0  0  0  0
 17 26  1  0  0  0  0
M  CHG  1  24  -1
M  END
$$$$

  -OEChem-05262214473D

 47 46  0     1  0  0  0  0  0999 V2000
    0.5093   -4.7265    3.0306 C   0  0  0  0  0  0  0  0  0  0  0  0
    1.2735   -4.4402    3.9448 O   0  0  0  0  0  0  0  0  0  0  0  0
   -0.4465   -5.8608    3.1982 C   0  0  0  0  0  0  0  0  0  0  0  0
   -0.0219   -6.8213    2.8645 H   0  0  0  0  0  0  0  0  0  0  0  0
   -0.7314   -6.0185    4.2509 H   0  0  0  0  0  0  0  0  0  0  0  0
   -1.3983   -5.7596    2.6527 H   0  0  0  0  0  0  0  0  0  0  0  0
    0.4252   -4.0886    1.8040 N   0  0  0  0  0  0  0  0  0  0  0  0
    1.2532   -2.9707    1.4349 C   0  0  2  0  0  0  0  0  0  0  0  0
    0.3395   -1.8293    1.0083 C   0  0  0  0  0  0  0  0  0  0  0  0
   -0.8136   -2.0027    0.6194 O   0  0  0  0  0  0  0  0  0  0  0  0
    2.2176   -3.3411    0.3189 C   0  0  0  0  0  0  0  0  0  0  0  0
   -0.2574   -4.4279    1.1287 H   0  0  0  0  0  0  0  0  0  0  0  0
    1.8087   -2.6785    2.3327 H   0  0  0  0  0  0  0  0  0  0  0  0
    1.6793   -3.6366   -0.5890 H   0  0  0  0  0  0  0  0  0  0  0  0
    2.8662   -2.4980    0.0589 H   0  0  0  0  0  0  0  0  0  0  0  0
    2.8538   -4.1816    0.6166 H   0  0  0  0  0  0  0  0  0  0  0  0
    0.9758   -0.5952    1.0708 N   0  0  0  0  0  0  0  0  0  0  0  0
    0.3258    0.6374    0.7059 C   0  0  2  0  0  0  0  0  0  0  0  0
    1.1746    1.7819    1.2493 C   0  0  0  0  0  0  0  0  0  0  0  0
    1.0656    2.9417    0.8563 O   0  0  0  0  0  0  0  0  0  0  0  0
   -1.1009    0.7204    1.2617 C   0  0  0  0  0  0  0  0  0  0  0  0
   -2.0574   -0.2955    0.6386 C   0  0  0  0  0  0  0  0  0  0  0  0
   -3.4957   -0.2827    1.1668 C   0  0  0  0  0  0  0  0  0  0  0  0
   -3.6788    0.4804    2.1587 O   0  5  0  0  0  0  0  0  0  0  0  0
   -4.3238   -1.0111    0.5536 O   0  0  0  0  0  0  0  0  0  0  0  0
    1.9288   -0.5463    1.4242 H   0  0  0  0  0  0  0  0  0  0  0  0
    0.3315    0.6835   -0.3885 H   0  0  0  0  0  0  0  0  0  0  0  0
   -1.5005    1.7323    1.1205 H   0  0  0  0  0  0  0  0  0  0  0  0
   -1.0777    0.5542    2.3471 H   0  0  0  0  0  0  0  0  0  0  0  0
   -2.0743   -0.1742   -0.4511 H   0  0  0  0  0  0  0  0  0  0  0  0
   -1.6675   -1.3027    0.8340 H   0  0  0  0  0  0  0  0  0  0  0  0
    2.0981    1.3459    2.1892 N   0  0  0  0  0  0  0  0  0  0  0  0
    3.0305    2.2351    2.8423 C   0  0  2  0  0  0  0  0  0  0  0  0
    4.1505    1.3898    3.4344 C   0  0  0  0  0  0  0  0  0  0  0  0
    4.0222    0.1961    3.6981 O   0  0  0  0  0  0  0  0  0  0  0  0
    2.3453    3.0612    3.9197 C   0  0  0  0  0  0  0  0  0  0  0  0
    2.1060    0.3682    2.4643 H   0  0  0  0  0  0  0  0  0  0  0  0
    3.4388    2.8912    2.0658 H   0  0  0  0  0  0  0  0  0  0  0  0
    1.9300    2.4211    4.7065 H   0  0  0  0  0  0  0  0  0  0  0  0
    3.0472    3.7549    4.3942 H   0  0  0  0  0  0  0  0  0  0  0  0
    1.5210    3.6459    3.4973 H   0  0  0  0  0  0  0  0  0  0  0  0
    5.2964    2.1354    3.6736 N   0  0  0  0  0  0  0  0  0  0  0  0
    6.4936    1.5634    4.2442 C   0  0  0  0  0  0  0  0  0  0  0  0
    5.3201    3.1150    3.4062 H   0  0  0  0  0  0  0  0  0  0  0  0
    6.4735    1.6847    5.3373 H   0  0  0  0  0  0  0  0  0  0  0  0
    6.5433    0.4932    3.9950 H   0  0  0  0  0  0  0  0  0  0  0  0
    7.3762    2.0767    3.8347 H   0  0  0  0  0  0  0  0  0  0  0  0
  1  3  1  0  0  0  0
  1  7  1  0  0  0  0
  1  2  2  0  0  0  0
 33 34  1  0  0  0  0
 34 42  1  0  0  0  0
 34 35  2  0  0  0  0
  8  9  1  0  0  0  0
  9 17  1  0  0  0  0
  9 10  2  0  0  0  0
 18 19  1  0  0  0  0
 19 32  1  0  0  0  0
 19 20  2  0  0  0  0
 22 23  1  0  0  0  0
 23 24  1  0  0  0  0
 23 25  2  0  0  0  0
 33 36  1  0  0  0  0
  8 11  1  0  0  0  0
 42 43  1  0  0  0  0
 21 22  1  0  0  0  0
 18 21  1  0  0  0  0
 32 33  1  0  0  0  0
  7  8  1  0  0  0  0
 17 18  1  0  0  0  0
  3  4  1  0  0  0  0
  3  5  1  0  0  0  0
  3  6  1  0  0  0  0
 36 39  1  0  0  0  0
 36 40  1  0  0  0  0
 36 41  1  0  0  0  0
 11 14  1  0  0  0  0
 11 15  1  0  0  0  0
 11 16  1  0  0  0  0
 43 45  1  0  0  0  0
 43 46  1  0  0  0  0
 43 47  1  0  0  0  0
 22 30  1  0  0  0  0
 22 31  1  0  0  0  0
 21 28  1  0  0  0  0
 21 29  1  0  0  0  0
 33 38  1  0  0  0  0
  8 13  1  0  0  0  0
 18 27  1  0  0  0  0
 42 44  1  0  0  0  0
  7 12  1  0  0  0  0
 32 37  1  0  0  0  0
 17 26  1  0  0  0  0
M  CHG  1  24  -1
M  END
$$$$

  -OEChem-05262214473D

 47 46  0     1  0  0  0  0  0999 V2000
    0.5093   -4.7265    3.0306 C   0  0  0  0  0  0  0  0  0  0  0  0
    1.2735   -4.4402    3.9448 O   0  0  0  0  0  0  0  0  0  0  0  0
   -0.4465   -5.8608    3.1982 C   0  0  0  0  0  0  0  0  0  0  0  0
   -0.0219   -6.8213    2.8645 H   0  0  0  0  0  0  0  0  0  0  0  0
   -0.7314   -6.0185    4.2509 H   0  0  0  0  0  0  0  0  0  0  0  0
   -1.3983   -5.7596    2.6527 H   0  0  0  0  0  0  0  0  0  0  0  0
    0.4252   -4.0886    1.8040 N   0  0  0  0  0  0  0  0  0  0  0  0
    1.2532   -2.9707    1.4349 C   0  0  2  0  0  0  0  0  0  0  0  0
    0.3395   -1.8293    1.0083 C   0  0  0  0  0  0  0  0  0  0  0  0
   -0.8136   -2.0027    0.6194 O   0  0  0  0  0  0  0  0  0  0  0  0
    2.2176   -3.3411    0.3189 C   0  0  0  0  0  0  0  0  0  0  0  0
   -0.2574   -4.4279    1.1287 H   0  0  0  0  0  0  0  0  0  0  0  0
    1.8087   -2.6785    2.3327 H   0  0  0  0  0  0  0  0  0  0  0  0
    1.6793   -3.6366   -0.5890 H   0  0  0  0  0  0  0  0  0  0  0  0
    2.8662   -2.4980    0.0589 H   0  0  0  0  0  0  0  0  0  0  0  0
    2.8538   -4.1816    0.6166 H   0  0  0  0  0  0  0  0  0  0  0  0
    0.9758   -0.5952    1.0708 N   0  0  0  0  0  0  0  0  0  0  0  0
    0.3258    0.6374    0.7059 C   0  0  2  0  0  0  0  0  0  0  0  0
    1.1746    1.7819    1.2493 C   0  0  0  0  0  0  0  0  0  0  0  0
    0.8988    2.9658    1.0661 O   0  0  0  0  0  0  0  0  0  0  0  0
   -1.1009    0.7204    1.2617 C   0  0  0  0  0  0  0  0  0  0  0  0
   -2.0574   -0.2955    0.6386 C   0  0  0  0  0  0  0  0  0  0  0  0
   -3.4957   -0.2827    1.1668 C   0  0  0  0  0  0  0  0  0  0  0  0
   -3.6788    0.4804    2.1587 O   0  5  0  0  0  0  0  0  0  0  0  0
   -4.3238   -1.0111    0.5536 O   0  0  0  0  0  0  0  0  0  0  0  0
    1.9288   -0.5463    1.4242 H   0  0  0  0  0  0  0  0  0  0  0  0
    0.3315    0.6835   -0.3885 H   0  0  0  0  0  0  0  0  0  0  0  0
   -1.5005    1.7323    1.1205 H   0  0  0  0  0  0  0  0  0  0  0  0
   -1.0777    0.5542    2.3471 H   0  0  0  0  0  0  0  0  0  0  0  0
   -2.0743   -0.1742   -0.4511 H   0  0  0  0  0  0  0  0  0  0  0  0
   -1.6675   -1.3027    0.8340 H   0  0  0  0  0  0  0  0  0  0  0  0
    2.2993    1.3239    1.9213 N   0  0  0  0  0  0  0  0  0  0  0  0
    3.2718    2.2110    2.5163 C   0  0  2  0  0  0  0  0  0  0  0  0
    4.5503    1.4176    2.7513 C   0  0  0  0  0  0  0  0  0  0  0  0
    4.5712    0.1923    2.8485 O   0  0  0  0  0  0  0  0  0  0  0  0
    2.7548    2.8065    3.8167 C   0  0  0  0  0  0  0  0  0  0  0  0
    2.4386    0.3245    2.0370 H   0  0  0  0  0  0  0  0  0  0  0  0
    3.4632    3.0055    1.7868 H   0  0  0  0  0  0  0  0  0  0  0  0
    2.5573    2.0254    4.5599 H   0  0  0  0  0  0  0  0  0  0  0  0
    3.4815    3.5005    4.2517 H   0  0  0  0  0  0  0  0  0  0  0  0
    1.8194    3.3517    3.6509 H   0  0  0  0  0  0  0  0  0  0  0  0
    5.6592    2.2417    2.8828 N   0  0  0  0  0  0  0  0  0  0  0  0
    6.9876    1.7287    3.1244 C   0  0  0  0  0  0  0  0  0  0  0  0
    5.5522    3.2454    2.7690 H   0  0  0  0  0  0  0  0  0  0  0  0
    7.1782    1.6985    4.2073 H   0  0  0  0  0  0  0  0  0  0  0  0
    7.0695    0.7133    2.7093 H   0  0  0  0  0  0  0  0  0  0  0  0
    7.7270    2.3835    2.6402 H   0  0  0  0  0  0  0  0  0  0  0  0
  1  3  1  0  0  0  0
  1  7  1  0  0  0  0
  1  2  2  0  0  0  0
 33 34  1  0  0  0  0
 34 42  1  0  0  0  0
 34 35  2  0  0  0  0
  8  9  1  0  0  0  0
  9 17  1  0  0  0  0
  9 10  2  0  0  0  0
 18 19  1  0  0  0  0
 19 32  1  0  0  0  0
 19 20  2  0  0  0  0
 22 23  1  0  0  0  0
 23 24  1  0  0  0  0
 23 25  2  0  0  0  0
 33 36  1  0  0  0  0
  8 11  1  0  0  0  0
 42 43  1  0  0  0  0
 21 22  1  0  0  0  0
 18 21  1  0  0  0  0
 32 33  1  0  0  0  0
  7  8  1  0  0  0  0
 17 18  1  0  0  0  0
  3  4  1  0  0  0  0
  3  5  1  0  0  0  0
  3  6  1  0  0  0  0
 36 39  1  0  0  0  0
 36 40  1  0  0  0  0
 36 41  1  0  0  0  0
 11 14  1  0  0  0  0
 11 15  1  0  0  0  0
 11 16  1  0  0  0  0
 43 45  1  0  0  0  0
 43 46  1  0  0  0  0
 43 47  1  0  0  0  0
 22 30  1  0  0  0  0
 22 31  1  0  0  0  0
 21 28  1  0  0  0  0
 21 29  1  0  0  0  0
 33 38  1  0  0  0  0
  8 13  1  0  0  0  0
 18 27  1  0  0  0  0
 42 44  1  0  0  0  0
  7 12  1  0  0  0  0
 32 37  1  0  0  0  0
 17 26  1  0  0  0  0
M  CHG  1  24  -1
M  END
$$$$

  -OEChem-05262214473D

 47 46  0     1  0  0  0  0  0999 V2000
    0.5093   -4.7265    3.0306 C   0  0  0  0  0  0  0  0  0  0  0  0
    1.2735   -4.4402    3.9448 O   0  0  0  0  0  0  0  0  0  0  0  0
   -0.4465   -5.8608    3.1982 C   0  0  0  0  0  0  0  0  0  0  0  0
   -0.0219   -6.8213    2.8645 H   0  0  0  0  0  0  0  0  0  0  0  0
   -0.7314   -6.0185    4.2509 H   0  0  0  0  0  0  0  0  0  0  0  0
   -1.3983   -5.7596    2.6527 H   0  0  0  0  0  0  0  0  0  0  0  0
    0.4252   -4.0886    1.8040 N   0  0  0  0  0  0  0  0  0  0  0  0
    1.2532   -2.9707    1.4349 C   0  0  2  0  0  0  0  0  0  0  0  0
    0.3395   -1.8293    1.0083 C   0  0  0  0  0  0  0  0  0  0  0  0
   -0.8136   -2.0027    0.6194 O   0  0  0  0  0  0  0  0  0  0  0  0
    2.2176   -3.3411    0.3189 C   0  0  0  0  0  0  0  0  0  0  0  0
   -0.2574   -4.4279    1.1287 H   0  0  0  0  0  0  0  0  0  0  0  0
    1.8087   -2.6785    2.3327 H   0  0  0  0  0  0  0  0  0  0  0  0
    1.6793   -3.6366   -0.5890 H   0  0  0  0  0  0  0  0  0  0  0  0
    2.8662   -2.4980    0.0589 H   0  0  0  0  0  0  0  0  0  0  0  0
    2.8538   -4.1816    0.6166 H   0  0  0  0  0  0  0  0  0  0  0  0
    0.9758   -0.5952    1.0708 N   0  0  0  0  0  0  0  0  0  0  0  0
    0.3258    0.6374    0.7059 C   0  0  2  0  0  0  0  0  0  0  0  0
    1.1746    1.7819    1.2493 C   0  0  0  0  0  0  0  0  0  0  0  0
    0.7761    2.9436    1.3046 O   0  0  0  0  0  0  0  0  0  0  0  0
   -1.1009    0.7204    1.2617 C   0  0  0  0  0  0  0  0  0  0  0  0
   -2.0574   -0.2955    0.6386 C   0  0  0  0  0  0  0  0  0  0  0  0
   -3.4957   -0.2827    1.1668 C   0  0  0  0  0  0  0  0  0  0  0  0
   -3.6788    0.4804    2.1587 O   0  5  0  0  0  0  0  0  0  0  0  0
   -4.3238   -1.0111    0.5536 O   0  0  0  0  0  0  0  0  0  0  0  0
    1.9288   -0.5463    1.4242 H   0  0  0  0  0  0  0  0  0  0  0  0
    0.3315    0.6835   -0.3885 H   0  0  0  0  0  0  0  0  0  0  0  0
   -1.5005    1.7323    1.1205 H   0  0  0  0  0  0  0  0  0  0  0  0
   -1.0777    0.5542    2.3471 H   0  0  0  0  0  0  0  0  0  0  0  0
   -2.0743   -0.1742   -0.4511 H   0  0  0  0  0  0  0  0  0  0  0  0
   -1.6675   -1.3027    0.8340 H   0  0  0  0  0  0  0  0  0  0  0  0
    2.4436    1.3597    1.6203 N   0  0  0  0  0  0  0  0  0  0  0  0
    3.4437    2.2569    2.1512 C   0  0  2  0  0  0  0  0  0  0  0  0
    4.8013    1.5796    2.0179 C   0  0  0  0  0  0  0  0  0  0  0  0
    4.9367    0.3617    1.9206 O   0  0  0  0  0  0  0  0  0  0  0  0
    3.1538    2.6130    3.6009 C   0  0  0  0  0  0  0  0  0  0  0  0
    2.6809    0.3744    1.5534 H   0  0  0  0  0  0  0  0  0  0  0  0
    3.4220    3.1584    1.5292 H   0  0  0  0  0  0  0  0  0  0  0  0
    3.1713    1.7222    4.2395 H   0  0  0  0  0  0  0  0  0  0  0  0
    3.8967    3.3154    3.9931 H   0  0  0  0  0  0  0  0  0  0  0  0
    2.1646    3.0729    3.6990 H   0  0  0  0  0  0  0  0  0  0  0  0
    5.8463    2.4918    2.0638 N   0  0  0  0  0  0  0  0  0  0  0  0
    7.2319    2.0953    1.9706 C   0  0  0  0  0  0  0  0  0  0  0  0
    5.6406    3.4845    2.1271 H   0  0  0  0  0  0  0  0  0  0  0  0
    7.6381    1.9397    2.9809 H   0  0  0  0  0  0  0  0  0  0  0  0
    7.3076    1.1597    1.3970 H   0  0  0  0  0  0  0  0  0  0  0  0
    7.8056    2.8844    1.4624 H   0  0  0  0  0  0  0  0  0  0  0  0
  1  3  1  0  0  0  0
  1  7  1  0  0  0  0
  1  2  2  0  0  0  0
 33 34  1  0  0  0  0
 34 42  1  0  0  0  0
 34 35  2  0  0  0  0
  8  9  1  0  0  0  0
  9 17  1  0  0  0  0
  9 10  2  0  0  0  0
 18 19  1  0  0  0  0
 19 32  1  0  0  0  0
 19 20  2  0  0  0  0
 22 23  1  0  0  0  0
 23 24  1  0  0  0  0
 23 25  2  0  0  0  0
 33 36  1  0  0  0  0
  8 11  1  0  0  0  0
 42 43  1  0  0  0  0
 21 22  1  0  0  0  0
 18 21  1  0  0  0  0
 32 33  1  0  0  0  0
  7  8  1  0  0  0  0
 17 18  1  0  0  0  0
  3  4  1  0  0  0  0
  3  5  1  0  0  0  0
  3  6  1  0  0  0  0
 36 39  1  0  0  0  0
 36 40  1  0  0  0  0
 36 41  1  0  0  0  0
 11 14  1  0  0  0  0
 11 15  1  0  0  0  0
 11 16  1  0  0  0  0
 43 45  1  0  0  0  0
 43 46  1  0  0  0  0
 43 47  1  0  0  0  0
 22 30  1  0  0  0  0
 22 31  1  0  0  0  0
 21 28  1  0  0  0  0
 21 29  1  0  0  0  0
 33 38  1  0  0  0  0
  8 13  1  0  0  0  0
 18 27  1  0  0  0  0
 42 44  1  0  0  0  0
  7 12  1  0  0  0  0
 32 37  1  0  0  0  0
 17 26  1  0  0  0  0
M  CHG  1  24  -1
M  END
$$$$

  -OEChem-05262214473D

 47 46  0     1  0  0  0  0  0999 V2000
    0.5093   -4.7265    3.0306 C   0  0  0  0  0  0  0  0  0  0  0  0
    1.2735   -4.4402    3.9448 O   0  0  0  0  0  0  0  0  0  0  0  0
   -0.4465   -5.8608    3.1982 C   0  0  0  0  0  0  0  0  0  0  0  0
   -0.0219   -6.8213    2.8645 H   0  0  0  0  0  0  0  0  0  0  0  0
   -0.7314   -6.0185    4.2509 H   0  0  0  0  0  0  0  0  0  0  0  0
   -1.3983   -5.7596    2.6527 H   0  0  0  0  0  0  0  0  0  0  0  0
    0.4252   -4.0886    1.8040 N   0  0  0  0  0  0  0  0  0  0  0  0
    1.2532   -2.9707    1.4349 C   0  0  2  0  0  0  0  0  0  0  0  0
    0.3395   -1.8293    1.0083 C   0  0  0  0  0  0  0  0  0  0  0  0
   -0.8136   -2.0027    0.6194 O   0  0  0  0  0  0  0  0  0  0  0  0
    2.2176   -3.3411    0.3189 C   0  0  0  0  0  0  0  0  0  0  0  0
   -0.2574   -4.4279    1.1287 H   0  0  0  0  0  0  0  0  0  0  0  0
    1.8087   -2.6785    2.3327 H   0  0  0  0  0  0  0  0  0  0  0  0
    1.6793   -3.6366   -0.5890 H   0  0  0  0  0  0  0  0  0  0  0  0
    2.8662   -2.4980    0.0589 H   0  0  0  0  0  0  0  0  0  0  0  0
    2.8538   -4.1816    0.6166 H   0  0  0  0  0  0  0  0  0  0  0  0
    0.9758   -0.5952    1.0708 N   0  0  0  0  0  0  0  0  0  0  0  0
    0.3258    0.6374    0.7059 C   0  0  2  0  0  0  0  0  0  0  0  0
    1.1746    1.7819    1.2493 C   0  0  0  0  0  0  0  0  0  0  0  0
    0.7060    2.8764    1.5555 O   0  0  0  0  0  0  0  0  0  0  0  0
   -1.1009    0.7204    1.2617 C   0  0  0  0  0  0  0  0  0  0  0  0
   -2.0574   -0.2955    0.6386 C   0  0  0  0  0  0  0  0  0  0  0  0
   -3.4957   -0.2827    1.1668 C   0  0  0  0  0  0  0  0  0  0  0  0
   -3.6788    0.4804    2.1587 O   0  5  0  0  0  0  0  0  0  0  0  0
   -4.3238   -1.0111    0.5536 O   0  0  0  0  0  0  0  0  0  0  0  0
    1.9288   -0.5463    1.4242 H   0  0  0  0  0  0  0  0  0  0  0  0
    0.3315    0.6835   -0.3885 H   0  0  0  0  0  0  0  0  0  0  0  0
   -1.5005    1.7323    1.1205 H   0  0  0  0  0  0  0  0  0  0  0  0
   -1.0777    0.5542    2.3471 H   0  0  0  0  0  0  0  0  0  0  0  0
   -2.0743   -0.1742   -0.4511 H   0  0  0  0  0  0  0  0  0  0  0  0
   -1.6675   -1.3027    0.8340 H   0  0  0  0  0  0  0  0  0  0  0  0
    2.5213    1.4510    1.3066 N   0  0  0  0  0  0  0  0  0  0  0  0
    3.5346    2.3696    1.7716 C   0  0  2  0  0  0  0  0  0  0  0  0
    4.8863    1.8650    1.2841 C   0  0  0  0  0  0  0  0  0  0  0  0
    5.0939    0.6927    0.9778 O   0  0  0  0  0  0  0  0  0  0  0  0
    3.5152    2.4939    3.2872 C   0  0  0  0  0  0  0  0  0  0  0  0
    2.8163    0.5146    1.0463 H   0  0  0  0  0  0  0  0  0  0  0  0
    3.3181    3.3393    1.3103 H   0  0  0  0  0  0  0  0  0  0  0  0
    3.7300    1.5322    3.7670 H   0  0  0  0  0  0  0  0  0  0  0  0
    4.2647    3.2120    3.6360 H   0  0  0  0  0  0  0  0  0  0  0  0
    2.5330    2.8285    3.6382 H   0  0  0  0  0  0  0  0  0  0  0  0
    5.8448    2.8686    1.2724 N   0  0  0  0  0  0  0  0  0  0  0  0
    7.2100    2.6380    0.8614 C   0  0  0  0  0  0  0  0  0  0  0  0
    5.5793    3.8161    1.5245 H   0  0  0  0  0  0  0  0  0  0  0  0
    7.8219    2.3917    1.7417 H   0  0  0  0  0  0  0  0  0  0  0  0
    7.2416    1.8019    0.1474 H   0  0  0  0  0  0  0  0  0  0  0  0
    7.6065    3.5450    0.3817 H   0  0  0  0  0  0  0  0  0  0  0  0
  1  3  1  0  0  0  0
  1  7  1  0  0  0  0
  1  2  2  0  0  0  0
 33 34  1  0  0  0  0
 34 42  1  0  0  0  0
 34 35  2  0  0  0  0
  8  9  1  0  0  0  0
  9 17  1  0  0  0  0
  9 10  2  0  0  0  0
 18 19  1  0  0  0  0
 19 32  1  0  0  0  0
 19 20  2  0  0  0  0
 22 23  1  0  0  0  0
 23 24  1  0  0  0  0
 23 25  2  0  0  0  0
 33 36  1  0  0  0  0
  8 11  1  0  0  0  0
 42 43  1  0  0  0  0
 21 22  1  0  0  0  0
 18 21  1  0  0  0  0
 32 33  1  0  0  0  0
  7  8  1  0  0  0  0
 17 18  1  0  0  0  0
  3  4  1  0  0  0  0
  3  5  1  0  0  0  0
  3  6  1  0  0  0  0
 36 39  1  0  0  0  0
 36 40  1  0  0  0  0
 36 41  1  0  0  0  0
 11 14  1  0  0  0  0
 11 15  1  0  0  0  0
 11 16  1  0  0  0  0
 43 45  1  0  0  0  0
 43 46  1  0  0  0  0
 43 47  1  0  0  0  0
 22 30  1  0  0  0  0
 22 31  1  0  0  0  0
 21 28  1  0  0  0  0
 21 29  1  0  0  0  0
 33 38  1  0  0  0  0
  8 13  1  0  0  0  0
 18 27  1  0  0  0  0
 42 44  1  0  0  0  0
  7 12  1  0  0  0  0
 32 37  1  0  0  0  0
 17 26  1  0  0  0  0
M  CHG  1  24  -1
M  END
$$$$

  -OEChem-05262214473D

 47 46  0     1  0  0  0  0  0999 V2000
    0.5093   -4.7265    3.0306 C   0  0  0  0  0  0  0  0  0  0  0  0
    1.2735   -4.4402    3.9448 O   0  0  0  0  0  0  0  0  0  0  0  0
   -0.4465   -5.8608    3.1982 C   0  0  0  0  0  0  0  0  0  0  0  0
   -0.0219   -6.8213    2.8645 H   0  0  0  0  0  0  0  0  0  0  0  0
   -0.7314   -6.0185    4.2509 H   0  0  0  0  0  0  0  0  0  0  0  0
   -1.3983   -5.7596    2.6527 H   0  0  0  0  0  0  0  0  0  0  0  0
    0.4252   -4.0886    1.8040 N   0  0  0  0  0  0  0  0  0  0  0  0
    1.2532   -2.9707    1.4349 C   0  0  2  0  0  0  0  0  0  0  0  0
    0.3395   -1.8293    1.0083 C   0  0  0  0  0  0  0  0  0  0  0  0
   -0.8136   -2.0027    0.6194 O   0  0  0  0  0  0  0  0  0  0  0  0
    2.2176   -3.3411    0.3189 C   0  0  0  0  0  0  0  0  0  0  0  0
   -0.2574   -4.4279    1.1287 H   0  0  0  0  0  0  0  0  0  0  0  0
    1.8087   -2.6785    2.3327 H   0  0  0  0  0  0  0  0  0  0  0  0
    1.6793   -3.6366   -0.5890 H   0  0  0  0  0  0  0  0  0  0  0  0
    2.8662   -2.4980    0.0589 H   0  0  0  0  0  0  0  0  0  0  0  0
    2.8538   -4.1816    0.6166 H   0  0  0  0  0  0  0  0  0  0  0  0
    0.9758   -0.5952    1.0708 N   0  0  0  0  0  0  0  0  0  0  0  0
    0.3258    0.6374    0.7059 C   0  0  2  0  0  0  0  0  0  0  0  0
    1.1746    1.7819    1.2493 C   0  0  0  0  0  0  0  0  0  0  0  0
    0.6933    2.7689    1.8019 O   0  0  0  0  0  0  0  0  0  0  0  0
   -1.1009    0.7204    1.2617 C   0  0  0  0  0  0  0  0  0  0  0  0
   -2.0574   -0.2955    0.6386 C   0  0  0  0  0  0  0  0  0  0  0  0
   -3.4957   -0.2827    1.1668 C   0  0  0  0  0  0  0  0  0  0  0  0
   -3.6788    0.4804    2.1587 O   0  5  0  0  0  0  0  0  0  0  0  0
   -4.3238   -1.0111    0.5536 O   0  0  0  0  0  0  0  0  0  0  0  0
    1.9288   -0.5463    1.4242 H   0  0  0  0  0  0  0  0  0  0  0  0
    0.3315    0.6835   -0.3885 H   0  0  0  0  0  0  0  0  0  0  0  0
   -1.5005    1.7323    1.1205 H   0  0  0  0  0  0  0  0  0  0  0  0
   -1.0777    0.5542    2.3471 H   0  0  0  0  0  0  0  0  0  0  0  0
   -2.0743   -0.1742   -0.4511 H   0  0  0  0  0  0  0  0  0  0  0  0
   -1.6675   -1.3027    0.8340 H   0  0  0  0  0  0  0  0  0  0  0  0
    2.5269    1.5916    1.0017 N   0  0  0  0  0  0  0  0  0  0  0  0
    3.5382    2.5416    1.4036 C   0  0  2  0  0  0  0  0  0  0  0  0
    4.7995    2.2541    0.5999 C   0  0  0  0  0  0  0  0  0  0  0  0
    5.0321    1.1628    0.0842 O   0  0  0  0  0  0  0  0  0  0  0  0
    3.8142    2.4575    2.8968 C   0  0  0  0  0  0  0  0  0  0  0  0
    2.8358    0.7356    0.5504 H   0  0  0  0  0  0  0  0  0  0  0  0
    3.1585    3.5361    1.1451 H   0  0  0  0  0  0  0  0  0  0  0  0
    4.1955    1.4681    3.1748 H   0  0  0  0  0  0  0  0  0  0  0  0
    4.5602    3.1976    3.2047 H   0  0  0  0  0  0  0  0  0  0  0  0
    2.8997    2.6351    3.4728 H   0  0  0  0  0  0  0  0  0  0  0  0
    5.6549    3.3464    0.5625 N   0  0  0  0  0  0  0  0  0  0  0  0
    6.9234    3.3201   -0.1275 C   0  0  0  0  0  0  0  0  0  0  0  0
    5.3724    4.2175    1.0020 H   0  0  0  0  0  0  0  0  0  0  0  0
    7.7170    3.0237    0.5741 H   0  0  0  0  0  0  0  0  0  0  0  0
    6.8759    2.5961   -0.9543 H   0  0  0  0  0  0  0  0  0  0  0  0
    7.1434    4.3205   -0.5284 H   0  0  0  0  0  0  0  0  0  0  0  0
  1  3  1  0  0  0  0
  1  7  1  0  0  0  0
  1  2  2  0  0  0  0
 33 34  1  0  0  0  0
 34 42  1  0  0  0  0
 34 35  2  0  0  0  0
  8  9  1  0  0  0  0
  9 17  1  0  0  0  0
  9 10  2  0  0  0  0
 18 19  1  0  0  0  0
 19 32  1  0  0  0  0
 19 20  2  0  0  0  0
 22 23  1  0  0  0  0
 23 24  1  0  0  0  0
 23 25  2  0  0  0  0
 33 36  1  0  0  0  0
  8 11  1  0  0  0  0
 42 43  1  0  0  0  0
 21 22  1  0  0  0  0
 18 21  1  0  0  0  0
 32 33  1  0  0  0  0
  7  8  1  0  0  0  0
 17 18  1  0  0  0  0
  3  4  1  0  0  0  0
  3  5  1  0  0  0  0
  3  6  1  0  0  0  0
 36 39  1  0  0  0  0
 36 40  1  0  0  0  0
 36 41  1  0  0  0  0
 11 14  1  0  0  0  0
 11 15  1  0  0  0  0
 11 16  1  0  0  0  0
 43 45  1  0  0  0  0
 43 46  1  0  0  0  0
 43 47  1  0  0  0  0
 22 30  1  0  0  0  0
 22 31  1  0  0  0  0
 21 28  1  0  0  0  0
 21 29  1  0  0  0  0
 33 38  1  0  0  0  0
  8 13  1  0  0  0  0
 18 27  1  0  0  0  0
 42 44  1  0  0  0  0
  7 12  1  0  0  0  0
 32 37  1  0  0  0  0
 17 26  1  0  0  0  0
M  CHG  1  24  -1
M  END
$$$$

  -OEChem-05262214473D

 47 46  0     1  0  0  0  0  0999 V2000
    0.5093   -4.7265    3.0306 C   0  0  0  0  0  0  0  0  0  0  0  0
    1.2735   -4.4402    3.9448 O   0  0  0  0  0  0  0  0  0  0  0  0
   -0.4465   -5.8608    3.1982 C   0  0  0  0  0  0  0  0  0  0  0  0
   -0.0219   -6.8213    2.8645 H   0  0  0  0  0  0  0  0  0  0  0  0
   -0.7314   -6.0185    4.2509 H   0  0  0  0  0  0  0  0  0  0  0  0
   -1.3983   -5.7596    2.6527 H   0  0  0  0  0  0  0  0  0  0  0  0
    0.4252   -4.0886    1.8040 N   0  0  0  0  0  0  0  0  0  0  0  0
    1.2532   -2.9707    1.4349 C   0  0  2  0  0  0  0  0  0  0  0  0
    0.3395   -1.8293    1.0083 C   0  0  0  0  0  0  0  0  0  0  0  0
   -0.8136   -2.0027    0.6194 O   0  0  0  0  0  0  0  0  0  0  0  0
    2.2176   -3.3411    0.3189 C   0  0  0  0  0  0  0  0  0  0  0  0
   -0.2574   -4.4279    1.1287 H   0  0  0  0  0  0  0  0  0  0  0  0
    1.8087   -2.6785    2.3327 H   0  0  0  0  0  0  0  0  0  0  0  0
    1.6793   -3.6366   -0.5890 H   0  0  0  0  0  0  0  0  0  0  0  0
    2.8662   -2.4980    0.0589 H   0  0  0  0  0  0  0  0  0  0  0  0
    2.8538   -4.1816    0.6166 H   0  0  0  0  0  0  0  0  0  0  0  0
    0.9758   -0.5952    1.0708 N   0  0  0  0  0  0  0  0  0  0  0  0
    0.3258    0.6374    0.7059 C   0  0  2  0  0  0  0  0  0  0  0  0
    1.1746    1.7819    1.2493 C   0  0  0  0  0  0  0  0  0  0  0  0
    0.7387    2.6284    2.0269 O   0  0  0  0  0  0  0  0  0  0  0  0
   -1.1009    0.7204    1.2617 C   0  0  0  0  0  0  0  0  0  0  0  0
   -2.0574   -0.2955    0.6386 C   0  0  0  0  0  0  0  0  0  0  0  0
   -3.4957   -0.2827    1.1668 C   0  0  0  0  0  0  0  0  0  0  0  0
   -3.6788    0.4804    2.1587 O   0  5  0  0  0  0  0  0  0  0  0  0
   -4.3238   -1.0111    0.5536 O   0  0  0  0  0  0  0  0  0  0  0  0
    1.9288   -0.5463    1.4242 H   0  0  0  0  0  0  0  0  0  0  0  0
    0.3315    0.6835   -0.3885 H   0  0  0  0  0  0  0  0  0  0  0  0
   -1.5005    1.7323    1.1205 H   0  0  0  0  0  0  0  0  0  0  0  0
   -1.0777    0.5542    2.3471 H   0  0  0  0  0  0  0  0  0  0  0  0
   -2.0743   -0.1742   -0.4511 H   0  0  0  0  0  0  0  0  0  0  0  0
   -1.6675   -1.3027    0.8340 H   0  0  0  0  0  0  0  0  0  0  0  0
    2.4602    1.7718    0.7264 N   0  0  0  0  0  0  0  0  0  0  0  0
    3.4544    2.7611    1.0722 C   0  0  2  0  0  0  0  0  0  0  0  0
    4.5469    2.7206    0.0119 C   0  0  0  0  0  0  0  0  0  0  0  0
    4.7554    1.7398   -0.6993 O   0  0  0  0  0  0  0  0  0  0  0  0
    4.0306    2.5061    2.4563 C   0  0  0  0  0  0  0  0  0  0  0  0
    2.7378    1.0223    0.0995 H   0  0  0  0  0  0  0  0  0  0  0  0
    2.9541    3.7352    1.0449 H   0  0  0  0  0  0  0  0  0  0  0  0
    4.5359    1.5345    2.5030 H   0  0  0  0  0  0  0  0  0  0  0  0
    4.7632    3.2731    2.7285 H   0  0  0  0  0  0  0  0  0  0  0  0
    3.2395    2.5060    3.2139 H   0  0  0  0  0  0  0  0  0  0  0  0
    5.2895    3.8927   -0.0174 N   0  0  0  0  0  0  0  0  0  0  0  0
    6.3915    4.0949   -0.9288 C   0  0  0  0  0  0  0  0  0  0  0  0
    5.0340    4.6615    0.5954 H   0  0  0  0  0  0  0  0  0  0  0  0
    7.3306    3.7928   -0.4422 H   0  0  0  0  0  0  0  0  0  0  0  0
    6.2354    3.4882   -1.8330 H   0  0  0  0  0  0  0  0  0  0  0  0
    6.4477    5.1580   -1.2058 H   0  0  0  0  0  0  0  0  0  0  0  0
  1  3  1  0  0  0  0
  1  7  1  0  0  0  0
  1  2  2  0  0  0  0
 33 34  1  0  0  0  0
 34 42  1  0  0  0  0
 34 35  2  0  0  0  0
  8  9  1  0  0  0  0
  9 17  1  0  0  0  0
  9 10  2  0  0  0  0
 18 19  1  0  0  0  0
 19 32  1  0  0  0  0
 19 20  2  0  0  0  0
 22 23  1  0  0  0  0
 23 24  1  0  0  0  0
 23 25  2  0  0  0  0
 33 36  1  0  0  0  0
  8 11  1  0  0  0  0
 42 43  1  0  0  0  0
 21 22  1  0  0  0  0
 18 21  1  0  0  0  0
 32 33  1  0  0  0  0
  7  8  1  0  0  0  0
 17 18  1  0  0  0  0
  3  4  1  0  0  0  0
  3  5  1  0  0  0  0
  3  6  1  0  0  0  0
 36 39  1  0  0  0  0
 36 40  1  0  0  0  0
 36 41  1  0  0  0  0
 11 14  1  0  0  0  0
 11 15  1  0  0  0  0
 11 16  1  0  0  0  0
 43 45  1  0  0  0  0
 43 46  1  0  0  0  0
 43 47  1  0  0  0  0
 22 30  1  0  0  0  0
 22 31  1  0  0  0  0
 21 28  1  0  0  0  0
 21 29  1  0  0  0  0
 33 38  1  0  0  0  0
  8 13  1  0  0  0  0
 18 27  1  0  0  0  0
 42 44  1  0  0  0  0
  7 12  1  0  0  0  0
 32 37  1  0  0  0  0
 17 26  1  0  0  0  0
M  CHG  1  24  -1
M  END
$$$$

  -OEChem-05262214473D

 47 46  0     1  0  0  0  0  0999 V2000
    0.5093   -4.7265    3.0306 C   0  0  0  0  0  0  0  0  0  0  0  0
    1.2735   -4.4402    3.9448 O   0  0  0  0  0  0  0  0  0  0  0  0
   -0.4465   -5.8608    3.1982 C   0  0  0  0  0  0  0  0  0  0  0  0
   -0.0219   -6.8213    2.8645 H   0  0  0  0  0  0  0  0  0  0  0  0
   -0.7314   -6.0185    4.2509 H   0  0  0  0  0  0  0  0  0  0  0  0
   -1.3983   -5.7596    2.6527 H   0  0  0  0  0  0  0  0  0  0  0  0
    0.4252   -4.0886    1.8040 N   0  0  0  0  0  0  0  0  0  0  0  0
    1.2532   -2.9707    1.4349 C   0  0  2  0  0  0  0  0  0  0  0  0
    0.3395   -1.8293    1.0083 C   0  0  0  0  0  0  0  0  0  0  0  0
   -0.8136   -2.0027    0.6194 O   0  0  0  0  0  0  0  0  0  0  0  0
    2.2176   -3.3411    0.3189 C   0  0  0  0  0  0  0  0  0  0  0  0
   -0.2574   -4.4279    1.1287 H   0  0  0  0  0  0  0  0  0  0  0  0
    1.8087   -2.6785    2.3327 H   0  0  0  0  0  0  0  0  0  0  0  0
    1.6793   -3.6366   -0.5890 H   0  0  0  0  0  0  0  0  0  0  0  0
    2.8662   -2.4980    0.0589 H   0  0  0  0  0  0  0  0  0  0  0  0
    2.8538   -4.1816    0.6166 H   0  0  0  0  0  0  0  0  0  0  0  0
    0.9758   -0.5952    1.0708 N   0  0  0  0  0  0  0  0  0  0  0  0
    0.3258    0.6374    0.7059 C   0  0  2  0  0  0  0  0  0  0  0  0
    1.1746    1.7819    1.2493 C   0  0  0  0  0  0  0  0  0  0  0  0
    0.8393    2.4645    2.2151 O   0  0  0  0  0  0  0  0  0  0  0  0
   -1.1009    0.7204    1.2617 C   0  0  0  0  0  0  0  0  0  0  0  0
   -2.0574   -0.2955    0.6386 C   0  0  0  0  0  0  0  0  0  0  0  0
   -3.4957   -0.2827    1.1668 C   0  0  0  0  0  0  0  0  0  0  0  0
   -3.6788    0.4804    2.1587 O   0  5  0  0  0  0  0  0  0  0  0  0
   -4.3238   -1.0111    0.5536 O   0  0  0  0  0  0  0  0  0  0  0  0
    1.9288   -0.5463    1.4242 H   0  0  0  0  0  0  0  0  0  0  0  0
    0.3315    0.6835   -0.3885 H   0  0  0  0  0  0  0  0  0  0  0  0
   -1.5005    1.7323    1.1205 H   0  0  0  0  0  0  0  0  0  0  0  0
   -1.0777    0.5542    2.3471 H   0  0  0  0  0  0  0  0  0  0  0  0
   -2.0743   -0.1742   -0.4511 H   0  0  0  0  0  0  0  0  0  0  0  0
   -1.6675   -1.3027    0.8340 H   0  0  0  0  0  0  0  0  0  0  0  0
    2.3257    1.9793    0.4993 N   0  0  0  0  0  0  0  0  0  0  0  0
    3.2889    3.0131    0.8000 C   0  0  2  0  0  0  0  0  0  0  0  0
    4.1457    3.2326   -0.4398 C   0  0  0  0  0  0  0  0  0  0  0  0
    4.2829    2.3846   -1.3191 O   0  0  0  0  0  0  0  0  0  0  0  0
    4.1496    2.6365    1.9958 C   0  0  0  0  0  0  0  0  0  0  0  0
    2.5292    1.3552   -0.2757 H   0  0  0  0  0  0  0  0  0  0  0  0
    2.7189    3.9231    1.0166 H   0  0  0  0  0  0  0  0  0  0  0  0
    4.7282    1.7268    1.7976 H   0  0  0  0  0  0  0  0  0  0  0  0
    4.8599    3.4333    2.2401 H   0  0  0  0  0  0  0  0  0  0  0  0
    3.5294    2.4499    2.8792 H   0  0  0  0  0  0  0  0  0  0  0  0
    4.7735    4.4703   -0.4279 N   0  0  0  0  0  0  0  0  0  0  0  0
    5.6506    4.9098   -1.4879 C   0  0  0  0  0  0  0  0  0  0  0  0
    4.5873    5.1177    0.3322 H   0  0  0  0  0  0  0  0  0  0  0  0
    6.6890    4.6464   -1.2381 H   0  0  0  0  0  0  0  0  0  0  0  0
    5.3638    4.4175   -2.4288 H   0  0  0  0  0  0  0  0  0  0  0  0
    5.5670    6.0004   -1.6043 H   0  0  0  0  0  0  0  0  0  0  0  0
  1  3  1  0  0  0  0
  1  7  1  0  0  0  0
  1  2  2  0  0  0  0
 33 34  1  0  0  0  0
 34 42  1  0  0  0  0
 34 35  2  0  0  0  0
  8  9  1  0  0  0  0
  9 17  1  0  0  0  0
  9 10  2  0  0  0  0
 18 19  1  0  0  0  0
 19 32  1  0  0  0  0
 19 20  2  0  0  0  0
 22 23  1  0  0  0  0
 23 24  1  0  0  0  0
 23 25  2  0  0  0  0
 33 36  1  0  0  0  0
  8 11  1  0  0  0  0
 42 43  1  0  0  0  0
 21 22  1  0  0  0  0
 18 21  1  0  0  0  0
 32 33  1  0  0  0  0
  7  8  1  0  0  0  0
 17 18  1  0  0  0  0
  3  4  1  0  0  0  0
  3  5  1  0  0  0  0
  3  6  1  0  0  0  0
 36 39  1  0  0  0  0
 36 40  1  0  0  0  0
 36 41  1  0  0  0  0
 11 14  1  0  0  0  0
 11 15  1  0  0  0  0
 11 16  1  0  0  0  0
 43 45  1  0  0  0  0
 43 46  1  0  0  0  0
 43 47  1  0  0  0  0
 22 30  1  0  0  0  0
 22 31  1  0  0  0  0
 21 28  1  0  0  0  0
 21 29  1  0  0  0  0
 33 38  1  0  0  0  0
  8 13  1  0  0  0  0
 18 27  1  0  0  0  0
 42 44  1  0  0  0  0
  7 12  1  0  0  0  0
 32 37  1  0  0  0  0
 17 26  1  0  0  0  0
M  CHG  1  24  -1
M  END
$$$$

  -OEChem-05262214473D

 47 46  0     1  0  0  0  0  0999 V2000
    0.5093   -4.7265    3.0306 C   0  0  0  0  0  0  0  0  0  0  0  0
    1.2735   -4.4402    3.9448 O   0  0  0  0  0  0  0  0  0  0  0  0
   -0.4465   -5.8608    3.1982 C   0  0  0  0  0  0  0  0  0  0  0  0
   -0.0219   -6.8213    2.8645 H   0  0  0  0  0  0  0  0  0  0  0  0
   -0.7314   -6.0185    4.2509 H   0  0  0  0  0  0  0  0  0  0  0  0
   -1.3983   -5.7596    2.6527 H   0  0  0  0  0  0  0  0  0  0  0  0
    0.4252   -4.0886    1.8040 N   0  0  0  0  0  0  0  0  0  0  0  0
    1.2532   -2.9707    1.4349 C   0  0  2  0  0  0  0  0  0  0  0  0
    0.3395   -1.8293    1.0083 C   0  0  0  0  0  0  0  0  0  0  0  0
   -0.8136   -2.0027    0.6194 O   0  0  0  0  0  0  0  0  0  0  0  0
    2.2176   -3.3411    0.3189 C   0  0  0  0  0  0  0  0  0  0  0  0
   -0.2574   -4.4279    1.1287 H   0  0  0  0  0  0  0  0  0  0  0  0
    1.8087   -2.6785    2.3327 H   0  0  0  0  0  0  0  0  0  0  0  0
    1.6793   -3.6366   -0.5890 H   0  0  0  0  0  0  0  0  0  0  0  0
    2.8662   -2.4980    0.0589 H   0  0  0  0  0  0  0  0  0  0  0  0
    2.8538   -4.1816    0.6166 H   0  0  0  0  0  0  0  0  0  0  0  0
    0.9758   -0.5952    1.0708 N   0  0  0  0  0  0  0  0  0  0  0  0
    0.3258    0.6374    0.7059 C   0  0  2  0  0  0  0  0  0  0  0  0
    1.1746    1.7819    1.2493 C   0  0  0  0  0  0  0  0  0  0  0  0
    0.9881    2.2883    2.3538 O   0  0  0  0  0  0  0  0  0  0  0  0
   -1.1009    0.7204    1.2617 C   0  0  0  0  0  0  0  0  0  0  0  0
   -2.0574   -0.2955    0.6386 C   0  0  0  0  0  0  0  0  0  0  0  0
   -3.4957   -0.2827    1.1668 C   0  0  0  0  0  0  0  0  0  0  0  0
   -3.6788    0.4804    2.1587 O   0  5  0  0  0  0  0  0  0  0  0  0
   -4.3238   -1.0111    0.5536 O   0  0  0  0  0  0  0  0  0  0  0  0
    1.9288   -0.5463    1.4242 H   0  0  0  0  0  0  0  0  0  0  0  0
    0.3315    0.6835   -0.3885 H   0  0  0  0  0  0  0  0  0  0  0  0
   -1.5005    1.7323    1.1205 H   0  0  0  0  0  0  0  0  0  0  0  0
   -1.0777    0.5542    2.3471 H   0  0  0  0  0  0  0  0  0  0  0  0
   -2.0743   -0.1742   -0.4511 H   0  0  0  0  0  0  0  0  0  0  0  0
   -1.6675   -1.3027    0.8340 H   0  0  0  0  0  0  0  0  0  0  0  0
    2.1325    2.2001    0.3361 N   0  0  0  0  0  0  0  0  0  0  0  0
    3.0528    3.2804    0.6055 C   0  0  2  0  0  0  0  0  0  0  0  0
    3.6231    3.7552   -0.7244 C   0  0  0  0  0  0  0  0  0  0  0  0
    3.6465    3.0531   -1.7332 O   0  0  0  0  0  0  0  0  0  0  0  0
    4.1631    2.8397    1.5467 C   0  0  0  0  0  0  0  0  0  0  0  0
    2.2241    1.7115   -0.5497 H   0  0  0  0  0  0  0  0  0  0  0  0
    2.4688    4.0871    1.0619 H   0  0  0  0  0  0  0  0  0  0  0  0
    4.7591    2.0319    1.1066 H   0  0  0  0  0  0  0  0  0  0  0  0
    4.8436    3.6673    1.7726 H   0  0  0  0  0  0  0  0  0  0  0  0
    3.7495    2.4707    2.4915 H   0  0  0  0  0  0  0  0  0  0  0  0
    4.1421    5.0397   -0.6410 N   0  0  0  0  0  0  0  0  0  0  0  0
    4.7513    5.7090   -1.7666 C   0  0  0  0  0  0  0  0  0  0  0  0
    4.0626    5.5551    0.2306 H   0  0  0  0  0  0  0  0  0  0  0  0
    5.8360    5.5264   -1.7593 H   0  0  0  0  0  0  0  0  0  0  0  0
    4.3204    5.3205   -2.7012 H   0  0  0  0  0  0  0  0  0  0  0  0
    4.5611    6.7902   -1.6968 H   0  0  0  0  0  0  0  0  0  0  0  0
  1  3  1  0  0  0  0
  1  7  1  0  0  0  0
  1  2  2  0  0  0  0
 33 34  1  0  0  0  0
 34 42  1  0  0  0  0
 34 35  2  0  0  0  0
  8  9  1  0  0  0  0
  9 17  1  0  0  0  0
  9 10  2  0  0  0  0
 18 19  1  0  0  0  0
 19 32  1  0  0  0  0
 19 20  2  0  0  0  0
 22 23  1  0  0  0  0
 23 24  1  0  0  0  0
 23 25  2  0  0  0  0
 33 36  1  0  0  0  0
  8 11  1  0  0  0  0
 42 43  1  0  0  0  0
 21 22  1  0  0  0  0
 18 21  1  0  0  0  0
 32 33  1  0  0  0  0
  7  8  1  0  0  0  0
 17 18  1  0  0  0  0
  3  4  1  0  0  0  0
  3  5  1  0  0  0  0
  3  6  1  0  0  0  0
 36 39  1  0  0  0  0
 36 40  1  0  0  0  0
 36 41  1  0  0  0  0
 11 14  1  0  0  0  0
 11 15  1  0  0  0  0
 11 16  1  0  0  0  0
 43 45  1  0  0  0  0
 43 46  1  0  0  0  0
 43 47  1  0  0  0  0
 22 30  1  0  0  0  0
 22 31  1  0  0  0  0
 21 28  1  0  0  0  0
 21 29  1  0  0  0  0
 33 38  1  0  0  0  0
  8 13  1  0  0  0  0
 18 27  1  0  0  0  0
 42 44  1  0  0  0  0
  7 12  1  0  0  0  0
 32 37  1  0  0  0  0
 17 26  1  0  0  0  0
M  CHG  1  24  -1
M  END
$$$$

  -OEChem-05262214473D

 47 46  0     1  0  0  0  0  0999 V2000
    0.5093   -4.7265    3.0306 C   0  0  0  0  0  0  0  0  0  0  0  0
    1.2735   -4.4402    3.9448 O   0  0  0  0  0  0  0  0  0  0  0  0
   -0.4465   -5.8608    3.1982 C   0  0  0  0  0  0  0  0  0  0  0  0
   -0.0219   -6.8213    2.8645 H   0  0  0  0  0  0  0  0  0  0  0  0
   -0.7314   -6.0185    4.2509 H   0  0  0  0  0  0  0  0  0  0  0  0
   -1.3983   -5.7596    2.6527 H   0  0  0  0  0  0  0  0  0  0  0  0
    0.4252   -4.0886    1.8040 N   0  0  0  0  0  0  0  0  0  0  0  0
    1.2532   -2.9707    1.4349 C   0  0  2  0  0  0  0  0  0  0  0  0
    0.3395   -1.8293    1.0083 C   0  0  0  0  0  0  0  0  0  0  0  0
   -0.8136   -2.0027    0.6194 O   0  0  0  0  0  0  0  0  0  0  0  0
    2.2176   -3.3411    0.3189 C   0  0  0  0  0  0  0  0  0  0  0  0
   -0.2574   -4.4279    1.1287 H   0  0  0  0  0  0  0  0  0  0  0  0
    1.8087   -2.6785    2.3327 H   0  0  0  0  0  0  0  0  0  0  0  0
    1.6793   -3.6366   -0.5890 H   0  0  0  0  0  0  0  0  0  0  0  0
    2.8662   -2.4980    0.0589 H   0  0  0  0  0  0  0  0  0  0  0  0
    2.8538   -4.1816    0.6166 H   0  0  0  0  0  0  0  0  0  0  0  0
    0.9758   -0.5952    1.0708 N   0  0  0  0  0  0  0  0  0  0  0  0
    0.3258    0.6374    0.7059 C   0  0  2  0  0  0  0  0  0  0  0  0
    1.1746    1.7819    1.2493 C   0  0  0  0  0  0  0  0  0  0  0  0
    1.1750    2.1119    2.4335 O   0  0  0  0  0  0  0  0  0  0  0  0
   -1.1009    0.7204    1.2617 C   0  0  0  0  0  0  0  0  0  0  0  0
   -2.0574   -0.2955    0.6386 C   0  0  0  0  0  0  0  0  0  0  0  0
   -3.4957   -0.2827    1.1668 C   0  0  0  0  0  0  0  0  0  0  0  0
   -3.6788    0.4804    2.1587 O   0  5  0  0  0  0  0  0  0  0  0  0
   -4.3238   -1.0111    0.5536 O   0  0  0  0  0  0  0  0  0  0  0  0
    1.9288   -0.5463    1.4242 H   0  0  0  0  0  0  0  0  0  0  0  0
    0.3315    0.6835   -0.3885 H   0  0  0  0  0  0  0  0  0  0  0  0
   -1.5005    1.7323    1.1205 H   0  0  0  0  0  0  0  0  0  0  0  0
   -1.0777    0.5542    2.3471 H   0  0  0  0  0  0  0  0  0  0  0  0
   -2.0743   -0.1742   -0.4511 H   0  0  0  0  0  0  0  0  0  0  0  0
   -1.6675   -1.3027    0.8340 H   0  0  0  0  0  0  0  0  0  0  0  0
    1.8938    2.4191    0.2477 N   0  0  0  0  0  0  0  0  0  0  0  0
    2.7624    3.5449    0.5020 C   0  0  2  0  0  0  0  0  0  0  0  0
    3.0150    4.2528   -0.8226 C   0  0  0  0  0  0  0  0  0  0  0  0
    2.8898    3.6997   -1.9132 O   0  0  0  0  0  0  0  0  0  0  0  0
    4.0701    3.1019    1.1396 C   0  0  0  0  0  0  0  0  0  0  0  0
    1.8433    2.0670   -0.7037 H   0  0  0  0  0  0  0  0  0  0  0  0
    2.2209    4.2158    1.1779 H   0  0  0  0  0  0  0  0  0  0  0  0
    4.6267    2.4290    0.4770 H   0  0  0  0  0  0  0  0  0  0  0  0
    4.7155    3.9591    1.3579 H   0  0  0  0  0  0  0  0  0  0  0  0
    3.8850    2.5669    2.0773 H   0  0  0  0  0  0  0  0  0  0  0  0
    3.4383    5.5621   -0.6422 N   0  0  0  0  0  0  0  0  0  0  0  0
    3.7547    6.4383   -1.7460 C   0  0  0  0  0  0  0  0  0  0  0  0
    3.4957    5.9438    0.2974 H   0  0  0  0  0  0  0  0  0  0  0  0
    4.8296    6.3729   -1.9702 H   0  0  0  0  0  0  0  0  0  0  0  0
    3.1764    6.1358   -2.6315 H   0  0  0  0  0  0  0  0  0  0  0  0
    3.4988    7.4737   -1.4770 H   0  0  0  0  0  0  0  0  0  0  0  0
  1  3  1  0  0  0  0
  1  7  1  0  0  0  0
  1  2  2  0  0  0  0
 33 34  1  0  0  0  0
 34 42  1  0  0  0  0
 34 35  2  0  0  0  0
  8  9  1  0  0  0  0
  9 17  1  0  0  0  0
  9 10  2  0  0  0  0
 18 19  1  0  0  0  0
 19 32  1  0  0  0  0
 19 20  2  0  0  0  0
 22 23  1  0  0  0  0
 23 24  1  0  0  0  0
 23 25  2  0  0  0  0
 33 36  1  0  0  0  0
  8 11  1  0  0  0  0
 42 43  1  0  0  0  0
 21 22  1  0  0  0  0
 18 21  1  0  0  0  0
 32 33  1  0  0  0  0
  7  8  1  0  0  0  0
 17 18  1  0  0  0  0
  3  4  1  0  0  0  0
  3  5  1  0  0  0  0
  3  6  1  0  0  0  0
 36 39  1  0  0  0  0
 36 40  1  0  0  0  0
 36 41  1  0  0  0  0
 11 14  1  0  0  0  0
 11 15  1  0  0  0  0
 11 16  1  0  0  0  0
 43 45  1  0  0  0  0
 43 46  1  0  0  0  0
 43 47  1  0  0  0  0
 22 30  1  0  0  0  0
 22 31  1  0  0  0  0
 21 28  1  0  0  0  0
 21 29  1  0  0  0  0
 33 38  1  0  0  0  0
  8 13  1  0  0  0  0
 18 27  1  0  0  0  0
 42 44  1  0  0  0  0
  7 12  1  0  0  0  0
 32 37  1  0  0  0  0
 17 26  1  0  0  0  0
M  CHG  1  24  -1
M  END
$$$$

  -OEChem-05262214473D

 47 46  0     1  0  0  0  0  0999 V2000
    0.5093   -4.7265    3.0306 C   0  0  0  0  0  0  0  0  0  0  0  0
    1.2735   -4.4402    3.9448 O   0  0  0  0  0  0  0  0  0  0  0  0
   -0.4465   -5.8608    3.1982 C   0  0  0  0  0  0  0  0  0  0  0  0
   -0.0219   -6.8213    2.8645 H   0  0  0  0  0  0  0  0  0  0  0  0
   -0.7314   -6.0185    4.2509 H   0  0  0  0  0  0  0  0  0  0  0  0
   -1.3983   -5.7596    2.6527 H   0  0  0  0  0  0  0  0  0  0  0  0
    0.4252   -4.0886    1.8040 N   0  0  0  0  0  0  0  0  0  0  0  0
    1.2532   -2.9707    1.4349 C   0  0  2  0  0  0  0  0  0  0  0  0
    0.3395   -1.8293    1.0083 C   0  0  0  0  0  0  0  0  0  0  0  0
   -0.8136   -2.0027    0.6194 O   0  0  0  0  0  0  0  0  0  0  0  0
    2.2176   -3.3411    0.3189 C   0  0  0  0  0  0  0  0  0  0  0  0
   -0.2574   -4.4279    1.1287 H   0  0  0  0  0  0  0  0  0  0  0  0
    1.8087   -2.6785    2.3327 H   0  0  0  0  0  0  0  0  0  0  0  0
    1.6793   -3.6366   -0.5890 H   0  0  0  0  0  0  0  0  0  0  0  0
    2.8662   -2.4980    0.0589 H   0  0  0  0  0  0  0  0  0  0  0  0
    2.8538   -4.1816    0.6166 H   0  0  0  0  0  0  0  0  0  0  0  0
    0.9758   -0.5952    1.0708 N   0  0  0  0  0  0  0  0  0  0  0  0
    0.3258    0.6374    0.7059 C   0  0  2  0  0  0  0  0  0  0  0  0
    1.1746    1.7819    1.2493 C   0  0  0  0  0  0  0  0  0  0  0  0
    1.3873    1.9472    2.4487 O   0  0  0  0  0  0  0  0  0  0  0  0
   -1.1009    0.7204    1.2617 C   0  0  0  0  0  0  0  0  0  0  0  0
   -2.0574   -0.2955    0.6386 C   0  0  0  0  0  0  0  0  0  0  0  0
   -3.4957   -0.2827    1.1668 C   0  0  0  0  0  0  0  0  0  0  0  0
   -3.6788    0.4804    2.1587 O   0  5  0  0  0  0  0  0  0  0  0  0
   -4.3238   -1.0111    0.5536 O   0  0  0  0  0  0  0  0  0  0  0  0
    1.9288   -0.5463    1.4242 H   0  0  0  0  0  0  0  0  0  0  0  0
    0.3315    0.6835   -0.3885 H   0  0  0  0  0  0  0  0  0  0  0  0
   -1.5005    1.7323    1.1205 H   0  0  0  0  0  0  0  0  0  0  0  0
   -1.0777    0.5542    2.3471 H   0  0  0  0  0  0  0  0  0  0  0  0
   -2.0743   -0.1742   -0.4511 H   0  0  0  0  0  0  0  0  0  0  0  0
   -1.6675   -1.3027    0.8340 H   0  0  0  0  0  0  0  0  0  0  0  0
    1.6259    2.6213    0.2402 N   0  0  0  0  0  0  0  0  0  0  0  0
    2.4374    3.7885    0.4966 C   0  0  2  0  0  0  0  0  0  0  0  0
    2.3626    4.6915   -0.7276 C   0  0  0  0  0  0  0  0  0  0  0  0
    2.0642    4.2805   -1.8470 O   0  0  0  0  0  0  0  0  0  0  0  0
    3.8770    3.4053    0.8021 C   0  0  0  0  0  0  0  0  0  0  0  0
    1.4127    2.3975   -0.7273 H   0  0  0  0  0  0  0  0  0  0  0  0
    1.9922    4.3006    1.3566 H   0  0  0  0  0  0  0  0  0  0  0  0
    4.3398    2.8911   -0.0481 H   0  0  0  0  0  0  0  0  0  0  0  0
    4.4843    4.2890    1.0242 H   0  0  0  0  0  0  0  0  0  0  0  0
    3.9264    2.7320    1.6647 H   0  0  0  0  0  0  0  0  0  0  0  0
    2.7101    6.0021   -0.4314 N   0  0  0  0  0  0  0  0  0  0  0  0
    2.7289    7.0478   -1.4274 C   0  0  0  0  0  0  0  0  0  0  0  0
    2.9252    6.2574    0.5280 H   0  0  0  0  0  0  0  0  0  0  0  0
    3.7385    7.1280   -1.8566 H   0  0  0  0  0  0  0  0  0  0  0  0
    2.0098    6.8078   -2.2245 H   0  0  0  0  0  0  0  0  0  0  0  0
    2.4522    8.0043   -0.9599 H   0  0  0  0  0  0  0  0  0  0  0  0
  1  3  1  0  0  0  0
  1  7  1  0  0  0  0
  1  2  2  0  0  0  0
 33 34  1  0  0  0  0
 34 42  1  0  0  0  0
 34 35  2  0  0  0  0
  8  9  1  0  0  0  0
  9 17  1  0  0  0  0
  9 10  2  0  0  0  0
 18 19  1  0  0  0  0
 19 32  1  0  0  0  0
 19 20  2  0  0  0  0
 22 23  1  0  0  0  0
 23 24  1  0  0  0  0
 23 25  2  0  0  0  0
 33 36  1  0  0  0  0
  8 11  1  0  0  0  0
 42 43  1  0  0  0  0
 21 22  1  0  0  0  0
 18 21  1  0  0  0  0
 32 33  1  0  0  0  0
  7  8  1  0  0  0  0
 17 18  1  0  0  0  0
  3  4  1  0  0  0  0
  3  5  1  0  0  0  0
  3  6  1  0  0  0  0
 36 39  1  0  0  0  0
 36 40  1  0  0  0  0
 36 41  1  0  0  0  0
 11 14  1  0  0  0  0
 11 15  1  0  0  0  0
 11 16  1  0  0  0  0
 43 45  1  0  0  0  0
 43 46  1  0  0  0  0
 43 47  1  0  0  0  0
 22 30  1  0  0  0  0
 22 31  1  0  0  0  0
 21 28  1  0  0  0  0
 21 29  1  0  0  0  0
 33 38  1  0  0  0  0
  8 13  1  0  0  0  0
 18 27  1  0  0  0  0
 42 44  1  0  0  0  0
  7 12  1  0  0  0  0
 32 37  1  0  0  0  0
 17 26  1  0  0  0  0
M  CHG  1  24  -1
M  END
$$$$

  -OEChem-05262214473D

 47 46  0     1  0  0  0  0  0999 V2000
    0.5093   -4.7265    3.0306 C   0  0  0  0  0  0  0  0  0  0  0  0
    1.2735   -4.4402    3.9448 O   0  0  0  0  0  0  0  0  0  0  0  0
   -0.4465   -5.8608    3.1982 C   0  0  0  0  0  0  0  0  0  0  0  0
   -0.0219   -6.8213    2.8645 H   0  0  0  0  0  0  0  0  0  0  0  0
   -0.7314   -6.0185    4.2509 H   0  0  0  0  0  0  0  0  0  0  0  0
   -1.3983   -5.7596    2.6527 H   0  0  0  0  0  0  0  0  0  0  0  0
    0.4252   -4.0886    1.8040 N   0  0  0  0  0  0  0  0  0  0  0  0
    1.2532   -2.9707    1.4349 C   0  0  2  0  0  0  0  0  0  0  0  0
    0.3395   -1.8293    1.0083 C   0  0  0  0  0  0  0  0  0  0  0  0
   -0.8136   -2.0027    0.6194 O   0  0  0  0  0  0  0  0  0  0  0  0
    2.2176   -3.3411    0.3189 C   0  0  0  0  0  0  0  0  0  0  0  0
   -0.2574   -4.4279    1.1287 H   0  0  0  0  0  0  0  0  0  0  0  0
    1.8087   -2.6785    2.3327 H   0  0  0  0  0  0  0  0  0  0  0  0
    1.6793   -3.6366   -0.5890 H   0  0  0  0  0  0  0  0  0  0  0  0
    2.8662   -2.4980    0.0589 H   0  0  0  0  0  0  0  0  0  0  0  0
    2.8538   -4.1816    0.6166 H   0  0  0  0  0  0  0  0  0  0  0  0
    0.9758   -0.5952    1.0708 N   0  0  0  0  0  0  0  0  0  0  0  0
    0.3258    0.6374    0.7059 C   0  0  2  0  0  0  0  0  0  0  0  0
    1.1746    1.7819    1.2493 C   0  0  0  0  0  0  0  0  0  0  0  0
    1.6105    1.8055    2.3985 O   0  0  0  0  0  0  0  0  0  0  0  0
   -1.1009    0.7204    1.2617 C   0  0  0  0  0  0  0  0  0  0  0  0
   -2.0574   -0.2955    0.6386 C   0  0  0  0  0  0  0  0  0  0  0  0
   -3.4957   -0.2827    1.1668 C   0  0  0  0  0  0  0  0  0  0  0  0
   -3.6788    0.4804    2.1587 O   0  5  0  0  0  0  0  0  0  0  0  0
   -4.3238   -1.0111    0.5536 O   0  0  0  0  0  0  0  0  0  0  0  0
    1.9288   -0.5463    1.4242 H   0  0  0  0  0  0  0  0  0  0  0  0
    0.3315    0.6835   -0.3885 H   0  0  0  0  0  0  0  0  0  0  0  0
   -1.5005    1.7323    1.1205 H   0  0  0  0  0  0  0  0  0  0  0  0
   -1.0777    0.5542    2.3471 H   0  0  0  0  0  0  0  0  0  0  0  0
   -2.0743   -0.1742   -0.4511 H   0  0  0  0  0  0  0  0  0  0  0  0
   -1.6675   -1.3027    0.8340 H   0  0  0  0  0  0  0  0  0  0  0  0
    1.3470    2.7930    0.3142 N   0  0  0  0  0  0  0  0  0  0  0  0
    2.1000    3.9947    0.5896 C   0  0  2  0  0  0  0  0  0  0  0  0
    1.7104    5.0414   -0.4458 C   0  0  0  0  0  0  0  0  0  0  0  0
    1.2261    4.7559   -1.5390 O   0  0  0  0  0  0  0  0  0  0  0  0
    3.5970    3.7291    0.5574 C   0  0  0  0  0  0  0  0  0  0  0  0
    0.9618    2.6804   -0.6189 H   0  0  0  0  0  0  0  0  0  0  0  0
    1.7981    4.3357    1.5859 H   0  0  0  0  0  0  0  0  0  0  0  0
    3.9181    3.3866   -0.4331 H   0  0  0  0  0  0  0  0  0  0  0  0
    4.1657    4.6344    0.7944 H   0  0  0  0  0  0  0  0  0  0  0  0
    3.8711    2.9547    1.2819 H   0  0  0  0  0  0  0  0  0  0  0  0
    2.0071    6.3295   -0.0229 N   0  0  0  0  0  0  0  0  0  0  0  0
    1.7437    7.4961   -0.8327 C   0  0  0  0  0  0  0  0  0  0  0  0
    2.3900    6.4745    0.9067 H   0  0  0  0  0  0  0  0  0  0  0  0
    2.6371    7.7405   -1.4260 H   0  0  0  0  0  0  0  0  0  0  0  0
    0.9000    7.2906   -1.5080 H   0  0  0  0  0  0  0  0  0  0  0  0
    1.4929    8.3458   -0.1807 H   0  0  0  0  0  0  0  0  0  0  0  0
  1  3  1  0  0  0  0
  1  7  1  0  0  0  0
  1  2  2  0  0  0  0
 33 34  1  0  0  0  0
 34 42  1  0  0  0  0
 34 35  2  0  0  0  0
  8  9  1  0  0  0  0
  9 17  1  0  0  0  0
  9 10  2  0  0  0  0
 18 19  1  0  0  0  0
 19 32  1  0  0  0  0
 19 20  2  0  0  0  0
 22 23  1  0  0  0  0
 23 24  1  0  0  0  0
 23 25  2  0  0  0  0
 33 36  1  0  0  0  0
  8 11  1  0  0  0  0
 42 43  1  0  0  0  0
 21 22  1  0  0  0  0
 18 21  1  0  0  0  0
 32 33  1  0  0  0  0
  7  8  1  0  0  0  0
 17 18  1  0  0  0  0
  3  4  1  0  0  0  0
  3  5  1  0  0  0  0
  3  6  1  0  0  0  0
 36 39  1  0  0  0  0
 36 40  1  0  0  0  0
 36 41  1  0  0  0  0
 11 14  1  0  0  0  0
 11 15  1  0  0  0  0
 11 16  1  0  0  0  0
 43 45  1  0  0  0  0
 43 46  1  0  0  0  0
 43 47  1  0  0  0  0
 22 30  1  0  0  0  0
 22 31  1  0  0  0  0
 21 28  1  0  0  0  0
 21 29  1  0  0  0  0
 33 38  1  0  0  0  0
  8 13  1  0  0  0  0
 18 27  1  0  0  0  0
 42 44  1  0  0  0  0
  7 12  1  0  0  0  0
 32 37  1  0  0  0  0
 17 26  1  0  0  0  0
M  CHG  1  24  -1
M  END
$$$$

  -OEChem-05262214473D

 47 46  0     1  0  0  0  0  0999 V2000
    0.5093   -4.7265    3.0306 C   0  0  0  0  0  0  0  0  0  0  0  0
    1.2735   -4.4402    3.9448 O   0  0  0  0  0  0  0  0  0  0  0  0
   -0.4465   -5.8608    3.1982 C   0  0  0  0  0  0  0  0  0  0  0  0
   -0.0219   -6.8213    2.8645 H   0  0  0  0  0  0  0  0  0  0  0  0
   -0.7314   -6.0185    4.2509 H   0  0  0  0  0  0  0  0  0  0  0  0
   -1.3983   -5.7596    2.6527 H   0  0  0  0  0  0  0  0  0  0  0  0
    0.4252   -4.0886    1.8040 N   0  0  0  0  0  0  0  0  0  0  0  0
    1.2532   -2.9707    1.4349 C   0  0  2  0  0  0  0  0  0  0  0  0
    0.3395   -1.8293    1.0083 C   0  0  0  0  0  0  0  0  0  0  0  0
   -0.8136   -2.0027    0.6194 O   0  0  0  0  0  0  0  0  0  0  0  0
    2.2176   -3.3411    0.3189 C   0  0  0  0  0  0  0  0  0  0  0  0
   -0.2574   -4.4279    1.1287 H   0  0  0  0  0  0  0  0  0  0  0  0
    1.8087   -2.6785    2.3327 H   0  0  0  0  0  0  0  0  0  0  0  0
    1.6793   -3.6366   -0.5890 H   0  0  0  0  0  0  0  0  0  0  0  0
    2.8662   -2.4980    0.0589 H   0  0  0  0  0  0  0  0  0  0  0  0
    2.8538   -4.1816    0.6166 H   0  0  0  0  0  0  0  0  0  0  0  0
    0.9758   -0.5952    1.0708 N   0  0  0  0  0  0  0  0  0  0  0  0
    0.3258    0.6374    0.7059 C   0  0  2  0  0  0  0  0  0  0  0  0
    1.1746    1.7819    1.2493 C   0  0  0  0  0  0  0  0  0  0  0  0
    1.8294    1.6965    2.2861 O   0  0  0  0  0  0  0  0  0  0  0  0
   -1.1009    0.7204    1.2617 C   0  0  0  0  0  0  0  0  0  0  0  0
   -2.0574   -0.2955    0.6386 C   0  0  0  0  0  0  0  0  0  0  0  0
   -3.4957   -0.2827    1.1668 C   0  0  0  0  0  0  0  0  0  0  0  0
   -3.6788    0.4804    2.1587 O   0  5  0  0  0  0  0  0  0  0  0  0
   -4.3238   -1.0111    0.5536 O   0  0  0  0  0  0  0  0  0  0  0  0
    1.9288   -0.5463    1.4242 H   0  0  0  0  0  0  0  0  0  0  0  0
    0.3315    0.6835   -0.3885 H   0  0  0  0  0  0  0  0  0  0  0  0
   -1.5005    1.7323    1.1205 H   0  0  0  0  0  0  0  0  0  0  0  0
   -1.0777    0.5542    2.3471 H   0  0  0  0  0  0  0  0  0  0  0  0
   -2.0743   -0.1742   -0.4511 H   0  0  0  0  0  0  0  0  0  0  0  0
   -1.6675   -1.3027    0.8340 H   0  0  0  0  0  0  0  0  0  0  0  0
    1.0761    2.9225    0.4646 N   0  0  0  0  0  0  0  0  0  0  0  0
    1.7730    4.1493    0.7746 C   0  0  2  0  0  0  0  0  0  0  0  0
    1.1029    5.2787    0.0034 C   0  0  0  0  0  0  0  0  0  0  0  0
    0.4325    5.0933   -1.0102 O   0  0  0  0  0  0  0  0  0  0  0  0
    3.2491    4.0514    0.4220 C   0  0  0  0  0  0  0  0  0  0  0  0
    0.5213    2.8965   -0.3858 H   0  0  0  0  0  0  0  0  0  0  0  0
    1.6520    4.3186    1.8501 H   0  0  0  0  0  0  0  0  0  0  0  0
    3.3903    3.8817   -0.6516 H   0  0  0  0  0  0  0  0  0  0  0  0
    3.7815    4.9717    0.6840 H   0  0  0  0  0  0  0  0  0  0  0  0
    3.7228    3.2199    0.9550 H   0  0  0  0  0  0  0  0  0  0  0  0
    1.3772    6.5221    0.5554 N   0  0  0  0  0  0  0  0  0  0  0  0
    0.8662    7.7526   -0.0022 C   0  0  0  0  0  0  0  0  0  0  0  0
    1.9267    6.5803    1.4077 H   0  0  0  0  0  0  0  0  0  0  0  0
    1.6003    8.1685   -0.7080 H   0  0  0  0  0  0  0  0  0  0  0  0
   -0.0773    7.5515   -0.5307 H   0  0  0  0  0  0  0  0  0  0  0  0
    0.6862    8.4750    0.8075 H   0  0  0  0  0  0  0  0  0  0  0  0
  1  3  1  0  0  0  0
  1  7  1  0  0  0  0
  1  2  2  0  0  0  0
 33 34  1  0  0  0  0
 34 42  1  0  0  0  0
 34 35  2  0  0  0  0
  8  9  1  0  0  0  0
  9 17  1  0  0  0  0
  9 10  2  0  0  0  0
 18 19  1  0  0  0  0
 19 32  1  0  0  0  0
 19 20  2  0  0  0  0
 22 23  1  0  0  0  0
 23 24  1  0  0  0  0
 23 25  2  0  0  0  0
 33 36  1  0  0  0  0
  8 11  1  0  0  0  0
 42 43  1  0  0  0  0
 21 22  1  0  0  0  0
 18 21  1  0  0  0  0
 32 33  1  0  0  0  0
  7  8  1  0  0  0  0
 17 18  1  0  0  0  0
  3  4  1  0  0  0  0
  3  5  1  0  0  0  0
  3  6  1  0  0  0  0
 36 39  1  0  0  0  0
 36 40  1  0  0  0  0
 36 41  1  0  0  0  0
 11 14  1  0  0  0  0
 11 15  1  0  0  0  0
 11 16  1  0  0  0  0
 43 45  1  0  0  0  0
 43 46  1  0  0  0  0
 43 47  1  0  0  0  0
 22 30  1  0  0  0  0
 22 31  1  0  0  0  0
 21 28  1  0  0  0  0
 21 29  1  0  0  0  0
 33 38  1  0  0  0  0
  8 13  1  0  0  0  0
 18 27  1  0  0  0  0
 42 44  1  0  0  0  0
  7 12  1  0  0  0  0
 32 37  1  0  0  0  0
 17 26  1  0  0  0  0
M  CHG  1  24  -1
M  END
$$$$

  -OEChem-05262214473D

 47 46  0     1  0  0  0  0  0999 V2000
    0.5093   -4.7265    3.0306 C   0  0  0  0  0  0  0  0  0  0  0  0
    1.2735   -4.4402    3.9448 O   0  0  0  0  0  0  0  0  0  0  0  0
   -0.4465   -5.8608    3.1982 C   0  0  0  0  0  0  0  0  0  0  0  0
   -0.0219   -6.8213    2.8645 H   0  0  0  0  0  0  0  0  0  0  0  0
   -0.7314   -6.0185    4.2509 H   0  0  0  0  0  0  0  0  0  0  0  0
   -1.3983   -5.7596    2.6527 H   0  0  0  0  0  0  0  0  0  0  0  0
    0.4252   -4.0886    1.8040 N   0  0  0  0  0  0  0  0  0  0  0  0
    1.2532   -2.9707    1.4349 C   0  0  2  0  0  0  0  0  0  0  0  0
    0.3395   -1.8293    1.0083 C   0  0  0  0  0  0  0  0  0  0  0  0
   -0.8136   -2.0027    0.6194 O   0  0  0  0  0  0  0  0  0  0  0  0
    2.2176   -3.3411    0.3189 C   0  0  0  0  0  0  0  0  0  0  0  0
   -0.2574   -4.4279    1.1287 H   0  0  0  0  0  0  0  0  0  0  0  0
    1.8087   -2.6785    2.3327 H   0  0  0  0  0  0  0  0  0  0  0  0
    1.6793   -3.6366   -0.5890 H   0  0  0  0  0  0  0  0  0  0  0  0
    2.8662   -2.4980    0.0589 H   0  0  0  0  0  0  0  0  0  0  0  0
    2.8538   -4.1816    0.6166 H   0  0  0  0  0  0  0  0  0  0  0  0
    0.9758   -0.5952    1.0708 N   0  0  0  0  0  0  0  0  0  0  0  0
    0.3258    0.6374    0.7059 C   0  0  2  0  0  0  0  0  0  0  0  0
    1.1746    1.7819    1.2493 C   0  0  0  0  0  0  0  0  0  0  0  0
    2.0291    1.6275    2.1194 O   0  0  0  0  0  0  0  0  0  0  0  0
   -1.1009    0.7204    1.2617 C   0  0  0  0  0  0  0  0  0  0  0  0
   -2.0574   -0.2955    0.6386 C   0  0  0  0  0  0  0  0  0  0  0  0
   -3.4957   -0.2827    1.1668 C   0  0  0  0  0  0  0  0  0  0  0  0
   -3.6788    0.4804    2.1587 O   0  5  0  0  0  0  0  0  0  0  0  0
   -4.3238   -1.0111    0.5536 O   0  0  0  0  0  0  0  0  0  0  0  0
    1.9288   -0.5463    1.4242 H   0  0  0  0  0  0  0  0  0  0  0  0
    0.3315    0.6835   -0.3885 H   0  0  0  0  0  0  0  0  0  0  0  0
   -1.5005    1.7323    1.1205 H   0  0  0  0  0  0  0  0  0  0  0  0
   -1.0777    0.5542    2.3471 H   0  0  0  0  0  0  0  0  0  0  0  0
   -2.0743   -0.1742   -0.4511 H   0  0  0  0  0  0  0  0  0  0  0  0
   -1.6675   -1.3027    0.8340 H   0  0  0  0  0  0  0  0  0  0  0  0
    0.8318    3.0010    0.6811 N   0  0  0  0  0  0  0  0  0  0  0  0
    1.4790    4.2418    1.0391 C   0  0  2  0  0  0  0  0  0  0  0  0
    0.5815    5.3872    0.5895 C   0  0  0  0  0  0  0  0  0  0  0  0
   -0.2624    5.2700   -0.2966 O   0  0  0  0  0  0  0  0  0  0  0  0
    2.8571    4.3501    0.4053 C   0  0  0  0  0  0  0  0  0  0  0  0
    0.1211    3.0310   -0.0440 H   0  0  0  0  0  0  0  0  0  0  0  0
    1.5637    4.2506    2.1312 H   0  0  0  0  0  0  0  0  0  0  0  0
    2.7923    4.3429   -0.6889 H   0  0  0  0  0  0  0  0  0  0  0  0
    3.3578    5.2780    0.7006 H   0  0  0  0  0  0  0  0  0  0  0  0
    3.4916    3.5095    0.7062 H   0  0  0  0  0  0  0  0  0  0  0  0
    0.8633    6.5668    1.2641 N   0  0  0  0  0  0  0  0  0  0  0  0
    0.1563    7.7998    1.0073 C   0  0  0  0  0  0  0  0  0  0  0  0
    1.5667    6.5675    1.9969 H   0  0  0  0  0  0  0  0  0  0  0  0
    0.6988    8.3829    0.2486 H   0  0  0  0  0  0  0  0  0  0  0  0
   -0.8556    7.5726    0.6407 H   0  0  0  0  0  0  0  0  0  0  0  0
    0.0869    8.3830    1.9374 H   0  0  0  0  0  0  0  0  0  0  0  0
  1  3  1  0  0  0  0
  1  7  1  0  0  0  0
  1  2  2  0  0  0  0
 33 34  1  0  0  0  0
 34 42  1  0  0  0  0
 34 35  2  0  0  0  0
  8  9  1  0  0  0  0
  9 17  1  0  0  0  0
  9 10  2  0  0  0  0
 18 19  1  0  0  0  0
 19 32  1  0  0  0  0
 19 20  2  0  0  0  0
 22 23  1  0  0  0  0
 23 24  1  0  0  0  0
 23 25  2  0  0  0  0
 33 36  1  0  0  0  0
  8 11  1  0  0  0  0
 42 43  1  0  0  0  0
 21 22  1  0  0  0  0
 18 21  1  0  0  0  0
 32 33  1  0  0  0  0
  7  8  1  0  0  0  0
 17 18  1  0  0  0  0
  3  4  1  0  0  0  0
  3  5  1  0  0  0  0
  3  6  1  0  0  0  0
 36 39  1  0  0  0  0
 36 40  1  0  0  0  0
 36 41  1  0  0  0  0
 11 14  1  0  0  0  0
 11 15  1  0  0  0  0
 11 16  1  0  0  0  0
 43 45  1  0  0  0  0
 43 46  1  0  0  0  0
 43 47  1  0  0  0  0
 22 30  1  0  0  0  0
 22 31  1  0  0  0  0
 21 28  1  0  0  0  0
 21 29  1  0  0  0  0
 33 38  1  0  0  0  0
  8 13  1  0  0  0  0
 18 27  1  0  0  0  0
 42 44  1  0  0  0  0
  7 12  1  0  0  0  0
 32 37  1  0  0  0  0
 17 26  1  0  0  0  0
M  CHG  1  24  -1
M  END
$$$$
