
  -OEChem-05262216243D

 47 46  0     1  0  0  0  0  0999 V2000
    0.5609   -2.9584    1.8415 C   0  0  0  0  0  0  0  0  0  0  0  0
    1.7502   -2.6718    1.8554 O   0  0  0  0  0  0  0  0  0  0  0  0
   -0.3504   -2.5194    2.9728 C   0  0  0  0  0  0  0  0  0  0  0  0
   -0.8705   -3.3852    3.3897 H   0  0  0  0  0  0  0  0  0  0  0  0
    0.2301   -2.0387    3.7644 H   0  0  0  0  0  0  0  0  0  0  0  0
   -1.0957   -1.8111    2.6022 H   0  0  0  0  0  0  0  0  0  0  0  0
    0.0500   -3.6569    0.7702 N   0  0  0  0  0  0  0  0  0  0  0  0
    0.8412   -4.0090   -0.4260 C   0  0  2  0  0  0  0  0  0  0  0  0
    0.8961   -2.8498   -1.4530 C   0  0  0  0  0  0  0  0  0  0  0  0
    0.5183   -2.9888   -2.6117 O   0  0  0  0  0  0  0  0  0  0  0  0
    0.2298   -5.2891   -1.0086 C   0  0  0  0  0  0  0  0  0  0  0  0
   -0.9716   -3.6322    0.6879 H   0  0  0  0  0  0  0  0  0  0  0  0
    1.8733   -4.2326   -0.1384 H   0  0  0  0  0  0  0  0  0  0  0  0
   -0.8040   -5.1113   -1.3225 H   0  0  0  0  0  0  0  0  0  0  0  0
    0.8038   -5.6225   -1.8786 H   0  0  0  0  0  0  0  0  0  0  0  0
    0.2359   -6.0891   -0.2623 H   0  0  0  0  0  0  0  0  0  0  0  0
    1.2753   -1.5889   -1.0449 N   0  0  0  0  0  0  0  0  0  0  0  0
    0.4639   -0.3768   -1.2899 C   0  0  2  0  0  0  0  0  0  0  0  0
    1.1642    0.8815   -0.7187 C   0  0  0  0  0  0  0  0  0  0  0  0
    2.2230    0.7954   -0.1043 O   0  0  0  0  0  0  0  0  0  0  0  0
   -0.8952   -0.4836   -0.5378 C   0  0  0  0  0  0  0  0  0  0  0  0
   -1.8996   -1.5528   -1.0111 C   0  0  0  0  0  0  0  0  0  0  0  0
   -3.1364   -1.5097   -0.1273 C   0  0  0  0  0  0  0  0  0  0  0  0
   -4.0232   -0.6510   -0.3460 O   0  5  0  0  0  0  0  0  0  0  0  0
   -3.1196   -2.3056    0.8488 O   0  0  0  0  0  0  0  0  0  0  0  0
    1.7169   -1.5949   -0.1216 H   0  0  0  0  0  0  0  0  0  0  0  0
    0.2983   -0.2443   -2.3634 H   0  0  0  0  0  0  0  0  0  0  0  0
   -1.4167    0.4766   -0.6118 H   0  0  0  0  0  0  0  0  0  0  0  0
   -0.6866   -0.6501    0.5235 H   0  0  0  0  0  0  0  0  0  0  0  0
   -2.1829   -1.3509   -2.0480 H   0  0  0  0  0  0  0  0  0  0  0  0
   -1.5107   -2.5640   -0.9740 H   0  0  0  0  0  0  0  0  0  0  0  0
    0.5863    2.1340   -0.8355 N   0  0  0  0  0  0  0  0  0  0  0  0
    1.1299    3.3626   -0.2435 C   0  0  2  0  0  0  0  0  0  0  0  0
    0.0316    4.4180   -0.0063 C   0  0  0  0  0  0  0  0  0  0  0  0
   -0.8702    4.5657   -0.8229 O   0  0  0  0  0  0  0  0  0  0  0  0
    2.2077    3.9279   -1.1743 C   0  0  0  0  0  0  0  0  0  0  0  0
   -0.3221    2.1948   -1.2955 H   0  0  0  0  0  0  0  0  0  0  0  0
    1.5798    3.1277    0.7267 H   0  0  0  0  0  0  0  0  0  0  0  0
    1.7819    4.1579   -2.1563 H   0  0  0  0  0  0  0  0  0  0  0  0
    2.6322    4.8446   -0.7544 H   0  0  0  0  0  0  0  0  0  0  0  0
    3.0161    3.2022   -1.3064 H   0  0  0  0  0  0  0  0  0  0  0  0
    0.0689    5.2232    1.1180 N   0  0  0  0  0  0  0  0  0  0  0  0
   -0.9895    6.1679    1.4522 C   0  0  0  0  0  0  0  0  0  0  0  0
    0.7746    5.0102    1.8167 H   0  0  0  0  0  0  0  0  0  0  0  0
   -1.1136    6.9050    0.6519 H   0  0  0  0  0  0  0  0  0  0  0  0
   -1.9393    5.6424    1.5979 H   0  0  0  0  0  0  0  0  0  0  0  0
   -0.7422    6.7007    2.3753 H   0  0  0  0  0  0  0  0  0  0  0  0
  1  2  2  0  0  0  0
  1  3  1  0  0  0  0
  1  7  1  0  0  0  0
  3  4  1  0  0  0  0
  3  5  1  0  0  0  0
  3  6  1  0  0  0  0
  7  8  1  0  0  0  0
  7 12  1  0  0  0  0
  8  9  1  0  0  0  0
  8 11  1  0  0  0  0
  8 13  1  0  0  0  0
  9 10  2  0  0  0  0
  9 17  1  0  0  0  0
 11 14  1  0  0  0  0
 11 15  1  0  0  0  0
 11 16  1  0  0  0  0
 17 18  1  0  0  0  0
 17 26  1  0  0  0  0
 18 19  1  0  0  0  0
 18 21  1  0  0  0  0
 18 27  1  0  0  0  0
 19 20  2  0  0  0  0
 19 32  1  0  0  0  0
 21 22  1  0  0  0  0
 21 28  1  0  0  0  0
 21 29  1  0  0  0  0
 22 23  1  0  0  0  0
 22 30  1  0  0  0  0
 22 31  1  0  0  0  0
 23 24  1  0  0  0  0
 23 25  2  0  0  0  0
 32 33  1  0  0  0  0
 32 37  1  0  0  0  0
 33 34  1  0  0  0  0
 33 36  1  0  0  0  0
 33 38  1  0  0  0  0
 34 35  2  0  0  0  0
 34 42  1  0  0  0  0
 36 39  1  0  0  0  0
 36 40  1  0  0  0  0
 36 41  1  0  0  0  0
 42 43  1  0  0  0  0
 42 44  1  0  0  0  0
 43 45  1  0  0  0  0
 43 46  1  0  0  0  0
 43 47  1  0  0  0  0
M  CHG  1  24  -1
M  END
$$$$

  -OEChem-05262216243D

 47 46  0     1  0  0  0  0  0999 V2000
    0.0729   -1.9839    2.0793 C   0  0  0  0  0  0  0  0  0  0  0  0
    1.1965   -1.5254    2.2417 O   0  0  0  0  0  0  0  0  0  0  0  0
   -1.1001   -1.4310    2.8674 C   0  0  0  0  0  0  0  0  0  0  0  0
   -1.5885   -2.2362    3.4213 H   0  0  0  0  0  0  0  0  0  0  0  0
   -0.7589   -0.6702    3.5743 H   0  0  0  0  0  0  0  0  0  0  0  0
   -1.8306   -0.9802    2.1907 H   0  0  0  0  0  0  0  0  0  0  0  0
   -0.1234   -2.9689    1.1354 N   0  0  0  0  0  0  0  0  0  0  0  0
    0.9449   -3.4802    0.2522 C   0  0  2  0  0  0  0  0  0  0  0  0
    1.2123   -2.5429   -0.9539 C   0  0  0  0  0  0  0  0  0  0  0  0
    1.1275   -2.9272   -2.1153 O   0  0  0  0  0  0  0  0  0  0  0  0
    0.5327   -4.8938   -0.1764 C   0  0  0  0  0  0  0  0  0  0  0  0
   -1.0973   -3.1000    0.8441 H   0  0  0  0  0  0  0  0  0  0  0  0
    1.8811   -3.5588    0.8141 H   0  0  0  0  0  0  0  0  0  0  0  0
   -0.3966   -4.8631   -0.7551 H   0  0  0  0  0  0  0  0  0  0  0  0
    1.3128   -5.3458   -0.7969 H   0  0  0  0  0  0  0  0  0  0  0  0
    0.3767   -5.5285    0.7011 H   0  0  0  0  0  0  0  0  0  0  0  0
    1.4323   -1.2020   -0.7272 N   0  0  0  0  0  0  0  0  0  0  0  0
    0.6583   -0.1223   -1.3760 C   0  0  2  0  0  0  0  0  0  0  0  0
    1.1777    1.2595   -0.8965 C   0  0  0  0  0  0  0  0  0  0  0  0
    2.2068    1.3513   -0.2335 O   0  0  0  0  0  0  0  0  0  0  0  0
   -0.8418   -0.2074   -0.9691 C   0  0  0  0  0  0  0  0  0  0  0  0
   -1.6522   -1.4195   -1.4648 C   0  0  0  0  0  0  0  0  0  0  0  0
   -3.0718   -1.3197   -0.9298 C   0  0  0  0  0  0  0  0  0  0  0  0
   -3.2943   -1.9670    0.1269 O   0  5  0  0  0  0  0  0  0  0  0  0
   -3.8686   -0.5148   -1.4680 O   0  0  0  0  0  0  0  0  0  0  0  0
    1.6421   -1.0114    0.2566 H   0  0  0  0  0  0  0  0  0  0  0  0
    0.7593   -0.1873   -2.4639 H   0  0  0  0  0  0  0  0  0  0  0  0
   -1.3662    0.6719   -1.3555 H   0  0  0  0  0  0  0  0  0  0  0  0
   -0.9070   -0.1636    0.1219 H   0  0  0  0  0  0  0  0  0  0  0  0
   -1.6697   -1.4299   -2.5583 H   0  0  0  0  0  0  0  0  0  0  0  0
   -1.2492   -2.3717   -1.1379 H   0  0  0  0  0  0  0  0  0  0  0  0
    0.4544    2.4243   -1.0978 N   0  0  0  0  0  0  0  0  0  0  0  0
    0.7906    3.7208   -0.4845 C   0  0  2  0  0  0  0  0  0  0  0  0
    0.4072    3.7922    1.0175 C   0  0  0  0  0  0  0  0  0  0  0  0
   -0.2434    4.7270    1.4728 O   0  0  0  0  0  0  0  0  0  0  0  0
    0.1085    4.8061   -1.3266 C   0  0  0  0  0  0  0  0  0  0  0  0
   -0.4687    2.3174   -1.5123 H   0  0  0  0  0  0  0  0  0  0  0  0
    1.8719    3.8815   -0.5467 H   0  0  0  0  0  0  0  0  0  0  0  0
   -0.9803    4.7020   -1.2787 H   0  0  0  0  0  0  0  0  0  0  0  0
    0.3783    5.8005   -0.9569 H   0  0  0  0  0  0  0  0  0  0  0  0
    0.4229    4.7306   -2.3720 H   0  0  0  0  0  0  0  0  0  0  0  0
    0.8135    2.7832    1.8697 N   0  0  0  0  0  0  0  0  0  0  0  0
    0.4483    2.6914    3.2750 C   0  0  0  0  0  0  0  0  0  0  0  0
    1.3901    2.0463    1.4543 H   0  0  0  0  0  0  0  0  0  0  0  0
    0.8917    1.7945    3.7188 H   0  0  0  0  0  0  0  0  0  0  0  0
    0.8111    3.5664    3.8236 H   0  0  0  0  0  0  0  0  0  0  0  0
   -0.6394    2.6295    3.3835 H   0  0  0  0  0  0  0  0  0  0  0  0
  1  2  2  0  0  0  0
  1  3  1  0  0  0  0
  1  7  1  0  0  0  0
  3  4  1  0  0  0  0
  3  5  1  0  0  0  0
  3  6  1  0  0  0  0
  7  8  1  0  0  0  0
  7 12  1  0  0  0  0
  8  9  1  0  0  0  0
  8 11  1  0  0  0  0
  8 13  1  0  0  0  0
  9 10  2  0  0  0  0
  9 17  1  0  0  0  0
 11 14  1  0  0  0  0
 11 15  1  0  0  0  0
 11 16  1  0  0  0  0
 17 18  1  0  0  0  0
 17 26  1  0  0  0  0
 18 19  1  0  0  0  0
 18 21  1  0  0  0  0
 18 27  1  0  0  0  0
 19 20  2  0  0  0  0
 19 32  1  0  0  0  0
 21 22  1  0  0  0  0
 21 28  1  0  0  0  0
 21 29  1  0  0  0  0
 22 23  1  0  0  0  0
 22 30  1  0  0  0  0
 22 31  1  0  0  0  0
 23 24  1  0  0  0  0
 23 25  2  0  0  0  0
 32 33  1  0  0  0  0
 32 37  1  0  0  0  0
 33 34  1  0  0  0  0
 33 36  1  0  0  0  0
 33 38  1  0  0  0  0
 34 35  2  0  0  0  0
 34 42  1  0  0  0  0
 36 39  1  0  0  0  0
 36 40  1  0  0  0  0
 36 41  1  0  0  0  0
 42 43  1  0  0  0  0
 42 44  1  0  0  0  0
 43 45  1  0  0  0  0
 43 46  1  0  0  0  0
 43 47  1  0  0  0  0
M  CHG  1  24  -1
M  END
$$$$

  -OEChem-05262216243D

 47 46  0     1  0  0  0  0  0999 V2000
    0.0466   -1.8957    2.1486 C   0  0  0  0  0  0  0  0  0  0  0  0
    1.1615   -1.4022    2.2664 O   0  0  0  0  0  0  0  0  0  0  0  0
   -1.1180   -1.3522    2.9552 C   0  0  0  0  0  0  0  0  0  0  0  0
   -1.4908   -2.1216    3.6356 H   0  0  0  0  0  0  0  0  0  0  0  0
   -0.8036   -0.4827    3.5383 H   0  0  0  0  0  0  0  0  0  0  0  0
   -1.9307   -1.0509    2.2891 H   0  0  0  0  0  0  0  0  0  0  0  0
   -0.1510   -2.9073    1.2326 N   0  0  0  0  0  0  0  0  0  0  0  0
    0.9041   -3.4110    0.3289 C   0  0  2  0  0  0  0  0  0  0  0  0
    1.1213   -2.4855   -0.8957 C   0  0  0  0  0  0  0  0  0  0  0  0
    1.0030   -2.8812   -2.0501 O   0  0  0  0  0  0  0  0  0  0  0  0
    0.5117   -4.8384   -0.0691 C   0  0  0  0  0  0  0  0  0  0  0  0
   -1.1287   -3.0694    0.9715 H   0  0  0  0  0  0  0  0  0  0  0  0
    1.8558   -3.4624    0.8674 H   0  0  0  0  0  0  0  0  0  0  0  0
   -0.4342   -4.8359   -0.6208 H   0  0  0  0  0  0  0  0  0  0  0  0
    1.2838   -5.2812   -0.7060 H   0  0  0  0  0  0  0  0  0  0  0  0
    0.3957   -5.4637    0.8212 H   0  0  0  0  0  0  0  0  0  0  0  0
    1.3345   -1.1424   -0.6793 N   0  0  0  0  0  0  0  0  0  0  0  0
    0.5343   -0.0688   -1.3056 C   0  0  2  0  0  0  0  0  0  0  0  0
    1.0763    1.3073   -0.8266 C   0  0  0  0  0  0  0  0  0  0  0  0
    2.2294    1.4154   -0.4197 O   0  0  0  0  0  0  0  0  0  0  0  0
   -0.9569   -0.1708   -0.8694 C   0  0  0  0  0  0  0  0  0  0  0  0
   -1.7684   -1.3875   -1.3514 C   0  0  0  0  0  0  0  0  0  0  0  0
   -3.1773   -1.2987   -0.7853 C   0  0  0  0  0  0  0  0  0  0  0  0
   -3.3880   -1.9897    0.2457 O   0  5  0  0  0  0  0  0  0  0  0  0
   -3.9681   -0.4492   -1.2614 O   0  0  0  0  0  0  0  0  0  0  0  0
    1.5704   -0.9527    0.2982 H   0  0  0  0  0  0  0  0  0  0  0  0
    0.6106   -0.1255   -2.3960 H   0  0  0  0  0  0  0  0  0  0  0  0
   -1.4947    0.7012   -1.2537 H   0  0  0  0  0  0  0  0  0  0  0  0
   -1.0054   -0.1257    0.2223 H   0  0  0  0  0  0  0  0  0  0  0  0
   -1.8092   -1.3972   -2.4442 H   0  0  0  0  0  0  0  0  0  0  0  0
   -1.3502   -2.3367   -1.0322 H   0  0  0  0  0  0  0  0  0  0  0  0
    0.2686    2.4273   -0.7041 N   0  0  0  0  0  0  0  0  0  0  0  0
    0.6706    3.6599   -0.0041 C   0  0  2  0  0  0  0  0  0  0  0  0
    0.6390    3.5113    1.5409 C   0  0  0  0  0  0  0  0  0  0  0  0
    0.1070    4.3526    2.2578 O   0  0  0  0  0  0  0  0  0  0  0  0
   -0.2445    4.7807   -0.5117 C   0  0  0  0  0  0  0  0  0  0  0  0
   -0.7213    2.2929   -0.8979 H   0  0  0  0  0  0  0  0  0  0  0  0
    1.6985    3.9163   -0.2813 H   0  0  0  0  0  0  0  0  0  0  0  0
   -1.2851    4.5818   -0.2349 H   0  0  0  0  0  0  0  0  0  0  0  0
    0.0530    5.7405   -0.0775 H   0  0  0  0  0  0  0  0  0  0  0  0
   -0.1799    4.8610   -1.6012 H   0  0  0  0  0  0  0  0  0  0  0  0
    1.2240    2.4068    2.1302 N   0  0  0  0  0  0  0  0  0  0  0  0
    1.2138    2.1252    3.5574 C   0  0  0  0  0  0  0  0  0  0  0  0
    1.7205    1.7696    1.5023 H   0  0  0  0  0  0  0  0  0  0  0  0
    1.8100    2.8671    4.0977 H   0  0  0  0  0  0  0  0  0  0  0  0
    0.1897    2.1413    3.9442 H   0  0  0  0  0  0  0  0  0  0  0  0
    1.6365    1.1333    3.7458 H   0  0  0  0  0  0  0  0  0  0  0  0
  1  2  2  0  0  0  0
  1  3  1  0  0  0  0
  1  7  1  0  0  0  0
  3  4  1  0  0  0  0
  3  5  1  0  0  0  0
  3  6  1  0  0  0  0
  7  8  1  0  0  0  0
  7 12  1  0  0  0  0
  8  9  1  0  0  0  0
  8 11  1  0  0  0  0
  8 13  1  0  0  0  0
  9 10  2  0  0  0  0
  9 17  1  0  0  0  0
 11 14  1  0  0  0  0
 11 15  1  0  0  0  0
 11 16  1  0  0  0  0
 17 18  1  0  0  0  0
 17 26  1  0  0  0  0
 18 19  1  0  0  0  0
 18 21  1  0  0  0  0
 18 27  1  0  0  0  0
 19 20  2  0  0  0  0
 19 32  1  0  0  0  0
 21 22  1  0  0  0  0
 21 28  1  0  0  0  0
 21 29  1  0  0  0  0
 22 23  1  0  0  0  0
 22 30  1  0  0  0  0
 22 31  1  0  0  0  0
 23 24  1  0  0  0  0
 23 25  2  0  0  0  0
 32 33  1  0  0  0  0
 32 37  1  0  0  0  0
 33 34  1  0  0  0  0
 33 36  1  0  0  0  0
 33 38  1  0  0  0  0
 34 35  2  0  0  0  0
 34 42  1  0  0  0  0
 36 39  1  0  0  0  0
 36 40  1  0  0  0  0
 36 41  1  0  0  0  0
 42 43  1  0  0  0  0
 42 44  1  0  0  0  0
 43 45  1  0  0  0  0
 43 46  1  0  0  0  0
 43 47  1  0  0  0  0
M  CHG  1  24  -1
M  END
$$$$

  -OEChem-05262216243D

 47 46  0     1  0  0  0  0  0999 V2000
    0.5774   -2.7027    1.9429 C   0  0  0  0  0  0  0  0  0  0  0  0
    1.7123   -2.2430    1.9284 O   0  0  0  0  0  0  0  0  0  0  0  0
   -0.3865   -2.3063    3.0451 C   0  0  0  0  0  0  0  0  0  0  0  0
   -1.3697   -2.7523    2.8712 H   0  0  0  0  0  0  0  0  0  0  0  0
   -0.0105   -2.6520    4.0105 H   0  0  0  0  0  0  0  0  0  0  0  0
   -0.4996   -1.2194    3.0703 H   0  0  0  0  0  0  0  0  0  0  0  0
    0.1694   -3.5194    0.9105 N   0  0  0  0  0  0  0  0  0  0  0  0
    1.0105   -3.8310   -0.2629 C   0  0  2  0  0  0  0  0  0  0  0  0
    0.9983   -2.6918   -1.3149 C   0  0  0  0  0  0  0  0  0  0  0  0
    0.6643   -2.8833   -2.4790 O   0  0  0  0  0  0  0  0  0  0  0  0
    0.5112   -5.1661   -0.8289 C   0  0  0  0  0  0  0  0  0  0  0  0
   -0.8469   -3.6221    0.8186 H   0  0  0  0  0  0  0  0  0  0  0  0
    2.0495   -3.9670    0.0534 H   0  0  0  0  0  0  0  0  0  0  0  0
   -0.5247   -5.0731   -1.1713 H   0  0  0  0  0  0  0  0  0  0  0  0
    1.1301   -5.4748   -1.6770 H   0  0  0  0  0  0  0  0  0  0  0  0
    0.5572   -5.9466   -0.0637 H   0  0  0  0  0  0  0  0  0  0  0  0
    1.2661   -1.3997   -0.9168 N   0  0  0  0  0  0  0  0  0  0  0  0
    0.3385   -0.2695   -1.1478 C   0  0  2  0  0  0  0  0  0  0  0  0
    0.9704    1.0312   -0.5771 C   0  0  0  0  0  0  0  0  0  0  0  0
    2.1469    1.2880   -0.8112 O   0  0  0  0  0  0  0  0  0  0  0  0
   -1.0314   -0.5150   -0.4460 C   0  0  0  0  0  0  0  0  0  0  0  0
   -1.9174   -1.6581   -0.9800 C   0  0  0  0  0  0  0  0  0  0  0  0
   -3.1835   -1.7498   -0.1431 C   0  0  0  0  0  0  0  0  0  0  0  0
   -3.1164   -2.5403    0.8354 O   0  5  0  0  0  0  0  0  0  0  0  0
   -4.1484   -0.9907   -0.3967 O   0  0  0  0  0  0  0  0  0  0  0  0
    1.6949   -1.3830    0.0115 H   0  0  0  0  0  0  0  0  0  0  0  0
    0.1780   -0.1343   -2.2222 H   0  0  0  0  0  0  0  0  0  0  0  0
   -1.6368    0.3927   -0.5427 H   0  0  0  0  0  0  0  0  0  0  0  0
   -0.8568   -0.6766    0.6216 H   0  0  0  0  0  0  0  0  0  0  0  0
   -2.1791   -1.4629   -2.0240 H   0  0  0  0  0  0  0  0  0  0  0  0
   -1.4405   -2.6311   -0.9426 H   0  0  0  0  0  0  0  0  0  0  0  0
    0.2685    1.9506    0.1869 N   0  0  0  0  0  0  0  0  0  0  0  0
    0.8635    3.1409    0.8114 C   0  0  2  0  0  0  0  0  0  0  0  0
    0.2147    3.4886    2.1668 C   0  0  0  0  0  0  0  0  0  0  0  0
   -0.8710    3.0171    2.4815 O   0  0  0  0  0  0  0  0  0  0  0  0
    0.7214    4.3119   -0.1654 C   0  0  0  0  0  0  0  0  0  0  0  0
   -0.6732    1.6920    0.4832 H   0  0  0  0  0  0  0  0  0  0  0  0
    1.9260    2.9631    1.0067 H   0  0  0  0  0  0  0  0  0  0  0  0
   -0.3355    4.5157   -0.3654 H   0  0  0  0  0  0  0  0  0  0  0  0
    1.1799    5.2155    0.2470 H   0  0  0  0  0  0  0  0  0  0  0  0
    1.2163    4.0761   -1.1129 H   0  0  0  0  0  0  0  0  0  0  0  0
    0.8558    4.3482    3.0416 N   0  0  0  0  0  0  0  0  0  0  0  0
    0.3234    4.6983    4.3521 C   0  0  0  0  0  0  0  0  0  0  0  0
    1.7746    4.6878    2.7741 H   0  0  0  0  0  0  0  0  0  0  0  0
   -0.6726    5.1432    4.2548 H   0  0  0  0  0  0  0  0  0  0  0  0
    0.2516    3.8082    4.9857 H   0  0  0  0  0  0  0  0  0  0  0  0
    0.9780    5.4235    4.8446 H   0  0  0  0  0  0  0  0  0  0  0  0
  1  2  2  0  0  0  0
  1  3  1  0  0  0  0
  1  7  1  0  0  0  0
  3  4  1  0  0  0  0
  3  5  1  0  0  0  0
  3  6  1  0  0  0  0
  7  8  1  0  0  0  0
  7 12  1  0  0  0  0
  8  9  1  0  0  0  0
  8 11  1  0  0  0  0
  8 13  1  0  0  0  0
  9 10  2  0  0  0  0
  9 17  1  0  0  0  0
 11 14  1  0  0  0  0
 11 15  1  0  0  0  0
 11 16  1  0  0  0  0
 17 18  1  0  0  0  0
 17 26  1  0  0  0  0
 18 19  1  0  0  0  0
 18 21  1  0  0  0  0
 18 27  1  0  0  0  0
 19 20  2  0  0  0  0
 19 32  1  0  0  0  0
 21 22  1  0  0  0  0
 21 28  1  0  0  0  0
 21 29  1  0  0  0  0
 22 23  1  0  0  0  0
 22 30  1  0  0  0  0
 22 31  1  0  0  0  0
 23 24  1  0  0  0  0
 23 25  2  0  0  0  0
 32 33  1  0  0  0  0
 32 37  1  0  0  0  0
 33 34  1  0  0  0  0
 33 36  1  0  0  0  0
 33 38  1  0  0  0  0
 34 35  2  0  0  0  0
 34 42  1  0  0  0  0
 36 39  1  0  0  0  0
 36 40  1  0  0  0  0
 36 41  1  0  0  0  0
 42 43  1  0  0  0  0
 42 44  1  0  0  0  0
 43 45  1  0  0  0  0
 43 46  1  0  0  0  0
 43 47  1  0  0  0  0
M  CHG  1  24  -1
M  END
$$$$

  -OEChem-05262216243D

 47 46  0     1  0  0  0  0  0999 V2000
    0.2122   -2.0316    2.3267 C   0  0  0  0  0  0  0  0  0  0  0  0
    1.2605   -1.4274    2.5178 O   0  0  0  0  0  0  0  0  0  0  0  0
   -1.0316   -1.6764    3.1194 C   0  0  0  0  0  0  0  0  0  0  0  0
   -1.3259   -2.5216    3.7460 H   0  0  0  0  0  0  0  0  0  0  0  0
   -0.8407   -0.8096    3.7580 H   0  0  0  0  0  0  0  0  0  0  0  0
   -1.8566   -1.4388    2.4426 H   0  0  0  0  0  0  0  0  0  0  0  0
    0.1585   -2.9827    1.3302 N   0  0  0  0  0  0  0  0  0  0  0  0
    1.2983   -3.3074    0.4475 C   0  0  2  0  0  0  0  0  0  0  0  0
    1.4762   -2.2698   -0.6912 C   0  0  0  0  0  0  0  0  0  0  0  0
    1.5128   -2.5931   -1.8729 O   0  0  0  0  0  0  0  0  0  0  0  0
    1.0688   -4.7300   -0.0766 C   0  0  0  0  0  0  0  0  0  0  0  0
   -0.7847   -3.2333    1.0161 H   0  0  0  0  0  0  0  0  0  0  0  0
    2.2254   -3.3096    1.0298 H   0  0  0  0  0  0  0  0  0  0  0  0
    0.1547   -4.7743   -0.6780 H   0  0  0  0  0  0  0  0  0  0  0  0
    1.9103   -5.0458   -0.7010 H   0  0  0  0  0  0  0  0  0  0  0  0
    0.9732   -5.4326    0.7566 H   0  0  0  0  0  0  0  0  0  0  0  0
    1.4662   -0.9283   -0.3756 N   0  0  0  0  0  0  0  0  0  0  0  0
    0.5455    0.0446   -1.0015 C   0  0  2  0  0  0  0  0  0  0  0  0
    0.8239    1.4532   -0.4107 C   0  0  0  0  0  0  0  0  0  0  0  0
    1.9687    1.8923   -0.3880 O   0  0  0  0  0  0  0  0  0  0  0  0
   -0.9357   -0.3266   -0.7008 C   0  0  0  0  0  0  0  0  0  0  0  0
   -1.5073   -1.6155   -1.3174 C   0  0  0  0  0  0  0  0  0  0  0  0
   -2.9462   -1.7720   -0.8530 C   0  0  0  0  0  0  0  0  0  0  0  0
   -3.8551   -1.1452   -1.4467 O   0  5  0  0  0  0  0  0  0  0  0  0
   -3.0888   -2.4183    0.2184 O   0  0  0  0  0  0  0  0  0  0  0  0
    1.5846   -0.7903    0.6310 H   0  0  0  0  0  0  0  0  0  0  0  0
    0.7074    0.0760   -2.0838 H   0  0  0  0  0  0  0  0  0  0  0  0
   -1.5712    0.4853   -1.0723 H   0  0  0  0  0  0  0  0  0  0  0  0
   -1.0690   -0.3800    0.3838 H   0  0  0  0  0  0  0  0  0  0  0  0
   -1.4718   -1.5516   -2.4089 H   0  0  0  0  0  0  0  0  0  0  0  0
   -0.9717   -2.5125   -1.0239 H   0  0  0  0  0  0  0  0  0  0  0  0
   -0.1403    2.1853    0.2663 N   0  0  0  0  0  0  0  0  0  0  0  0
    0.1347    3.3889    1.0675 C   0  0  2  0  0  0  0  0  0  0  0  0
    0.7321    3.0410    2.4547 C   0  0  0  0  0  0  0  0  0  0  0  0
    0.2058    3.4125    3.4989 O   0  0  0  0  0  0  0  0  0  0  0  0
   -1.1762    4.1791    1.1611 C   0  0  0  0  0  0  0  0  0  0  0  0
   -1.0582    1.7548    0.3529 H   0  0  0  0  0  0  0  0  0  0  0  0
    0.8666    4.0160    0.5478 H   0  0  0  0  0  0  0  0  0  0  0  0
   -1.9412    3.5958    1.6837 H   0  0  0  0  0  0  0  0  0  0  0  0
   -1.0181    5.1135    1.7088 H   0  0  0  0  0  0  0  0  0  0  0  0
   -1.5453    4.4236    0.1604 H   0  0  0  0  0  0  0  0  0  0  0  0
    1.8711    2.2624    2.5147 N   0  0  0  0  0  0  0  0  0  0  0  0
    2.3774    1.6576    3.7378 C   0  0  0  0  0  0  0  0  0  0  0  0
    2.2310    1.9346    1.6146 H   0  0  0  0  0  0  0  0  0  0  0  0
    2.6159    2.4284    4.4774 H   0  0  0  0  0  0  0  0  0  0  0  0
    1.6333    0.9756    4.1622 H   0  0  0  0  0  0  0  0  0  0  0  0
    3.2869    1.0877    3.5256 H   0  0  0  0  0  0  0  0  0  0  0  0
  1  2  2  0  0  0  0
  1  3  1  0  0  0  0
  1  7  1  0  0  0  0
  3  4  1  0  0  0  0
  3  5  1  0  0  0  0
  3  6  1  0  0  0  0
  7  8  1  0  0  0  0
  7 12  1  0  0  0  0
  8  9  1  0  0  0  0
  8 11  1  0  0  0  0
  8 13  1  0  0  0  0
  9 10  2  0  0  0  0
  9 17  1  0  0  0  0
 11 14  1  0  0  0  0
 11 15  1  0  0  0  0
 11 16  1  0  0  0  0
 17 18  1  0  0  0  0
 17 26  1  0  0  0  0
 18 19  1  0  0  0  0
 18 21  1  0  0  0  0
 18 27  1  0  0  0  0
 19 20  2  0  0  0  0
 19 32  1  0  0  0  0
 21 22  1  0  0  0  0
 21 28  1  0  0  0  0
 21 29  1  0  0  0  0
 22 23  1  0  0  0  0
 22 30  1  0  0  0  0
 22 31  1  0  0  0  0
 23 24  1  0  0  0  0
 23 25  2  0  0  0  0
 32 33  1  0  0  0  0
 32 37  1  0  0  0  0
 33 34  1  0  0  0  0
 33 36  1  0  0  0  0
 33 38  1  0  0  0  0
 34 35  2  0  0  0  0
 34 42  1  0  0  0  0
 36 39  1  0  0  0  0
 36 40  1  0  0  0  0
 36 41  1  0  0  0  0
 42 43  1  0  0  0  0
 42 44  1  0  0  0  0
 43 45  1  0  0  0  0
 43 46  1  0  0  0  0
 43 47  1  0  0  0  0
M  CHG  1  24  -1
M  END
$$$$

  -OEChem-05262216243D

 47 46  0     1  0  0  0  0  0999 V2000
    0.2282   -2.4574    2.1864 C   0  0  0  0  0  0  0  0  0  0  0  0
    1.2096   -1.7844    2.4763 O   0  0  0  0  0  0  0  0  0  0  0  0
   -1.0456   -2.3498    3.0038 C   0  0  0  0  0  0  0  0  0  0  0  0
   -1.3222   -3.3325    3.3931 H   0  0  0  0  0  0  0  0  0  0  0  0
   -0.9024   -1.6639    3.8431 H   0  0  0  0  0  0  0  0  0  0  0  0
   -1.8632   -1.9787    2.3805 H   0  0  0  0  0  0  0  0  0  0  0  0
    0.2718   -3.2556    1.0639 N   0  0  0  0  0  0  0  0  0  0  0  0
    1.4456   -3.3526    0.1720 C   0  0  2  0  0  0  0  0  0  0  0  0
    1.5563   -2.1479   -0.7978 C   0  0  0  0  0  0  0  0  0  0  0  0
    1.6149   -2.2908   -2.0135 O   0  0  0  0  0  0  0  0  0  0  0  0
    1.3406   -4.6947   -0.5622 C   0  0  0  0  0  0  0  0  0  0  0  0
   -0.6421   -3.5396    0.6972 H   0  0  0  0  0  0  0  0  0  0  0  0
    2.3613   -3.3686    0.7716 H   0  0  0  0  0  0  0  0  0  0  0  0
    0.4439   -4.7185   -1.1903 H   0  0  0  0  0  0  0  0  0  0  0  0
    2.2155   -4.8480   -1.2017 H   0  0  0  0  0  0  0  0  0  0  0  0
    1.2870   -5.5190    0.1552 H   0  0  0  0  0  0  0  0  0  0  0  0
    1.4829   -0.8686   -0.2899 N   0  0  0  0  0  0  0  0  0  0  0  0
    0.5073    0.1314   -0.7735 C   0  0  2  0  0  0  0  0  0  0  0  0
    0.7068    1.4574    0.0042 C   0  0  0  0  0  0  0  0  0  0  0  0
    1.7246    2.1193   -0.1662 O   0  0  0  0  0  0  0  0  0  0  0  0
   -0.9532   -0.3517   -0.5382 C   0  0  0  0  0  0  0  0  0  0  0  0
   -1.4602   -1.5657   -1.3375 C   0  0  0  0  0  0  0  0  0  0  0  0
   -2.8900   -1.8625   -0.9121 C   0  0  0  0  0  0  0  0  0  0  0  0
   -3.8291   -1.1888   -1.3974 O   0  5  0  0  0  0  0  0  0  0  0  0
   -3.0001   -2.6854    0.0351 O   0  0  0  0  0  0  0  0  0  0  0  0
    1.5769   -0.8836    0.7290 H   0  0  0  0  0  0  0  0  0  0  0  0
    0.6641    0.3235   -1.8400 H   0  0  0  0  0  0  0  0  0  0  0  0
   -1.6264    0.4794   -0.7799 H   0  0  0  0  0  0  0  0  0  0  0  0
   -1.0803   -0.5794    0.5236 H   0  0  0  0  0  0  0  0  0  0  0  0
   -1.4305   -1.3428   -2.4078 H   0  0  0  0  0  0  0  0  0  0  0  0
   -0.8770   -2.4664   -1.1746 H   0  0  0  0  0  0  0  0  0  0  0  0
   -0.1619    1.8774    0.9997 N   0  0  0  0  0  0  0  0  0  0  0  0
    0.0291    3.0750    1.8327 C   0  0  2  0  0  0  0  0  0  0  0  0
    1.0435    2.8458    2.9814 C   0  0  0  0  0  0  0  0  0  0  0  0
    0.7535    3.0599    4.1543 O   0  0  0  0  0  0  0  0  0  0  0  0
   -1.3563    3.4992    2.3343 C   0  0  0  0  0  0  0  0  0  0  0  0
   -0.9639    1.2815    1.1893 H   0  0  0  0  0  0  0  0  0  0  0  0
    0.4230    3.8878    1.2136 H   0  0  0  0  0  0  0  0  0  0  0  0
   -1.7913    2.7195    2.9678 H   0  0  0  0  0  0  0  0  0  0  0  0
   -1.2824    4.4209    2.9199 H   0  0  0  0  0  0  0  0  0  0  0  0
   -2.0285    3.6804    1.4900 H   0  0  0  0  0  0  0  0  0  0  0  0
    2.3123    2.3952    2.6736 N   0  0  0  0  0  0  0  0  0  0  0  0
    3.2928    1.9784    3.6646 C   0  0  0  0  0  0  0  0  0  0  0  0
    2.4818    2.1890    1.6851 H   0  0  0  0  0  0  0  0  0  0  0  0
    3.4625    2.7741    4.3972 H   0  0  0  0  0  0  0  0  0  0  0  0
    2.9465    1.0813    4.1880 H   0  0  0  0  0  0  0  0  0  0  0  0
    4.2453    1.7508    3.1768 H   0  0  0  0  0  0  0  0  0  0  0  0
  1  2  2  0  0  0  0
  1  3  1  0  0  0  0
  1  7  1  0  0  0  0
  3  4  1  0  0  0  0
  3  5  1  0  0  0  0
  3  6  1  0  0  0  0
  7  8  1  0  0  0  0
  7 12  1  0  0  0  0
  8  9  1  0  0  0  0
  8 11  1  0  0  0  0
  8 13  1  0  0  0  0
  9 10  2  0  0  0  0
  9 17  1  0  0  0  0
 11 14  1  0  0  0  0
 11 15  1  0  0  0  0
 11 16  1  0  0  0  0
 17 18  1  0  0  0  0
 17 26  1  0  0  0  0
 18 19  1  0  0  0  0
 18 21  1  0  0  0  0
 18 27  1  0  0  0  0
 19 20  2  0  0  0  0
 19 32  1  0  0  0  0
 21 22  1  0  0  0  0
 21 28  1  0  0  0  0
 21 29  1  0  0  0  0
 22 23  1  0  0  0  0
 22 30  1  0  0  0  0
 22 31  1  0  0  0  0
 23 24  1  0  0  0  0
 23 25  2  0  0  0  0
 32 33  1  0  0  0  0
 32 37  1  0  0  0  0
 33 34  1  0  0  0  0
 33 36  1  0  0  0  0
 33 38  1  0  0  0  0
 34 35  2  0  0  0  0
 34 42  1  0  0  0  0
 36 39  1  0  0  0  0
 36 40  1  0  0  0  0
 36 41  1  0  0  0  0
 42 43  1  0  0  0  0
 42 44  1  0  0  0  0
 43 45  1  0  0  0  0
 43 46  1  0  0  0  0
 43 47  1  0  0  0  0
M  CHG  1  24  -1
M  END
$$$$

  -OEChem-05262216243D

 47 46  0     1  0  0  0  0  0999 V2000
    0.5362   -2.7980    2.5623 C   0  0  0  0  0  0  0  0  0  0  0  0
    1.6198   -2.9630    3.1075 O   0  0  0  0  0  0  0  0  0  0  0  0
   -0.7047   -2.5285    3.3923 C   0  0  0  0  0  0  0  0  0  0  0  0
   -1.5333   -3.1499    3.0404 H   0  0  0  0  0  0  0  0  0  0  0  0
   -0.5149   -2.7541    4.4446 H   0  0  0  0  0  0  0  0  0  0  0  0
   -0.9900   -1.4780    3.2973 H   0  0  0  0  0  0  0  0  0  0  0  0
    0.4226   -2.8699    1.1912 N   0  0  0  0  0  0  0  0  0  0  0  0
    1.5502   -3.0030    0.2506 C   0  0  2  0  0  0  0  0  0  0  0  0
    1.4741   -1.9358   -0.8672 C   0  0  0  0  0  0  0  0  0  0  0  0
    1.4598   -2.2329   -2.0566 O   0  0  0  0  0  0  0  0  0  0  0  0
    1.5330   -4.4375   -0.2897 C   0  0  0  0  0  0  0  0  0  0  0  0
   -0.5257   -2.7756    0.8130 H   0  0  0  0  0  0  0  0  0  0  0  0
    2.4993   -2.8411    0.7711 H   0  0  0  0  0  0  0  0  0  0  0  0
    0.6025   -4.6313   -0.8331 H   0  0  0  0  0  0  0  0  0  0  0  0
    2.3741   -4.5976   -0.9712 H   0  0  0  0  0  0  0  0  0  0  0  0
    1.6125   -5.1532    0.5339 H   0  0  0  0  0  0  0  0  0  0  0  0
    1.3047   -0.6116   -0.5242 N   0  0  0  0  0  0  0  0  0  0  0  0
    0.2247    0.2379   -1.0698 C   0  0  2  0  0  0  0  0  0  0  0  0
    0.3596    1.6565   -0.4652 C   0  0  0  0  0  0  0  0  0  0  0  0
    1.2544    2.4026   -0.8474 O   0  0  0  0  0  0  0  0  0  0  0  0
   -1.1705   -0.3247   -0.6737 C   0  0  0  0  0  0  0  0  0  0  0  0
   -1.6190   -1.6713   -1.2694 C   0  0  0  0  0  0  0  0  0  0  0  0
   -2.9897   -2.0047   -0.7007 C   0  0  0  0  0  0  0  0  0  0  0  0
   -4.0232   -1.6591   -1.3202 O   0  5  0  0  0  0  0  0  0  0  0  0
   -2.9674   -2.5038    0.4554 O   0  0  0  0  0  0  0  0  0  0  0  0
    1.4603   -0.4619    0.4771 H   0  0  0  0  0  0  0  0  0  0  0  0
    0.3060    0.3036   -2.1596 H   0  0  0  0  0  0  0  0  0  0  0  0
   -1.9276    0.4171   -0.9538 H   0  0  0  0  0  0  0  0  0  0  0  0
   -1.2014   -0.4370    0.4156 H   0  0  0  0  0  0  0  0  0  0  0  0
   -1.6728   -1.5950   -2.3593 H   0  0  0  0  0  0  0  0  0  0  0  0
   -0.9549   -2.4965   -1.0308 H   0  0  0  0  0  0  0  0  0  0  0  0
   -0.2882    1.9809    0.7160 N   0  0  0  0  0  0  0  0  0  0  0  0
    0.4727    2.6292    1.7903 C   0  0  2  0  0  0  0  0  0  0  0  0
    1.4686    1.6374    2.4382 C   0  0  0  0  0  0  0  0  0  0  0  0
    1.3216    0.4274    2.2858 O   0  0  0  0  0  0  0  0  0  0  0  0
   -0.5255    3.1454    2.8277 C   0  0  0  0  0  0  0  0  0  0  0  0
   -0.9240    1.2504    1.0273 H   0  0  0  0  0  0  0  0  0  0  0  0
    1.0354    3.4809    1.3938 H   0  0  0  0  0  0  0  0  0  0  0  0
   -1.0964    2.3154    3.2565 H   0  0  0  0  0  0  0  0  0  0  0  0
   -0.0017    3.6628    3.6371 H   0  0  0  0  0  0  0  0  0  0  0  0
   -1.2252    3.8471    2.3629 H   0  0  0  0  0  0  0  0  0  0  0  0
    2.5388    2.0962    3.1835 N   0  0  0  0  0  0  0  0  0  0  0  0
    3.5572    1.2070    3.7296 C   0  0  0  0  0  0  0  0  0  0  0  0
    2.7037    3.0979    3.1956 H   0  0  0  0  0  0  0  0  0  0  0  0
    3.1021    0.4618    4.3906 H   0  0  0  0  0  0  0  0  0  0  0  0
    4.0831    0.6863    2.9224 H   0  0  0  0  0  0  0  0  0  0  0  0
    4.2880    1.7795    4.3083 H   0  0  0  0  0  0  0  0  0  0  0  0
  1  2  2  0  0  0  0
  1  3  1  0  0  0  0
  1  7  1  0  0  0  0
  3  4  1  0  0  0  0
  3  5  1  0  0  0  0
  3  6  1  0  0  0  0
  7  8  1  0  0  0  0
  7 12  1  0  0  0  0
  8  9  1  0  0  0  0
  8 11  1  0  0  0  0
  8 13  1  0  0  0  0
  9 10  2  0  0  0  0
  9 17  1  0  0  0  0
 11 14  1  0  0  0  0
 11 15  1  0  0  0  0
 11 16  1  0  0  0  0
 17 18  1  0  0  0  0
 17 26  1  0  0  0  0
 18 19  1  0  0  0  0
 18 21  1  0  0  0  0
 18 27  1  0  0  0  0
 19 20  2  0  0  0  0
 19 32  1  0  0  0  0
 21 22  1  0  0  0  0
 21 28  1  0  0  0  0
 21 29  1  0  0  0  0
 22 23  1  0  0  0  0
 22 30  1  0  0  0  0
 22 31  1  0  0  0  0
 23 24  1  0  0  0  0
 23 25  2  0  0  0  0
 32 33  1  0  0  0  0
 32 37  1  0  0  0  0
 33 34  1  0  0  0  0
 33 36  1  0  0  0  0
 33 38  1  0  0  0  0
 34 35  2  0  0  0  0
 34 42  1  0  0  0  0
 36 39  1  0  0  0  0
 36 40  1  0  0  0  0
 36 41  1  0  0  0  0
 42 43  1  0  0  0  0
 42 44  1  0  0  0  0
 43 45  1  0  0  0  0
 43 46  1  0  0  0  0
 43 47  1  0  0  0  0
M  CHG  1  24  -1
M  END
$$$$

  -OEChem-05262216243D

 47 46  0     1  0  0  0  0  0999 V2000
    0.1877   -3.2929    2.4473 C   0  0  0  0  0  0  0  0  0  0  0  0
    1.2112   -3.4543    3.0971 O   0  0  0  0  0  0  0  0  0  0  0  0
   -1.1595   -3.2396    3.1428 C   0  0  0  0  0  0  0  0  0  0  0  0
   -1.8263   -3.9966    2.7211 H   0  0  0  0  0  0  0  0  0  0  0  0
   -1.0451   -3.4235    4.2140 H   0  0  0  0  0  0  0  0  0  0  0  0
   -1.6144   -2.2568    2.9958 H   0  0  0  0  0  0  0  0  0  0  0  0
    0.2415   -3.1566    1.0784 N   0  0  0  0  0  0  0  0  0  0  0  0
    1.4728   -3.1433    0.2641 C   0  0  2  0  0  0  0  0  0  0  0  0
    1.4393   -2.0076   -0.7878 C   0  0  0  0  0  0  0  0  0  0  0  0
    1.4096   -2.2303   -1.9928 O   0  0  0  0  0  0  0  0  0  0  0  0
    1.6254   -4.5328   -0.3657 C   0  0  0  0  0  0  0  0  0  0  0  0
   -0.6644   -3.0595    0.6072 H   0  0  0  0  0  0  0  0  0  0  0  0
    2.3428   -2.9532    0.9011 H   0  0  0  0  0  0  0  0  0  0  0  0
    0.7709   -4.7560   -1.0132 H   0  0  0  0  0  0  0  0  0  0  0  0
    2.5389   -4.5796   -0.9664 H   0  0  0  0  0  0  0  0  0  0  0  0
    1.6820   -5.2980    0.4145 H   0  0  0  0  0  0  0  0  0  0  0  0
    1.2867   -0.7076   -0.3575 N   0  0  0  0  0  0  0  0  0  0  0  0
    0.2250    0.2058   -0.8341 C   0  0  2  0  0  0  0  0  0  0  0  0
    0.3919    1.5658   -0.1259 C   0  0  0  0  0  0  0  0  0  0  0  0
    1.0999    2.4402   -0.6125 O   0  0  0  0  0  0  0  0  0  0  0  0
   -1.1896   -0.3421   -0.5013 C   0  0  0  0  0  0  0  0  0  0  0  0
   -1.6531   -1.6198   -1.2243 C   0  0  0  0  0  0  0  0  0  0  0  0
   -3.0396   -1.9837   -0.7189 C   0  0  0  0  0  0  0  0  0  0  0  0
   -4.0572   -1.5290   -1.2922 O   0  5  0  0  0  0  0  0  0  0  0  0
   -3.0420   -2.6451    0.3529 O   0  0  0  0  0  0  0  0  0  0  0  0
    1.5238   -0.5937    0.6324 H   0  0  0  0  0  0  0  0  0  0  0  0
    0.3164    0.3543   -1.9152 H   0  0  0  0  0  0  0  0  0  0  0  0
   -1.9203    0.4428   -0.7286 H   0  0  0  0  0  0  0  0  0  0  0  0
   -1.2470   -0.5406    0.5739 H   0  0  0  0  0  0  0  0  0  0  0  0
   -1.6901   -1.4349   -2.3018 H   0  0  0  0  0  0  0  0  0  0  0  0
   -1.0054   -2.4752   -1.0661 H   0  0  0  0  0  0  0  0  0  0  0  0
    0.0146    1.6866    1.2008 N   0  0  0  0  0  0  0  0  0  0  0  0
    0.8887    2.3935    2.1420 C   0  0  2  0  0  0  0  0  0  0  0  0
    2.1593    1.5664    2.4485 C   0  0  0  0  0  0  0  0  0  0  0  0
    2.1520    0.3463    2.3024 O   0  0  0  0  0  0  0  0  0  0  0  0
    0.0917    2.6487    3.4223 C   0  0  0  0  0  0  0  0  0  0  0  0
   -0.4313    0.8491    1.5665 H   0  0  0  0  0  0  0  0  0  0  0  0
    1.1909    3.3583    1.7212 H   0  0  0  0  0  0  0  0  0  0  0  0
   -0.2169    1.7017    3.8775 H   0  0  0  0  0  0  0  0  0  0  0  0
    0.6987    3.2011    4.1461 H   0  0  0  0  0  0  0  0  0  0  0  0
   -0.8039    3.2373    3.1996 H   0  0  0  0  0  0  0  0  0  0  0  0
    3.3127    2.1907    2.8867 N   0  0  0  0  0  0  0  0  0  0  0  0
    4.5657    1.4784    3.1013 C   0  0  0  0  0  0  0  0  0  0  0  0
    3.3221    3.2060    2.8758 H   0  0  0  0  0  0  0  0  0  0  0  0
    4.4376    0.6975    3.8581 H   0  0  0  0  0  0  0  0  0  0  0  0
    4.9070    1.0145    2.1700 H   0  0  0  0  0  0  0  0  0  0  0  0
    5.3388    2.1704    3.4480 H   0  0  0  0  0  0  0  0  0  0  0  0
  1  2  2  0  0  0  0
  1  3  1  0  0  0  0
  1  7  1  0  0  0  0
  3  4  1  0  0  0  0
  3  5  1  0  0  0  0
  3  6  1  0  0  0  0
  7  8  1  0  0  0  0
  7 12  1  0  0  0  0
  8  9  1  0  0  0  0
  8 11  1  0  0  0  0
  8 13  1  0  0  0  0
  9 10  2  0  0  0  0
  9 17  1  0  0  0  0
 11 14  1  0  0  0  0
 11 15  1  0  0  0  0
 11 16  1  0  0  0  0
 17 18  1  0  0  0  0
 17 26  1  0  0  0  0
 18 19  1  0  0  0  0
 18 21  1  0  0  0  0
 18 27  1  0  0  0  0
 19 20  2  0  0  0  0
 19 32  1  0  0  0  0
 21 22  1  0  0  0  0
 21 28  1  0  0  0  0
 21 29  1  0  0  0  0
 22 23  1  0  0  0  0
 22 30  1  0  0  0  0
 22 31  1  0  0  0  0
 23 24  1  0  0  0  0
 23 25  2  0  0  0  0
 32 33  1  0  0  0  0
 32 37  1  0  0  0  0
 33 34  1  0  0  0  0
 33 36  1  0  0  0  0
 33 38  1  0  0  0  0
 34 35  2  0  0  0  0
 34 42  1  0  0  0  0
 36 39  1  0  0  0  0
 36 40  1  0  0  0  0
 36 41  1  0  0  0  0
 42 43  1  0  0  0  0
 42 44  1  0  0  0  0
 43 45  1  0  0  0  0
 43 46  1  0  0  0  0
 43 47  1  0  0  0  0
M  CHG  1  24  -1
M  END
$$$$

  -OEChem-05262216243D

 47 46  0     1  0  0  0  0  0999 V2000
    0.0224   -2.9776    2.0640 C   0  0  0  0  0  0  0  0  0  0  0  0
    0.9722   -2.2844    2.4154 O   0  0  0  0  0  0  0  0  0  0  0  0
   -1.2667   -2.9489    2.8635 C   0  0  0  0  0  0  0  0  0  0  0  0
   -1.9992   -2.3021    2.3741 H   0  0  0  0  0  0  0  0  0  0  0  0
   -1.6852   -3.9558    2.9353 H   0  0  0  0  0  0  0  0  0  0  0  0
   -1.0809   -2.5722    3.8727 H   0  0  0  0  0  0  0  0  0  0  0  0
    0.1060   -3.7131    0.8994 N   0  0  0  0  0  0  0  0  0  0  0  0
    1.3005   -3.7834    0.0299 C   0  0  2  0  0  0  0  0  0  0  0  0
    1.4972   -2.5116   -0.8362 C   0  0  0  0  0  0  0  0  0  0  0  0
    1.5234   -2.5352   -2.0602 O   0  0  0  0  0  0  0  0  0  0  0  0
    1.1628   -5.0528   -0.8182 C   0  0  0  0  0  0  0  0  0  0  0  0
   -0.7987   -3.9689    0.4937 H   0  0  0  0  0  0  0  0  0  0  0  0
    2.1944   -3.8896    0.6525 H   0  0  0  0  0  0  0  0  0  0  0  0
    0.2809   -4.9880   -1.4643 H   0  0  0  0  0  0  0  0  0  0  0  0
    2.0464   -5.1853   -1.4506 H   0  0  0  0  0  0  0  0  0  0  0  0
    1.0619   -5.9322   -0.1754 H   0  0  0  0  0  0  0  0  0  0  0  0
    1.5523   -1.3002   -0.1869 N   0  0  0  0  0  0  0  0  0  0  0  0
    0.6755   -0.1605   -0.5180 C   0  0  2  0  0  0  0  0  0  0  0  0
    1.0473    1.0025    0.4215 C   0  0  0  0  0  0  0  0  0  0  0  0
    1.4802    2.0631   -0.0144 O   0  0  0  0  0  0  0  0  0  0  0  0
   -0.8238   -0.4809   -0.2749 C   0  0  0  0  0  0  0  0  0  0  0  0
   -1.4692   -1.5381   -1.1914 C   0  0  0  0  0  0  0  0  0  0  0  0
   -2.9219   -1.7465   -0.7895 C   0  0  0  0  0  0  0  0  0  0  0  0
   -3.1197   -2.7053    0.0038 O   0  5  0  0  0  0  0  0  0  0  0  0
   -3.7907   -0.9196   -1.1532 O   0  0  0  0  0  0  0  0  0  0  0  0
    1.6462   -1.4515    0.8195 H   0  0  0  0  0  0  0  0  0  0  0  0
    0.8280    0.1468   -1.5584 H   0  0  0  0  0  0  0  0  0  0  0  0
   -1.3899    0.4485   -0.4070 H   0  0  0  0  0  0  0  0  0  0  0  0
   -0.9671   -0.7906    0.7626 H   0  0  0  0  0  0  0  0  0  0  0  0
   -1.4225   -1.1993   -2.2304 H   0  0  0  0  0  0  0  0  0  0  0  0
   -0.9754   -2.5034   -1.1434 H   0  0  0  0  0  0  0  0  0  0  0  0
    0.9372    0.8404    1.7934 N   0  0  0  0  0  0  0  0  0  0  0  0
    1.2167    1.8855    2.7887 C   0  0  2  0  0  0  0  0  0  0  0  0
    2.7303    2.0951    3.0501 C   0  0  0  0  0  0  0  0  0  0  0  0
    3.1893    2.1596    4.1863 O   0  0  0  0  0  0  0  0  0  0  0  0
    0.4436    1.5014    4.0561 C   0  0  0  0  0  0  0  0  0  0  0  0
    0.6980   -0.0937    2.1290 H   0  0  0  0  0  0  0  0  0  0  0  0
    0.8194    2.8398    2.4274 H   0  0  0  0  0  0  0  0  0  0  0  0
    0.8238    0.5605    4.4671 H   0  0  0  0  0  0  0  0  0  0  0  0
    0.5484    2.2812    4.8169 H   0  0  0  0  0  0  0  0  0  0  0  0
   -0.6207    1.3804    3.8316 H   0  0  0  0  0  0  0  0  0  0  0  0
    3.5854    2.2588    1.9777 N   0  0  0  0  0  0  0  0  0  0  0  0
    5.0123    2.5186    2.0955 C   0  0  0  0  0  0  0  0  0  0  0  0
    3.1457    2.2649    1.0529 H   0  0  0  0  0  0  0  0  0  0  0  0
    5.1850    3.4861    2.5773 H   0  0  0  0  0  0  0  0  0  0  0  0
    5.4969    1.7359    2.6882 H   0  0  0  0  0  0  0  0  0  0  0  0
    5.4740    2.5357    1.1037 H   0  0  0  0  0  0  0  0  0  0  0  0
  1  2  2  0  0  0  0
  1  3  1  0  0  0  0
  1  7  1  0  0  0  0
  3  4  1  0  0  0  0
  3  5  1  0  0  0  0
  3  6  1  0  0  0  0
  7  8  1  0  0  0  0
  7 12  1  0  0  0  0
  8  9  1  0  0  0  0
  8 11  1  0  0  0  0
  8 13  1  0  0  0  0
  9 10  2  0  0  0  0
  9 17  1  0  0  0  0
 11 14  1  0  0  0  0
 11 15  1  0  0  0  0
 11 16  1  0  0  0  0
 17 18  1  0  0  0  0
 17 26  1  0  0  0  0
 18 19  1  0  0  0  0
 18 21  1  0  0  0  0
 18 27  1  0  0  0  0
 19 20  2  0  0  0  0
 19 32  1  0  0  0  0
 21 22  1  0  0  0  0
 21 28  1  0  0  0  0
 21 29  1  0  0  0  0
 22 23  1  0  0  0  0
 22 30  1  0  0  0  0
 22 31  1  0  0  0  0
 23 24  1  0  0  0  0
 23 25  2  0  0  0  0
 32 33  1  0  0  0  0
 32 37  1  0  0  0  0
 33 34  1  0  0  0  0
 33 36  1  0  0  0  0
 33 38  1  0  0  0  0
 34 35  2  0  0  0  0
 34 42  1  0  0  0  0
 36 39  1  0  0  0  0
 36 40  1  0  0  0  0
 36 41  1  0  0  0  0
 42 43  1  0  0  0  0
 42 44  1  0  0  0  0
 43 45  1  0  0  0  0
 43 46  1  0  0  0  0
 43 47  1  0  0  0  0
M  CHG  1  24  -1
M  END
$$$$

  -OEChem-05262216243D

 47 46  0     1  0  0  0  0  0999 V2000
    0.0505   -3.1215    2.0593 C   0  0  0  0  0  0  0  0  0  0  0  0
    1.1072   -2.5626    2.3397 O   0  0  0  0  0  0  0  0  0  0  0  0
   -1.1603   -2.9376    2.9549 C   0  0  0  0  0  0  0  0  0  0  0  0
   -1.6864   -3.8881    3.0733 H   0  0  0  0  0  0  0  0  0  0  0  0
   -0.8534   -2.5793    3.9408 H   0  0  0  0  0  0  0  0  0  0  0  0
   -1.8481   -2.2117    2.5137 H   0  0  0  0  0  0  0  0  0  0  0  0
   -0.0530   -3.8393    0.8850 N   0  0  0  0  0  0  0  0  0  0  0  0
    1.0477   -4.0411   -0.0835 C   0  0  2  0  0  0  0  0  0  0  0  0
    1.3335   -2.7850   -0.9480 C   0  0  0  0  0  0  0  0  0  0  0  0
    1.2860   -2.7893   -2.1715 O   0  0  0  0  0  0  0  0  0  0  0  0
    0.6775   -5.2622   -0.9330 C   0  0  0  0  0  0  0  0  0  0  0  0
   -1.0129   -3.9742    0.5540 H   0  0  0  0  0  0  0  0  0  0  0  0
    1.9688   -4.2733    0.4602 H   0  0  0  0  0  0  0  0  0  0  0  0
   -0.2393   -5.0691   -1.5001 H   0  0  0  0  0  0  0  0  0  0  0  0
    1.4804   -5.4910   -1.6406 H   0  0  0  0  0  0  0  0  0  0  0  0
    0.5170   -6.1372   -0.2962 H   0  0  0  0  0  0  0  0  0  0  0  0
    1.5511   -1.5999   -0.2853 N   0  0  0  0  0  0  0  0  0  0  0  0
    0.7991   -0.3596   -0.5589 C   0  0  2  0  0  0  0  0  0  0  0  0
    1.3272    0.7471    0.3744 C   0  0  0  0  0  0  0  0  0  0  0  0
    1.5701    1.8724   -0.0461 O   0  0  0  0  0  0  0  0  0  0  0  0
   -0.7066   -0.5172   -0.2206 C   0  0  0  0  0  0  0  0  0  0  0  0
   -1.5231   -1.4868   -1.0963 C   0  0  0  0  0  0  0  0  0  0  0  0
   -2.9603   -1.5378   -0.5997 C   0  0  0  0  0  0  0  0  0  0  0  0
   -3.1988   -2.4515    0.2348 O   0  5  0  0  0  0  0  0  0  0  0  0
   -3.7707   -0.6469   -0.9464 O   0  0  0  0  0  0  0  0  0  0  0  0
    1.6828   -1.7824    0.7104 H   0  0  0  0  0  0  0  0  0  0  0  0
    0.9260   -0.0555   -1.6032 H   0  0  0  0  0  0  0  0  0  0  0  0
   -1.1765    0.4693   -0.3119 H   0  0  0  0  0  0  0  0  0  0  0  0
   -0.8113   -0.8194    0.8242 H   0  0  0  0  0  0  0  0  0  0  0  0
   -1.5053   -1.1465   -2.1357 H   0  0  0  0  0  0  0  0  0  0  0  0
   -1.1373   -2.5012   -1.0809 H   0  0  0  0  0  0  0  0  0  0  0  0
    1.5434    0.4749    1.7173 N   0  0  0  0  0  0  0  0  0  0  0  0
    1.8782    1.4858    2.7306 C   0  0  2  0  0  0  0  0  0  0  0  0
    3.3720    1.9003    2.7191 C   0  0  0  0  0  0  0  0  0  0  0  0
    4.0463    1.9274    3.7442 O   0  0  0  0  0  0  0  0  0  0  0  0
    1.4292    0.9146    4.0814 C   0  0  0  0  0  0  0  0  0  0  0  0
    1.3294   -0.4705    2.0395 H   0  0  0  0  0  0  0  0  0  0  0  0
    1.2945    2.3919    2.5375 H   0  0  0  0  0  0  0  0  0  0  0  0
    1.9990    0.0115    4.3238 H   0  0  0  0  0  0  0  0  0  0  0  0
    1.5855    1.6495    4.8772 H   0  0  0  0  0  0  0  0  0  0  0  0
    0.3653    0.6596    4.0528 H   0  0  0  0  0  0  0  0  0  0  0  0
    3.9512    2.3057    1.5327 N   0  0  0  0  0  0  0  0  0  0  0  0
    5.3182    2.7877    1.4063 C   0  0  0  0  0  0  0  0  0  0  0  0
    3.3342    2.3145    0.7150 H   0  0  0  0  0  0  0  0  0  0  0  0
    5.4511    3.7118    1.9779 H   0  0  0  0  0  0  0  0  0  0  0  0
    6.0249    2.0375    1.7757 H   0  0  0  0  0  0  0  0  0  0  0  0
    5.5488    2.9919    0.3565 H   0  0  0  0  0  0  0  0  0  0  0  0
  1  2  2  0  0  0  0
  1  3  1  0  0  0  0
  1  7  1  0  0  0  0
  3  4  1  0  0  0  0
  3  5  1  0  0  0  0
  3  6  1  0  0  0  0
  7  8  1  0  0  0  0
  7 12  1  0  0  0  0
  8  9  1  0  0  0  0
  8 11  1  0  0  0  0
  8 13  1  0  0  0  0
  9 10  2  0  0  0  0
  9 17  1  0  0  0  0
 11 14  1  0  0  0  0
 11 15  1  0  0  0  0
 11 16  1  0  0  0  0
 17 18  1  0  0  0  0
 17 26  1  0  0  0  0
 18 19  1  0  0  0  0
 18 21  1  0  0  0  0
 18 27  1  0  0  0  0
 19 20  2  0  0  0  0
 19 32  1  0  0  0  0
 21 22  1  0  0  0  0
 21 28  1  0  0  0  0
 21 29  1  0  0  0  0
 22 23  1  0  0  0  0
 22 30  1  0  0  0  0
 22 31  1  0  0  0  0
 23 24  1  0  0  0  0
 23 25  2  0  0  0  0
 32 33  1  0  0  0  0
 32 37  1  0  0  0  0
 33 34  1  0  0  0  0
 33 36  1  0  0  0  0
 33 38  1  0  0  0  0
 34 35  2  0  0  0  0
 34 42  1  0  0  0  0
 36 39  1  0  0  0  0
 36 40  1  0  0  0  0
 36 41  1  0  0  0  0
 42 43  1  0  0  0  0
 42 44  1  0  0  0  0
 43 45  1  0  0  0  0
 43 46  1  0  0  0  0
 43 47  1  0  0  0  0
M  CHG  1  24  -1
M  END
$$$$

  -OEChem-05262216243D

 47 46  0     1  0  0  0  0  0999 V2000
   -0.3096   -5.6622    1.5180 C   0  0  0  0  0  0  0  0  0  0  0  0
    0.5953   -5.7595    2.3344 O   0  0  0  0  0  0  0  0  0  0  0  0
   -1.5700   -6.4925    1.6742 C   0  0  0  0  0  0  0  0  0  0  0  0
   -1.7204   -7.1139    0.7881 H   0  0  0  0  0  0  0  0  0  0  0  0
   -1.4908   -7.1399    2.5517 H   0  0  0  0  0  0  0  0  0  0  0  0
   -2.4339   -5.8344    1.8000 H   0  0  0  0  0  0  0  0  0  0  0  0
   -0.1855   -4.8096    0.4428 N   0  0  0  0  0  0  0  0  0  0  0  0
    0.8584   -3.7870    0.3177 C   0  0  2  0  0  0  0  0  0  0  0  0
    0.3506   -2.6061   -0.5312 C   0  0  0  0  0  0  0  0  0  0  0  0
   -0.3949   -2.8181   -1.4807 O   0  0  0  0  0  0  0  0  0  0  0  0
    2.1056   -4.4059   -0.3201 C   0  0  0  0  0  0  0  0  0  0  0  0
   -1.0058   -4.6916   -0.1527 H   0  0  0  0  0  0  0  0  0  0  0  0
    1.1117   -3.4021    1.3114 H   0  0  0  0  0  0  0  0  0  0  0  0
    1.8695   -4.8019   -1.3129 H   0  0  0  0  0  0  0  0  0  0  0  0
    2.8946   -3.6545   -0.4222 H   0  0  0  0  0  0  0  0  0  0  0  0
    2.4849   -5.2232    0.3011 H   0  0  0  0  0  0  0  0  0  0  0  0
    0.8079   -1.3248   -0.2952 N   0  0  0  0  0  0  0  0  0  0  0  0
    0.0437   -0.0912   -0.5985 C   0  0  2  0  0  0  0  0  0  0  0  0
    0.8668    1.1586   -0.2135 C   0  0  0  0  0  0  0  0  0  0  0  0
    0.8692    2.1509   -0.9306 O   0  0  0  0  0  0  0  0  0  0  0  0
   -1.2386    0.0544    0.2700 C   0  0  0  0  0  0  0  0  0  0  0  0
   -2.3728   -0.9590    0.0438 C   0  0  0  0  0  0  0  0  0  0  0  0
   -3.5274   -0.6679    0.9996 C   0  0  0  0  0  0  0  0  0  0  0  0
   -3.4476   -1.1577    2.1546 O   0  5  0  0  0  0  0  0  0  0  0  0
   -4.4496    0.0854    0.6026 O   0  0  0  0  0  0  0  0  0  0  0  0
    1.4967   -1.2629    0.4465 H   0  0  0  0  0  0  0  0  0  0  0  0
   -0.2110   -0.0537   -1.6631 H   0  0  0  0  0  0  0  0  0  0  0  0
   -1.6628    1.0499    0.0918 H   0  0  0  0  0  0  0  0  0  0  0  0
   -0.9543    0.0070    1.3273 H   0  0  0  0  0  0  0  0  0  0  0  0
   -2.7203   -0.9135   -0.9925 H   0  0  0  0  0  0  0  0  0  0  0  0
   -2.0393   -1.9761    0.2489 H   0  0  0  0  0  0  0  0  0  0  0  0
    1.7718    1.1048    0.8319 N   0  0  0  0  0  0  0  0  0  0  0  0
    2.8402    2.0774    1.0788 C   0  0  2  0  0  0  0  0  0  0  0  0
    4.1173    1.3831    1.5977 C   0  0  0  0  0  0  0  0  0  0  0  0
    4.0877    0.2048    1.9416 O   0  0  0  0  0  0  0  0  0  0  0  0
    2.3260    3.1068    2.0882 C   0  0  0  0  0  0  0  0  0  0  0  0
    1.7604    0.2772    1.4208 H   0  0  0  0  0  0  0  0  0  0  0  0
    3.1028    2.5876    0.1459 H   0  0  0  0  0  0  0  0  0  0  0  0
    2.0728    2.6211    3.0361 H   0  0  0  0  0  0  0  0  0  0  0  0
    3.0846    3.8715    2.2787 H   0  0  0  0  0  0  0  0  0  0  0  0
    1.4289    3.5996    1.6994 H   0  0  0  0  0  0  0  0  0  0  0  0
    5.3116    2.0776    1.6643 N   0  0  0  0  0  0  0  0  0  0  0  0
    6.5589    1.4840    2.1284 C   0  0  0  0  0  0  0  0  0  0  0  0
    5.3082    3.0463    1.3587 H   0  0  0  0  0  0  0  0  0  0  0  0
    6.4590    1.1450    3.1648 H   0  0  0  0  0  0  0  0  0  0  0  0
    6.8332    0.6287    1.5020 H   0  0  0  0  0  0  0  0  0  0  0  0
    7.3673    2.2194    2.0813 H   0  0  0  0  0  0  0  0  0  0  0  0
  1  2  2  0  0  0  0
  1  3  1  0  0  0  0
  1  7  1  0  0  0  0
  3  4  1  0  0  0  0
  3  5  1  0  0  0  0
  3  6  1  0  0  0  0
  7  8  1  0  0  0  0
  7 12  1  0  0  0  0
  8  9  1  0  0  0  0
  8 11  1  0  0  0  0
  8 13  1  0  0  0  0
  9 10  2  0  0  0  0
  9 17  1  0  0  0  0
 11 14  1  0  0  0  0
 11 15  1  0  0  0  0
 11 16  1  0  0  0  0
 17 18  1  0  0  0  0
 17 26  1  0  0  0  0
 18 19  1  0  0  0  0
 18 21  1  0  0  0  0
 18 27  1  0  0  0  0
 19 20  2  0  0  0  0
 19 32  1  0  0  0  0
 21 22  1  0  0  0  0
 21 28  1  0  0  0  0
 21 29  1  0  0  0  0
 22 23  1  0  0  0  0
 22 30  1  0  0  0  0
 22 31  1  0  0  0  0
 23 24  1  0  0  0  0
 23 25  2  0  0  0  0
 32 33  1  0  0  0  0
 32 37  1  0  0  0  0
 33 34  1  0  0  0  0
 33 36  1  0  0  0  0
 33 38  1  0  0  0  0
 34 35  2  0  0  0  0
 34 42  1  0  0  0  0
 36 39  1  0  0  0  0
 36 40  1  0  0  0  0
 36 41  1  0  0  0  0
 42 43  1  0  0  0  0
 42 44  1  0  0  0  0
 43 45  1  0  0  0  0
 43 46  1  0  0  0  0
 43 47  1  0  0  0  0
M  CHG  1  24  -1
M  END
$$$$

  -OEChem-05262216243D

 47 46  0     1  0  0  0  0  0999 V2000
    0.5093   -3.3529    1.7971 C   0  0  0  0  0  0  0  0  0  0  0  0
    1.6539   -2.9169    1.7433 O   0  0  0  0  0  0  0  0  0  0  0  0
   -0.3500   -3.0977    3.0214 C   0  0  0  0  0  0  0  0  0  0  0  0
   -0.7886   -4.0354    3.3710 H   0  0  0  0  0  0  0  0  0  0  0  0
    0.2524   -2.6668    3.8255 H   0  0  0  0  0  0  0  0  0  0  0  0
   -1.1591   -2.4047    2.7762 H   0  0  0  0  0  0  0  0  0  0  0  0
   -0.0108   -4.0086    0.7014 N   0  0  0  0  0  0  0  0  0  0  0  0
    0.7315   -4.2367   -0.5578 C   0  0  2  0  0  0  0  0  0  0  0  0
    0.8102   -2.9681   -1.4478 C   0  0  0  0  0  0  0  0  0  0  0  0
    0.4746   -2.9640   -2.6259 O   0  0  0  0  0  0  0  0  0  0  0  0
    0.0564   -5.4155   -1.2698 C   0  0  0  0  0  0  0  0  0  0  0  0
   -1.0353   -4.0464    0.6729 H   0  0  0  0  0  0  0  0  0  0  0  0
    1.7605   -4.5289   -0.3256 H   0  0  0  0  0  0  0  0  0  0  0  0
   -0.9734   -5.1604   -1.5413 H   0  0  0  0  0  0  0  0  0  0  0  0
    0.6019   -5.6719   -2.1835 H   0  0  0  0  0  0  0  0  0  0  0  0
    0.0388   -6.2947   -0.6187 H   0  0  0  0  0  0  0  0  0  0  0  0
    1.2018   -1.7828   -0.8659 N   0  0  0  0  0  0  0  0  0  0  0  0
    0.3942   -0.5437   -0.9399 C   0  0  2  0  0  0  0  0  0  0  0  0
    1.0986    0.6175   -0.1999 C   0  0  0  0  0  0  0  0  0  0  0  0
    0.7250    1.7737   -0.3582 O   0  0  0  0  0  0  0  0  0  0  0  0
   -0.9595   -0.7394   -0.1999 C   0  0  0  0  0  0  0  0  0  0  0  0
   -1.9710   -1.7318   -0.8093 C   0  0  0  0  0  0  0  0  0  0  0  0
   -3.2091   -1.8108    0.0708 C   0  0  0  0  0  0  0  0  0  0  0  0
   -3.1494   -2.6833    0.9794 O   0  5  0  0  0  0  0  0  0  0  0  0
   -4.1547   -1.0057   -0.0973 O   0  0  0  0  0  0  0  0  0  0  0  0
    1.5418   -1.9791    0.0775 H   0  0  0  0  0  0  0  0  0  0  0  0
    0.2247   -0.2591   -1.9834 H   0  0  0  0  0  0  0  0  0  0  0  0
   -1.4659    0.2323   -0.1541 H   0  0  0  0  0  0  0  0  0  0  0  0
   -0.7556   -1.0354    0.8324 H   0  0  0  0  0  0  0  0  0  0  0  0
   -2.2545   -1.3908   -1.8093 H   0  0  0  0  0  0  0  0  0  0  0  0
   -1.5852   -2.7391   -0.9105 H   0  0  0  0  0  0  0  0  0  0  0  0
    2.1479    0.3805    0.6735 N   0  0  0  0  0  0  0  0  0  0  0  0
    2.8644    1.4138    1.4300 C   0  0  2  0  0  0  0  0  0  0  0  0
    4.3952    1.2237    1.3967 C   0  0  0  0  0  0  0  0  0  0  0  0
    4.8930    0.1303    1.1528 O   0  0  0  0  0  0  0  0  0  0  0  0
    2.3459    1.3684    2.8689 C   0  0  0  0  0  0  0  0  0  0  0  0
    2.5193   -0.5671    0.7144 H   0  0  0  0  0  0  0  0  0  0  0  0
    2.6566    2.4022    1.0085 H   0  0  0  0  0  0  0  0  0  0  0  0
    2.5446    0.3890    3.3161 H   0  0  0  0  0  0  0  0  0  0  0  0
    2.8319    2.1364    3.4774 H   0  0  0  0  0  0  0  0  0  0  0  0
    1.2657    1.5459    2.8859 H   0  0  0  0  0  0  0  0  0  0  0  0
    5.2272    2.2979    1.6583 N   0  0  0  0  0  0  0  0  0  0  0  0
    6.6807    2.2200    1.5903 C   0  0  0  0  0  0  0  0  0  0  0  0
    4.7875    3.2026    1.7986 H   0  0  0  0  0  0  0  0  0  0  0  0
    7.0545    1.4249    2.2440 H   0  0  0  0  0  0  0  0  0  0  0  0
    7.0040    2.0143    0.5645 H   0  0  0  0  0  0  0  0  0  0  0  0
    7.1248    3.1666    1.9124 H   0  0  0  0  0  0  0  0  0  0  0  0
  1  2  2  0  0  0  0
  1  3  1  0  0  0  0
  1  7  1  0  0  0  0
  3  4  1  0  0  0  0
  3  5  1  0  0  0  0
  3  6  1  0  0  0  0
  7  8  1  0  0  0  0
  7 12  1  0  0  0  0
  8  9  1  0  0  0  0
  8 11  1  0  0  0  0
  8 13  1  0  0  0  0
  9 10  2  0  0  0  0
  9 17  1  0  0  0  0
 11 14  1  0  0  0  0
 11 15  1  0  0  0  0
 11 16  1  0  0  0  0
 17 18  1  0  0  0  0
 17 26  1  0  0  0  0
 18 19  1  0  0  0  0
 18 21  1  0  0  0  0
 18 27  1  0  0  0  0
 19 20  2  0  0  0  0
 19 32  1  0  0  0  0
 21 22  1  0  0  0  0
 21 28  1  0  0  0  0
 21 29  1  0  0  0  0
 22 23  1  0  0  0  0
 22 30  1  0  0  0  0
 22 31  1  0  0  0  0
 23 24  1  0  0  0  0
 23 25  2  0  0  0  0
 32 33  1  0  0  0  0
 32 37  1  0  0  0  0
 33 34  1  0  0  0  0
 33 36  1  0  0  0  0
 33 38  1  0  0  0  0
 34 35  2  0  0  0  0
 34 42  1  0  0  0  0
 36 39  1  0  0  0  0
 36 40  1  0  0  0  0
 36 41  1  0  0  0  0
 42 43  1  0  0  0  0
 42 44  1  0  0  0  0
 43 45  1  0  0  0  0
 43 46  1  0  0  0  0
 43 47  1  0  0  0  0
M  CHG  1  24  -1
M  END
$$$$

  -OEChem-05262216243D

 47 46  0     1  0  0  0  0  0999 V2000
    0.5530   -3.4007    1.8405 C   0  0  0  0  0  0  0  0  0  0  0  0
    1.7078   -3.0000    1.7511 O   0  0  0  0  0  0  0  0  0  0  0  0
   -0.2729   -3.0966    3.0762 C   0  0  0  0  0  0  0  0  0  0  0  0
   -0.6635   -4.0245    3.5006 H   0  0  0  0  0  0  0  0  0  0  0  0
    0.3390   -2.5920    3.8280 H   0  0  0  0  0  0  0  0  0  0  0  0
   -1.1155   -2.4507    2.8166 H   0  0  0  0  0  0  0  0  0  0  0  0
   -0.0066   -4.0694    0.7735 N   0  0  0  0  0  0  0  0  0  0  0  0
    0.7029   -4.3368   -0.4960 C   0  0  2  0  0  0  0  0  0  0  0  0
    0.7702   -3.0921   -1.4205 C   0  0  0  0  0  0  0  0  0  0  0  0
    0.4249   -3.1231   -2.5954 O   0  0  0  0  0  0  0  0  0  0  0  0
   -0.0002   -5.5277   -1.1586 C   0  0  0  0  0  0  0  0  0  0  0  0
   -1.0325   -4.0915    0.7708 H   0  0  0  0  0  0  0  0  0  0  0  0
    1.7349   -4.6328   -0.2816 H   0  0  0  0  0  0  0  0  0  0  0  0
   -1.0374   -5.2745   -1.4023 H   0  0  0  0  0  0  0  0  0  0  0  0
    0.5146   -5.8078   -2.0827 H   0  0  0  0  0  0  0  0  0  0  0  0
   -0.0002   -6.3914   -0.4871 H   0  0  0  0  0  0  0  0  0  0  0  0
    1.1724   -1.8867   -0.8872 N   0  0  0  0  0  0  0  0  0  0  0  0
    0.3506   -0.6558   -0.9753 C   0  0  2  0  0  0  0  0  0  0  0  0
    1.0782    0.5288   -0.2918 C   0  0  0  0  0  0  0  0  0  0  0  0
    0.5728    1.6442   -0.2447 O   0  0  0  0  0  0  0  0  0  0  0  0
   -0.9896   -0.8483   -0.2058 C   0  0  0  0  0  0  0  0  0  0  0  0
   -2.0036   -1.8643   -0.7732 C   0  0  0  0  0  0  0  0  0  0  0  0
   -3.2249   -1.9356    0.1309 C   0  0  0  0  0  0  0  0  0  0  0  0
   -3.1331   -2.7780    1.0650 O   0  5  0  0  0  0  0  0  0  0  0  0
   -4.1935   -1.1614   -0.0525 O   0  0  0  0  0  0  0  0  0  0  0  0
    1.5301   -2.0500    0.0575 H   0  0  0  0  0  0  0  0  0  0  0  0
    0.1565   -0.4015   -2.0224 H   0  0  0  0  0  0  0  0  0  0  0  0
   -1.5083    0.1170   -0.1740 H   0  0  0  0  0  0  0  0  0  0  0  0
   -0.7636   -1.1167    0.8296 H   0  0  0  0  0  0  0  0  0  0  0  0
   -2.3081   -1.5487   -1.7751 H   0  0  0  0  0  0  0  0  0  0  0  0
   -1.6129   -2.8708   -0.8594 H   0  0  0  0  0  0  0  0  0  0  0  0
    2.3219    0.3536    0.2913 N   0  0  0  0  0  0  0  0  0  0  0  0
    3.0956    1.4065    0.9604 C   0  0  2  0  0  0  0  0  0  0  0  0
    4.6012    1.3409    0.6299 C   0  0  0  0  0  0  0  0  0  0  0  0
    5.1146    0.3025    0.2278 O   0  0  0  0  0  0  0  0  0  0  0  0
    2.8706    1.2578    2.4669 C   0  0  0  0  0  0  0  0  0  0  0  0
    2.7964   -0.5284    0.1046 H   0  0  0  0  0  0  0  0  0  0  0  0
    2.7417    2.3921    0.6414 H   0  0  0  0  0  0  0  0  0  0  0  0
    3.2181    0.2778    2.8101 H   0  0  0  0  0  0  0  0  0  0  0  0
    3.4131    2.0335    3.0153 H   0  0  0  0  0  0  0  0  0  0  0  0
    1.8049    1.3502    2.6995 H   0  0  0  0  0  0  0  0  0  0  0  0
    5.3928    2.4637    0.7973 N   0  0  0  0  0  0  0  0  0  0  0  0
    6.8135    2.4983    0.4764 C   0  0  0  0  0  0  0  0  0  0  0  0
    4.9312    3.3203    1.0884 H   0  0  0  0  0  0  0  0  0  0  0  0
    7.3575    1.7524    1.0651 H   0  0  0  0  0  0  0  0  0  0  0  0
    6.9701    2.2919   -0.5875 H   0  0  0  0  0  0  0  0  0  0  0  0
    7.2279    3.4852    0.7025 H   0  0  0  0  0  0  0  0  0  0  0  0
  1  2  2  0  0  0  0
  1  3  1  0  0  0  0
  1  7  1  0  0  0  0
  3  4  1  0  0  0  0
  3  5  1  0  0  0  0
  3  6  1  0  0  0  0
  7  8  1  0  0  0  0
  7 12  1  0  0  0  0
  8  9  1  0  0  0  0
  8 11  1  0  0  0  0
  8 13  1  0  0  0  0
  9 10  2  0  0  0  0
  9 17  1  0  0  0  0
 11 14  1  0  0  0  0
 11 15  1  0  0  0  0
 11 16  1  0  0  0  0
 17 18  1  0  0  0  0
 17 26  1  0  0  0  0
 18 19  1  0  0  0  0
 18 21  1  0  0  0  0
 18 27  1  0  0  0  0
 19 20  2  0  0  0  0
 19 32  1  0  0  0  0
 21 22  1  0  0  0  0
 21 28  1  0  0  0  0
 21 29  1  0  0  0  0
 22 23  1  0  0  0  0
 22 30  1  0  0  0  0
 22 31  1  0  0  0  0
 23 24  1  0  0  0  0
 23 25  2  0  0  0  0
 32 33  1  0  0  0  0
 32 37  1  0  0  0  0
 33 34  1  0  0  0  0
 33 36  1  0  0  0  0
 33 38  1  0  0  0  0
 34 35  2  0  0  0  0
 34 42  1  0  0  0  0
 36 39  1  0  0  0  0
 36 40  1  0  0  0  0
 36 41  1  0  0  0  0
 42 43  1  0  0  0  0
 42 44  1  0  0  0  0
 43 45  1  0  0  0  0
 43 46  1  0  0  0  0
 43 47  1  0  0  0  0
M  CHG  1  24  -1
M  END
$$$$

  -OEChem-05262216243D

 47 46  0     1  0  0  0  0  0999 V2000
    0.6264   -3.3441    1.8567 C   0  0  0  0  0  0  0  0  0  0  0  0
    1.7849   -2.9706    1.7141 O   0  0  0  0  0  0  0  0  0  0  0  0
   -0.1538   -2.9616    3.1006 C   0  0  0  0  0  0  0  0  0  0  0  0
   -1.0597   -2.4157    2.8245 H   0  0  0  0  0  0  0  0  0  0  0  0
   -0.4411   -3.8602    3.6514 H   0  0  0  0  0  0  0  0  0  0  0  0
    0.4539   -2.3256    3.7492 H   0  0  0  0  0  0  0  0  0  0  0  0
    0.0227   -4.0504    0.8387 N   0  0  0  0  0  0  0  0  0  0  0  0
    0.6892   -4.3789   -0.4400 C   0  0  2  0  0  0  0  0  0  0  0  0
    0.7332   -3.1770   -1.4210 C   0  0  0  0  0  0  0  0  0  0  0  0
    0.3664   -3.2618   -2.5867 O   0  0  0  0  0  0  0  0  0  0  0  0
   -0.0410   -5.5928   -1.0269 C   0  0  0  0  0  0  0  0  0  0  0  0
   -1.0036   -4.0598    0.8687 H   0  0  0  0  0  0  0  0  0  0  0  0
    1.7258   -4.6725   -0.2463 H   0  0  0  0  0  0  0  0  0  0  0  0
   -1.0821   -5.3415   -1.2544 H   0  0  0  0  0  0  0  0  0  0  0  0
    0.4461   -5.9203   -1.9505 H   0  0  0  0  0  0  0  0  0  0  0  0
   -0.0299   -6.4244   -0.3162 H   0  0  0  0  0  0  0  0  0  0  0  0
    1.1342   -1.9448   -0.9520 N   0  0  0  0  0  0  0  0  0  0  0  0
    0.2917   -0.7288   -1.0574 C   0  0  2  0  0  0  0  0  0  0  0  0
    1.0521    0.4739   -0.4406 C   0  0  0  0  0  0  0  0  0  0  0  0
    0.4919    1.5224   -0.1427 O   0  0  0  0  0  0  0  0  0  0  0  0
   -1.0303   -0.9146   -0.2530 C   0  0  0  0  0  0  0  0  0  0  0  0
   -2.0422   -1.9607   -0.7684 C   0  0  0  0  0  0  0  0  0  0  0  0
   -3.2436   -2.0215    0.1618 C   0  0  0  0  0  0  0  0  0  0  0  0
   -3.1100   -2.8174    1.1310 O   0  5  0  0  0  0  0  0  0  0  0  0
   -4.2416   -1.2915   -0.0436 O   0  0  0  0  0  0  0  0  0  0  0  0
    1.5359   -2.0586   -0.0170 H   0  0  0  0  0  0  0  0  0  0  0  0
    0.0683   -0.5102   -2.1065 H   0  0  0  0  0  0  0  0  0  0  0  0
   -1.5637    0.0429   -0.2407 H   0  0  0  0  0  0  0  0  0  0  0  0
   -0.7781   -1.1470    0.7847 H   0  0  0  0  0  0  0  0  0  0  0  0
   -2.3712   -1.6803   -1.7731 H   0  0  0  0  0  0  0  0  0  0  0  0
   -1.6405   -2.9645   -0.8311 H   0  0  0  0  0  0  0  0  0  0  0  0
    2.4109    0.3774   -0.1956 N   0  0  0  0  0  0  0  0  0  0  0  0
    3.2306    1.4095    0.4491 C   0  0  2  0  0  0  0  0  0  0  0  0
    4.6621    1.4767   -0.1216 C   0  0  0  0  0  0  0  0  0  0  0  0
    5.1637    0.5100   -0.6852 O   0  0  0  0  0  0  0  0  0  0  0  0
    3.2673    1.1037    1.9489 C   0  0  0  0  0  0  0  0  0  0  0  0
    2.8840   -0.4516   -0.5533 H   0  0  0  0  0  0  0  0  0  0  0  0
    2.7761    2.3932    0.2933 H   0  0  0  0  0  0  0  0  0  0  0  0
    3.7194    0.1224    2.1277 H   0  0  0  0  0  0  0  0  0  0  0  0
    3.8507    1.8602    2.4817 H   0  0  0  0  0  0  0  0  0  0  0  0
    2.2520    1.0981    2.3584 H   0  0  0  0  0  0  0  0  0  0  0  0
    5.4031    2.6374    0.0150 N   0  0  0  0  0  0  0  0  0  0  0  0
    6.7543    2.7938   -0.5069 C   0  0  0  0  0  0  0  0  0  0  0  0
    4.9493    3.4308    0.4581 H   0  0  0  0  0  0  0  0  0  0  0  0
    7.4354    2.0865   -0.0226 H   0  0  0  0  0  0  0  0  0  0  0  0
    6.7712    2.6170   -1.5873 H   0  0  0  0  0  0  0  0  0  0  0  0
    7.1167    3.8086   -0.3174 H   0  0  0  0  0  0  0  0  0  0  0  0
  1  2  2  0  0  0  0
  1  3  1  0  0  0  0
  1  7  1  0  0  0  0
  3  4  1  0  0  0  0
  3  5  1  0  0  0  0
  3  6  1  0  0  0  0
  7  8  1  0  0  0  0
  7 12  1  0  0  0  0
  8  9  1  0  0  0  0
  8 11  1  0  0  0  0
  8 13  1  0  0  0  0
  9 10  2  0  0  0  0
  9 17  1  0  0  0  0
 11 14  1  0  0  0  0
 11 15  1  0  0  0  0
 11 16  1  0  0  0  0
 17 18  1  0  0  0  0
 17 26  1  0  0  0  0
 18 19  1  0  0  0  0
 18 21  1  0  0  0  0
 18 27  1  0  0  0  0
 19 20  2  0  0  0  0
 19 32  1  0  0  0  0
 21 22  1  0  0  0  0
 21 28  1  0  0  0  0
 21 29  1  0  0  0  0
 22 23  1  0  0  0  0
 22 30  1  0  0  0  0
 22 31  1  0  0  0  0
 23 24  1  0  0  0  0
 23 25  2  0  0  0  0
 32 33  1  0  0  0  0
 32 37  1  0  0  0  0
 33 34  1  0  0  0  0
 33 36  1  0  0  0  0
 33 38  1  0  0  0  0
 34 35  2  0  0  0  0
 34 42  1  0  0  0  0
 36 39  1  0  0  0  0
 36 40  1  0  0  0  0
 36 41  1  0  0  0  0
 42 43  1  0  0  0  0
 42 44  1  0  0  0  0
 43 45  1  0  0  0  0
 43 46  1  0  0  0  0
 43 47  1  0  0  0  0
M  CHG  1  24  -1
M  END
$$$$

  -OEChem-05262216243D

 47 46  0     1  0  0  0  0  0999 V2000
    0.4168   -3.4078    1.9594 C   0  0  0  0  0  0  0  0  0  0  0  0
    1.5918   -3.0600    1.9334 O   0  0  0  0  0  0  0  0  0  0  0  0
   -0.4776   -3.0220    3.1228 C   0  0  0  0  0  0  0  0  0  0  0  0
   -0.9292   -3.9169    3.5576 H   0  0  0  0  0  0  0  0  0  0  0  0
    0.1010   -2.5052    3.8926 H   0  0  0  0  0  0  0  0  0  0  0  0
   -1.2773   -2.3605    2.7798 H   0  0  0  0  0  0  0  0  0  0  0  0
   -0.0963   -4.1034    0.8867 N   0  0  0  0  0  0  0  0  0  0  0  0
    0.6879   -4.4509   -0.3166 C   0  0  2  0  0  0  0  0  0  0  0  0
    0.8401   -3.2593   -1.2985 C   0  0  0  0  0  0  0  0  0  0  0  0
    0.5759   -3.3511   -2.4911 O   0  0  0  0  0  0  0  0  0  0  0  0
    0.0039   -5.6634   -0.9595 C   0  0  0  0  0  0  0  0  0  0  0  0
   -1.1203   -4.0886    0.8139 H   0  0  0  0  0  0  0  0  0  0  0  0
    1.6972   -4.7536   -0.0204 H   0  0  0  0  0  0  0  0  0  0  0  0
   -1.0077   -5.4034   -1.2880 H   0  0  0  0  0  0  0  0  0  0  0  0
    0.5734   -6.0053   -1.8291 H   0  0  0  0  0  0  0  0  0  0  0  0
   -0.0630   -6.4878   -0.2433 H   0  0  0  0  0  0  0  0  0  0  0  0
    1.2353   -2.0286   -0.8198 N   0  0  0  0  0  0  0  0  0  0  0  0
    0.4258   -0.7990   -1.0031 C   0  0  2  0  0  0  0  0  0  0  0  0
    1.1755    0.3916   -0.3505 C   0  0  0  0  0  0  0  0  0  0  0  0
    0.6048    1.3770    0.1027 O   0  0  0  0  0  0  0  0  0  0  0  0
   -0.9634   -0.9473   -0.3121 C   0  0  0  0  0  0  0  0  0  0  0  0
   -1.9509   -1.9768   -0.9027 C   0  0  0  0  0  0  0  0  0  0  0  0
   -3.2277   -2.0013   -0.0775 C   0  0  0  0  0  0  0  0  0  0  0  0
   -3.2009   -2.7985    0.8994 O   0  5  0  0  0  0  0  0  0  0  0  0
   -4.1822   -1.2423   -0.3673 O   0  0  0  0  0  0  0  0  0  0  0  0
    1.5666   -2.1325    0.1437 H   0  0  0  0  0  0  0  0  0  0  0  0
    0.2908   -0.5906   -2.0692 H   0  0  0  0  0  0  0  0  0  0  0  0
   -1.4743    0.0216   -0.3535 H   0  0  0  0  0  0  0  0  0  0  0  0
   -0.8047   -1.1737    0.7453 H   0  0  0  0  0  0  0  0  0  0  0  0
   -2.1873   -1.6993   -1.9339 H   0  0  0  0  0  0  0  0  0  0  0  0
   -1.5691   -2.9899   -0.9243 H   0  0  0  0  0  0  0  0  0  0  0  0
    2.5581    0.3669   -0.3071 N   0  0  0  0  0  0  0  0  0  0  0  0
    3.4128    1.4578    0.1767 C   0  0  2  0  0  0  0  0  0  0  0  0
    4.5822    1.7503   -0.7855 C   0  0  0  0  0  0  0  0  0  0  0  0
    5.0888    0.8512   -1.4480 O   0  0  0  0  0  0  0  0  0  0  0  0
    3.9385    1.0632    1.5584 C   0  0  0  0  0  0  0  0  0  0  0  0
    3.0074   -0.4013   -0.8047 H   0  0  0  0  0  0  0  0  0  0  0  0
    2.8314    2.3805    0.2703 H   0  0  0  0  0  0  0  0  0  0  0  0
    4.5341    0.1469    1.4947 H   0  0  0  0  0  0  0  0  0  0  0  0
    4.5647    1.8593    1.9713 H   0  0  0  0  0  0  0  0  0  0  0  0
    3.1030    0.8883    2.2437 H   0  0  0  0  0  0  0  0  0  0  0  0
    5.0863    3.0344   -0.8920 N   0  0  0  0  0  0  0  0  0  0  0  0
    6.1401    3.4047   -1.8279 C   0  0  0  0  0  0  0  0  0  0  0  0
    4.5975    3.7675   -0.3865 H   0  0  0  0  0  0  0  0  0  0  0  0
    7.0396    2.8065   -1.6490 H   0  0  0  0  0  0  0  0  0  0  0  0
    5.8091    3.2454   -2.8596 H   0  0  0  0  0  0  0  0  0  0  0  0
    6.3992    4.4607   -1.7056 H   0  0  0  0  0  0  0  0  0  0  0  0
  1  2  2  0  0  0  0
  1  3  1  0  0  0  0
  1  7  1  0  0  0  0
  3  4  1  0  0  0  0
  3  5  1  0  0  0  0
  3  6  1  0  0  0  0
  7  8  1  0  0  0  0
  7 12  1  0  0  0  0
  8  9  1  0  0  0  0
  8 11  1  0  0  0  0
  8 13  1  0  0  0  0
  9 10  2  0  0  0  0
  9 17  1  0  0  0  0
 11 14  1  0  0  0  0
 11 15  1  0  0  0  0
 11 16  1  0  0  0  0
 17 18  1  0  0  0  0
 17 26  1  0  0  0  0
 18 19  1  0  0  0  0
 18 21  1  0  0  0  0
 18 27  1  0  0  0  0
 19 20  2  0  0  0  0
 19 32  1  0  0  0  0
 21 22  1  0  0  0  0
 21 28  1  0  0  0  0
 21 29  1  0  0  0  0
 22 23  1  0  0  0  0
 22 30  1  0  0  0  0
 22 31  1  0  0  0  0
 23 24  1  0  0  0  0
 23 25  2  0  0  0  0
 32 33  1  0  0  0  0
 32 37  1  0  0  0  0
 33 34  1  0  0  0  0
 33 36  1  0  0  0  0
 33 38  1  0  0  0  0
 34 35  2  0  0  0  0
 34 42  1  0  0  0  0
 36 39  1  0  0  0  0
 36 40  1  0  0  0  0
 36 41  1  0  0  0  0
 42 43  1  0  0  0  0
 42 44  1  0  0  0  0
 43 45  1  0  0  0  0
 43 46  1  0  0  0  0
 43 47  1  0  0  0  0
M  CHG  1  24  -1
M  END
$$$$

  -OEChem-05262216243D

 47 46  0     1  0  0  0  0  0999 V2000
    0.1789   -2.9536    2.0973 C   0  0  0  0  0  0  0  0  0  0  0  0
    1.3921   -2.7974    2.1784 O   0  0  0  0  0  0  0  0  0  0  0  0
   -0.7592   -2.1997    3.0213 C   0  0  0  0  0  0  0  0  0  0  0  0
   -1.3020   -2.9047    3.6553 H   0  0  0  0  0  0  0  0  0  0  0  0
   -0.1961   -1.5101    3.6558 H   0  0  0  0  0  0  0  0  0  0  0  0
   -1.4833   -1.6256    2.4368 H   0  0  0  0  0  0  0  0  0  0  0  0
   -0.3213   -3.7696    1.1058 N   0  0  0  0  0  0  0  0  0  0  0  0
    0.5250   -4.4638    0.1129 C   0  0  2  0  0  0  0  0  0  0  0  0
    1.0031   -3.5243   -1.0252 C   0  0  0  0  0  0  0  0  0  0  0  0
    0.8994   -3.8127   -2.2111 O   0  0  0  0  0  0  0  0  0  0  0  0
   -0.2793   -5.6606   -0.4079 C   0  0  0  0  0  0  0  0  0  0  0  0
   -1.3138   -3.6255    0.8858 H   0  0  0  0  0  0  0  0  0  0  0  0
    1.4213   -4.8528    0.6063 H   0  0  0  0  0  0  0  0  0  0  0  0
   -1.1806   -5.3206   -0.9284 H   0  0  0  0  0  0  0  0  0  0  0  0
    0.3233   -6.2494   -1.1065 H   0  0  0  0  0  0  0  0  0  0  0  0
   -0.5784   -6.3082    0.4217 H   0  0  0  0  0  0  0  0  0  0  0  0
    1.5353   -2.2924   -0.7124 N   0  0  0  0  0  0  0  0  0  0  0  0
    0.9674   -1.0249   -1.2286 C   0  0  2  0  0  0  0  0  0  0  0  0
    1.8285    0.1374   -0.6768 C   0  0  0  0  0  0  0  0  0  0  0  0
    1.3692    1.1787   -0.2203 O   0  0  0  0  0  0  0  0  0  0  0  0
   -0.5047   -0.8333   -0.7591 C   0  0  0  0  0  0  0  0  0  0  0  0
   -1.5614   -1.8091   -1.3172 C   0  0  0  0  0  0  0  0  0  0  0  0
   -2.9225   -1.4875   -0.7212 C   0  0  0  0  0  0  0  0  0  0  0  0
   -3.1667   -2.0742    0.3678 O   0  5  0  0  0  0  0  0  0  0  0  0
   -3.6779   -0.6620   -1.2861 O   0  0  0  0  0  0  0  0  0  0  0  0
    1.7135   -2.2526    0.2958 H   0  0  0  0  0  0  0  0  0  0  0  0
    1.0084   -1.0099   -2.3224 H   0  0  0  0  0  0  0  0  0  0  0  0
   -0.8289    0.1722   -1.0522 H   0  0  0  0  0  0  0  0  0  0  0  0
   -0.5324   -0.8673    0.3333 H   0  0  0  0  0  0  0  0  0  0  0  0
   -1.6052   -1.7121   -2.4057 H   0  0  0  0  0  0  0  0  0  0  0  0
   -1.3561   -2.8494   -1.0958 H   0  0  0  0  0  0  0  0  0  0  0  0
    3.2042    0.0072   -0.7216 N   0  0  0  0  0  0  0  0  0  0  0  0
    4.1541    0.9271   -0.0780 C   0  0  2  0  0  0  0  0  0  0  0  0
    4.4164    2.2090   -0.9089 C   0  0  0  0  0  0  0  0  0  0  0  0
    5.5511    2.5608   -1.2168 O   0  0  0  0  0  0  0  0  0  0  0  0
    5.4295    0.1244    0.2054 C   0  0  0  0  0  0  0  0  0  0  0  0
    3.5504   -0.8779   -1.0835 H   0  0  0  0  0  0  0  0  0  0  0  0
    3.7438    1.2502    0.8849 H   0  0  0  0  0  0  0  0  0  0  0  0
    5.8885   -0.2117   -0.7298 H   0  0  0  0  0  0  0  0  0  0  0  0
    6.1539    0.7413    0.7462 H   0  0  0  0  0  0  0  0  0  0  0  0
    5.1987   -0.7522    0.8186 H   0  0  0  0  0  0  0  0  0  0  0  0
    3.3468    2.9967   -1.2860 N   0  0  0  0  0  0  0  0  0  0  0  0
    3.4582    4.2239   -2.0597 C   0  0  0  0  0  0  0  0  0  0  0  0
    2.4211    2.6609   -1.0025 H   0  0  0  0  0  0  0  0  0  0  0  0
    4.0455    4.9682   -1.5127 H   0  0  0  0  0  0  0  0  0  0  0  0
    3.9420    4.0271   -3.0216 H   0  0  0  0  0  0  0  0  0  0  0  0
    2.4637    4.6381   -2.2508 H   0  0  0  0  0  0  0  0  0  0  0  0
  1  2  2  0  0  0  0
  1  3  1  0  0  0  0
  1  7  1  0  0  0  0
  3  4  1  0  0  0  0
  3  5  1  0  0  0  0
  3  6  1  0  0  0  0
  7  8  1  0  0  0  0
  7 12  1  0  0  0  0
  8  9  1  0  0  0  0
  8 11  1  0  0  0  0
  8 13  1  0  0  0  0
  9 10  2  0  0  0  0
  9 17  1  0  0  0  0
 11 14  1  0  0  0  0
 11 15  1  0  0  0  0
 11 16  1  0  0  0  0
 17 18  1  0  0  0  0
 17 26  1  0  0  0  0
 18 19  1  0  0  0  0
 18 21  1  0  0  0  0
 18 27  1  0  0  0  0
 19 20  2  0  0  0  0
 19 32  1  0  0  0  0
 21 22  1  0  0  0  0
 21 28  1  0  0  0  0
 21 29  1  0  0  0  0
 22 23  1  0  0  0  0
 22 30  1  0  0  0  0
 22 31  1  0  0  0  0
 23 24  1  0  0  0  0
 23 25  2  0  0  0  0
 32 33  1  0  0  0  0
 32 37  1  0  0  0  0
 33 34  1  0  0  0  0
 33 36  1  0  0  0  0
 33 38  1  0  0  0  0
 34 35  2  0  0  0  0
 34 42  1  0  0  0  0
 36 39  1  0  0  0  0
 36 40  1  0  0  0  0
 36 41  1  0  0  0  0
 42 43  1  0  0  0  0
 42 44  1  0  0  0  0
 43 45  1  0  0  0  0
 43 46  1  0  0  0  0
 43 47  1  0  0  0  0
M  CHG  1  24  -1
M  END
$$$$

  -OEChem-05262216243D

 47 46  0     1  0  0  0  0  0999 V2000
    0.5738   -3.2949    1.9357 C   0  0  0  0  0  0  0  0  0  0  0  0
    1.7534   -2.9750    1.8487 O   0  0  0  0  0  0  0  0  0  0  0  0
   -0.2722   -2.7790    3.0843 C   0  0  0  0  0  0  0  0  0  0  0  0
   -1.2893   -3.1756    3.0171 H   0  0  0  0  0  0  0  0  0  0  0  0
    0.1634   -3.0880    4.0372 H   0  0  0  0  0  0  0  0  0  0  0  0
   -0.3232   -1.6877    3.0487 H   0  0  0  0  0  0  0  0  0  0  0  0
    0.0137   -4.0561    0.9324 N   0  0  0  0  0  0  0  0  0  0  0  0
    0.7475   -4.4648   -0.2831 C   0  0  2  0  0  0  0  0  0  0  0  0
    0.8300   -3.3263   -1.3334 C   0  0  0  0  0  0  0  0  0  0  0  0
    0.5106   -3.4866   -2.5055 O   0  0  0  0  0  0  0  0  0  0  0  0
    0.0592   -5.7228   -0.8261 C   0  0  0  0  0  0  0  0  0  0  0  0
   -1.0125   -4.0370    0.8979 H   0  0  0  0  0  0  0  0  0  0  0  0
    1.7749   -4.7341   -0.0180 H   0  0  0  0  0  0  0  0  0  0  0  0
   -0.9680   -5.4977   -1.1313 H   0  0  0  0  0  0  0  0  0  0  0  0
    0.6023   -6.1081   -1.6945 H   0  0  0  0  0  0  0  0  0  0  0  0
    0.0324   -6.5033   -0.0599 H   0  0  0  0  0  0  0  0  0  0  0  0
    1.2102   -2.0613   -0.9396 N   0  0  0  0  0  0  0  0  0  0  0  0
    0.3487   -0.8743   -1.1383 C   0  0  2  0  0  0  0  0  0  0  0  0
    1.1001    0.3626   -0.5876 C   0  0  0  0  0  0  0  0  0  0  0  0
    0.6785    1.0661    0.3239 O   0  0  0  0  0  0  0  0  0  0  0  0
   -1.0097   -1.0228   -0.3911 C   0  0  0  0  0  0  0  0  0  0  0  0
   -1.9892   -2.1032   -0.8955 C   0  0  0  0  0  0  0  0  0  0  0  0
   -3.2327   -2.1144   -0.0208 C   0  0  0  0  0  0  0  0  0  0  0  0
   -3.1485   -2.8559    0.9957 O   0  5  0  0  0  0  0  0  0  0  0  0
   -4.2163   -1.3942   -0.3140 O   0  0  0  0  0  0  0  0  0  0  0  0
    1.6033   -2.1007    0.0052 H   0  0  0  0  0  0  0  0  0  0  0  0
    0.1578   -0.7249   -2.2056 H   0  0  0  0  0  0  0  0  0  0  0  0
   -1.5396   -0.0654   -0.4582 H   0  0  0  0  0  0  0  0  0  0  0  0
   -0.8103   -1.1985    0.6693 H   0  0  0  0  0  0  0  0  0  0  0  0
   -2.2693   -1.8845   -1.9301 H   0  0  0  0  0  0  0  0  0  0  0  0
   -1.5797   -3.1060   -0.8796 H   0  0  0  0  0  0  0  0  0  0  0  0
    2.3227    0.6906   -1.1426 N   0  0  0  0  0  0  0  0  0  0  0  0
    3.1322    1.8555   -0.7657 C   0  0  2  0  0  0  0  0  0  0  0  0
    3.9453    2.4110   -1.9526 C   0  0  0  0  0  0  0  0  0  0  0  0
    4.2621    1.6868   -2.8902 O   0  0  0  0  0  0  0  0  0  0  0  0
    4.0657    1.4472    0.3774 C   0  0  0  0  0  0  0  0  0  0  0  0
    2.6503    0.1114   -1.9151 H   0  0  0  0  0  0  0  0  0  0  0  0
    2.4743    2.6597   -0.4202 H   0  0  0  0  0  0  0  0  0  0  0  0
    4.7324    0.6399    0.0575 H   0  0  0  0  0  0  0  0  0  0  0  0
    4.6749    2.2975    0.6979 H   0  0  0  0  0  0  0  0  0  0  0  0
    3.4818    1.0978    1.2349 H   0  0  0  0  0  0  0  0  0  0  0  0
    4.3289    3.7403   -1.9662 N   0  0  0  0  0  0  0  0  0  0  0  0
    5.0321    4.3579   -3.0828 C   0  0  0  0  0  0  0  0  0  0  0  0
    3.9964    4.3283   -1.2075 H   0  0  0  0  0  0  0  0  0  0  0  0
    5.9770    3.8391   -3.2755 H   0  0  0  0  0  0  0  0  0  0  0  0
    4.4176    4.3212   -3.9884 H   0  0  0  0  0  0  0  0  0  0  0  0
    5.2538    5.4049   -2.8561 H   0  0  0  0  0  0  0  0  0  0  0  0
  1  2  2  0  0  0  0
  1  3  1  0  0  0  0
  1  7  1  0  0  0  0
  3  4  1  0  0  0  0
  3  5  1  0  0  0  0
  3  6  1  0  0  0  0
  7  8  1  0  0  0  0
  7 12  1  0  0  0  0
  8  9  1  0  0  0  0
  8 11  1  0  0  0  0
  8 13  1  0  0  0  0
  9 10  2  0  0  0  0
  9 17  1  0  0  0  0
 11 14  1  0  0  0  0
 11 15  1  0  0  0  0
 11 16  1  0  0  0  0
 17 18  1  0  0  0  0
 17 26  1  0  0  0  0
 18 19  1  0  0  0  0
 18 21  1  0  0  0  0
 18 27  1  0  0  0  0
 19 20  2  0  0  0  0
 19 32  1  0  0  0  0
 21 22  1  0  0  0  0
 21 28  1  0  0  0  0
 21 29  1  0  0  0  0
 22 23  1  0  0  0  0
 22 30  1  0  0  0  0
 22 31  1  0  0  0  0
 23 24  1  0  0  0  0
 23 25  2  0  0  0  0
 32 33  1  0  0  0  0
 32 37  1  0  0  0  0
 33 34  1  0  0  0  0
 33 36  1  0  0  0  0
 33 38  1  0  0  0  0
 34 35  2  0  0  0  0
 34 42  1  0  0  0  0
 36 39  1  0  0  0  0
 36 40  1  0  0  0  0
 36 41  1  0  0  0  0
 42 43  1  0  0  0  0
 42 44  1  0  0  0  0
 43 45  1  0  0  0  0
 43 46  1  0  0  0  0
 43 47  1  0  0  0  0
M  CHG  1  24  -1
M  END
$$$$

  -OEChem-05262216243D

 47 46  0     1  0  0  0  0  0999 V2000
    0.6153   -3.1910    1.9594 C   0  0  0  0  0  0  0  0  0  0  0  0
    1.8003   -2.8918    1.8740 O   0  0  0  0  0  0  0  0  0  0  0  0
   -0.2424   -2.6302    3.0783 C   0  0  0  0  0  0  0  0  0  0  0  0
   -1.1918   -2.2634    2.6788 H   0  0  0  0  0  0  0  0  0  0  0  0
   -0.4499   -3.4100    3.8144 H   0  0  0  0  0  0  0  0  0  0  0  0
    0.2719   -1.8002    3.5699 H   0  0  0  0  0  0  0  0  0  0  0  0
    0.0583   -3.9900    0.9840 N   0  0  0  0  0  0  0  0  0  0  0  0
    0.7993   -4.4559   -0.2065 C   0  0  2  0  0  0  0  0  0  0  0  0
    0.9023   -3.3630   -1.3025 C   0  0  0  0  0  0  0  0  0  0  0  0
    0.6135   -3.5763   -2.4744 O   0  0  0  0  0  0  0  0  0  0  0  0
    0.1024   -5.7301   -0.6998 C   0  0  0  0  0  0  0  0  0  0  0  0
   -0.9674   -3.9729    0.9426 H   0  0  0  0  0  0  0  0  0  0  0  0
    1.8219   -4.7234    0.0776 H   0  0  0  0  0  0  0  0  0  0  0  0
   -0.9249   -5.5121   -1.0096 H   0  0  0  0  0  0  0  0  0  0  0  0
    0.6398   -6.1519   -1.5547 H   0  0  0  0  0  0  0  0  0  0  0  0
    0.0743   -6.4807    0.0958 H   0  0  0  0  0  0  0  0  0  0  0  0
    1.2565   -2.0775   -0.9523 N   0  0  0  0  0  0  0  0  0  0  0  0
    0.3848   -0.9149   -1.2246 C   0  0  2  0  0  0  0  0  0  0  0  0
    1.0959    0.3586   -0.7102 C   0  0  0  0  0  0  0  0  0  0  0  0
    0.8042    0.9087    0.3462 O   0  0  0  0  0  0  0  0  0  0  0  0
   -0.9933   -1.0402   -0.5119 C   0  0  0  0  0  0  0  0  0  0  0  0
   -1.9462   -2.1517   -0.9960 C   0  0  0  0  0  0  0  0  0  0  0  0
   -3.2180   -2.1373   -0.1626 C   0  0  0  0  0  0  0  0  0  0  0  0
   -3.1686   -2.8384    0.8840 O   0  5  0  0  0  0  0  0  0  0  0  0
   -4.1898   -1.4271   -0.5146 O   0  0  0  0  0  0  0  0  0  0  0  0
    1.6300   -2.0674    0.0013 H   0  0  0  0  0  0  0  0  0  0  0  0
    0.2197   -0.8179   -2.3021 H   0  0  0  0  0  0  0  0  0  0  0  0
   -1.5252   -0.0896   -0.6334 H   0  0  0  0  0  0  0  0  0  0  0  0
   -0.8243   -1.1720    0.5603 H   0  0  0  0  0  0  0  0  0  0  0  0
   -2.1946   -1.9843   -2.0479 H   0  0  0  0  0  0  0  0  0  0  0  0
   -1.5261   -3.1475   -0.9182 H   0  0  0  0  0  0  0  0  0  0  0  0
    2.1541    0.8715   -1.4364 N   0  0  0  0  0  0  0  0  0  0  0  0
    2.9180    2.0695   -1.0682 C   0  0  2  0  0  0  0  0  0  0  0  0
    3.4263    2.8443   -2.3006 C   0  0  0  0  0  0  0  0  0  0  0  0
    3.6498    2.2653   -3.3583 O   0  0  0  0  0  0  0  0  0  0  0  0
    4.0917    1.6400   -0.1839 C   0  0  0  0  0  0  0  0  0  0  0  0
    2.3890    0.4056   -2.3118 H   0  0  0  0  0  0  0  0  0  0  0  0
    2.2755    2.7511   -0.5013 H   0  0  0  0  0  0  0  0  0  0  0  0
    4.7539    0.9607   -0.7302 H   0  0  0  0  0  0  0  0  0  0  0  0
    4.6700    2.5123    0.1346 H   0  0  0  0  0  0  0  0  0  0  0  0
    3.7240    1.1244    0.7093 H   0  0  0  0  0  0  0  0  0  0  0  0
    3.6411    4.2086   -2.2176 N   0  0  0  0  0  0  0  0  0  0  0  0
    4.0431    5.0254   -3.3551 C   0  0  0  0  0  0  0  0  0  0  0  0
    3.3816    4.6679   -1.3494 H   0  0  0  0  0  0  0  0  0  0  0  0
    4.9902    4.6650   -3.7699 H   0  0  0  0  0  0  0  0  0  0  0  0
    3.2786    4.9924   -4.1384 H   0  0  0  0  0  0  0  0  0  0  0  0
    4.1764    6.0660   -3.0446 H   0  0  0  0  0  0  0  0  0  0  0  0
  1  2  2  0  0  0  0
  1  3  1  0  0  0  0
  1  7  1  0  0  0  0
  3  4  1  0  0  0  0
  3  5  1  0  0  0  0
  3  6  1  0  0  0  0
  7  8  1  0  0  0  0
  7 12  1  0  0  0  0
  8  9  1  0  0  0  0
  8 11  1  0  0  0  0
  8 13  1  0  0  0  0
  9 10  2  0  0  0  0
  9 17  1  0  0  0  0
 11 14  1  0  0  0  0
 11 15  1  0  0  0  0
 11 16  1  0  0  0  0
 17 18  1  0  0  0  0
 17 26  1  0  0  0  0
 18 19  1  0  0  0  0
 18 21  1  0  0  0  0
 18 27  1  0  0  0  0
 19 20  2  0  0  0  0
 19 32  1  0  0  0  0
 21 22  1  0  0  0  0
 21 28  1  0  0  0  0
 21 29  1  0  0  0  0
 22 23  1  0  0  0  0
 22 30  1  0  0  0  0
 22 31  1  0  0  0  0
 23 24  1  0  0  0  0
 23 25  2  0  0  0  0
 32 33  1  0  0  0  0
 32 37  1  0  0  0  0
 33 34  1  0  0  0  0
 33 36  1  0  0  0  0
 33 38  1  0  0  0  0
 34 35  2  0  0  0  0
 34 42  1  0  0  0  0
 36 39  1  0  0  0  0
 36 40  1  0  0  0  0
 36 41  1  0  0  0  0
 42 43  1  0  0  0  0
 42 44  1  0  0  0  0
 43 45  1  0  0  0  0
 43 46  1  0  0  0  0
 43 47  1  0  0  0  0
M  CHG  1  24  -1
M  END
$$$$

  -OEChem-05262216243D

 47 46  0     1  0  0  0  0  0999 V2000
    0.5946   -3.1899    1.9201 C   0  0  0  0  0  0  0  0  0  0  0  0
    1.7875   -2.9166    1.8769 O   0  0  0  0  0  0  0  0  0  0  0  0
   -0.2842   -2.6214    3.0182 C   0  0  0  0  0  0  0  0  0  0  0  0
   -1.2264   -3.1741    3.0734 H   0  0  0  0  0  0  0  0  0  0  0  0
    0.2252   -2.6943    3.9820 H   0  0  0  0  0  0  0  0  0  0  0  0
   -0.5091   -1.5720    2.8114 H   0  0  0  0  0  0  0  0  0  0  0  0
    0.0522   -3.9632    0.9168 N   0  0  0  0  0  0  0  0  0  0  0  0
    0.8184   -4.4205   -0.2604 C   0  0  2  0  0  0  0  0  0  0  0  0
    0.9263   -3.3229   -1.3506 C   0  0  0  0  0  0  0  0  0  0  0  0
    0.6410   -3.5315   -2.5245 O   0  0  0  0  0  0  0  0  0  0  0  0
    0.1435   -5.7002   -0.7681 C   0  0  0  0  0  0  0  0  0  0  0  0
   -0.9715   -3.9282    0.8480 H   0  0  0  0  0  0  0  0  0  0  0  0
    1.8392   -4.6781    0.0395 H   0  0  0  0  0  0  0  0  0  0  0  0
   -0.8803   -5.4907   -1.0945 H   0  0  0  0  0  0  0  0  0  0  0  0
    0.6994   -6.1142   -1.6149 H   0  0  0  0  0  0  0  0  0  0  0  0
    0.1098   -6.4524    0.0256 H   0  0  0  0  0  0  0  0  0  0  0  0
    1.2709   -2.0373   -0.9914 N   0  0  0  0  0  0  0  0  0  0  0  0
    0.4006   -0.8771   -1.2746 C   0  0  2  0  0  0  0  0  0  0  0  0
    1.0898    0.4017   -0.7498 C   0  0  0  0  0  0  0  0  0  0  0  0
    0.9796    0.7786    0.4119 O   0  0  0  0  0  0  0  0  0  0  0  0
   -0.9802   -1.0041   -0.5706 C   0  0  0  0  0  0  0  0  0  0  0  0
   -1.9288   -2.1184   -1.0558 C   0  0  0  0  0  0  0  0  0  0  0  0
   -3.2016   -2.0981   -0.2246 C   0  0  0  0  0  0  0  0  0  0  0  0
   -4.1726   -1.3898   -0.5823 O   0  5  0  0  0  0  0  0  0  0  0  0
   -3.1502   -2.7866    0.8301 O   0  0  0  0  0  0  0  0  0  0  0  0
    1.6319   -2.0250   -0.0332 H   0  0  0  0  0  0  0  0  0  0  0  0
    0.2442   -0.7835   -2.3538 H   0  0  0  0  0  0  0  0  0  0  0  0
   -1.5114   -0.0530   -0.6916 H   0  0  0  0  0  0  0  0  0  0  0  0
   -0.8161   -1.1390    0.5017 H   0  0  0  0  0  0  0  0  0  0  0  0
   -2.1752   -1.9524   -2.1084 H   0  0  0  0  0  0  0  0  0  0  0  0
   -1.5087   -3.1141   -0.9777 H   0  0  0  0  0  0  0  0  0  0  0  0
    1.9328    1.1078   -1.5868 N   0  0  0  0  0  0  0  0  0  0  0  0
    2.6473    2.3333   -1.2113 C   0  0  2  0  0  0  0  0  0  0  0  0
    2.8641    3.2733   -2.4141 C   0  0  0  0  0  0  0  0  0  0  0  0
    2.9237    2.8265   -3.5547 O   0  0  0  0  0  0  0  0  0  0  0  0
    3.9918    1.9392   -0.5934 C   0  0  0  0  0  0  0  0  0  0  0  0
    2.0187    0.7846   -2.5494 H   0  0  0  0  0  0  0  0  0  0  0  0
    2.0594    2.8845   -0.4699 H   0  0  0  0  0  0  0  0  0  0  0  0
    4.5989    1.3897   -1.3199 H   0  0  0  0  0  0  0  0  0  0  0  0
    4.5444    2.8287   -0.2763 H   0  0  0  0  0  0  0  0  0  0  0  0
    3.8337    1.3012    0.2820 H   0  0  0  0  0  0  0  0  0  0  0  0
    3.0012    4.6349   -2.2116 N   0  0  0  0  0  0  0  0  0  0  0  0
    3.1391    5.5948   -3.2988 C   0  0  0  0  0  0  0  0  0  0  0  0
    2.8847    4.9783   -1.2626 H   0  0  0  0  0  0  0  0  0  0  0  0
    4.0338    5.3766   -3.8911 H   0  0  0  0  0  0  0  0  0  0  0  0
    2.2633    5.5575   -3.9549 H   0  0  0  0  0  0  0  0  0  0  0  0
    3.2288    6.6088   -2.8977 H   0  0  0  0  0  0  0  0  0  0  0  0
  1  2  2  0  0  0  0
  1  3  1  0  0  0  0
  1  7  1  0  0  0  0
  3  4  1  0  0  0  0
  3  5  1  0  0  0  0
  3  6  1  0  0  0  0
  7  8  1  0  0  0  0
  7 12  1  0  0  0  0
  8  9  1  0  0  0  0
  8 11  1  0  0  0  0
  8 13  1  0  0  0  0
  9 10  2  0  0  0  0
  9 17  1  0  0  0  0
 11 14  1  0  0  0  0
 11 15  1  0  0  0  0
 11 16  1  0  0  0  0
 17 18  1  0  0  0  0
 17 26  1  0  0  0  0
 18 19  1  0  0  0  0
 18 21  1  0  0  0  0
 18 27  1  0  0  0  0
 19 20  2  0  0  0  0
 19 32  1  0  0  0  0
 21 22  1  0  0  0  0
 21 28  1  0  0  0  0
 21 29  1  0  0  0  0
 22 23  1  0  0  0  0
 22 30  1  0  0  0  0
 22 31  1  0  0  0  0
 23 24  1  0  0  0  0
 23 25  2  0  0  0  0
 32 33  1  0  0  0  0
 32 37  1  0  0  0  0
 33 34  1  0  0  0  0
 33 36  1  0  0  0  0
 33 38  1  0  0  0  0
 34 35  2  0  0  0  0
 34 42  1  0  0  0  0
 36 39  1  0  0  0  0
 36 40  1  0  0  0  0
 36 41  1  0  0  0  0
 42 43  1  0  0  0  0
 42 44  1  0  0  0  0
 43 45  1  0  0  0  0
 43 46  1  0  0  0  0
 43 47  1  0  0  0  0
M  CHG  1  24  -1
M  END
$$$$

  -OEChem-05262216243D

 47 46  0     1  0  0  0  0  0999 V2000
    0.5596   -3.1028    1.9309 C   0  0  0  0  0  0  0  0  0  0  0  0
    1.7614   -2.8715    1.9541 O   0  0  0  0  0  0  0  0  0  0  0  0
   -0.3624   -2.4389    2.9357 C   0  0  0  0  0  0  0  0  0  0  0  0
   -1.4084   -2.6146    2.6689 H   0  0  0  0  0  0  0  0  0  0  0  0
   -0.1806   -2.8441    3.9335 H   0  0  0  0  0  0  0  0  0  0  0  0
   -0.1839   -1.3603    2.9462 H   0  0  0  0  0  0  0  0  0  0  0  0
    0.0544   -3.9012    0.9272 N   0  0  0  0  0  0  0  0  0  0  0  0
    0.8747   -4.3996   -0.1959 C   0  0  2  0  0  0  0  0  0  0  0  0
    1.0596   -3.3289   -1.3033 C   0  0  0  0  0  0  0  0  0  0  0  0
    0.8378   -3.5623   -2.4862 O   0  0  0  0  0  0  0  0  0  0  0  0
    0.2078   -5.6812   -0.7097 C   0  0  0  0  0  0  0  0  0  0  0  0
   -0.9627   -3.8490    0.8003 H   0  0  0  0  0  0  0  0  0  0  0  0
    1.8735   -4.6657    0.1644 H   0  0  0  0  0  0  0  0  0  0  0  0
   -0.7909   -5.4650   -1.1027 H   0  0  0  0  0  0  0  0  0  0  0  0
    0.8066   -6.1266   -1.5100 H   0  0  0  0  0  0  0  0  0  0  0  0
    0.1135   -6.4111    0.0997 H   0  0  0  0  0  0  0  0  0  0  0  0
    1.3859   -2.0361   -0.9521 N   0  0  0  0  0  0  0  0  0  0  0  0
    0.5421   -0.8809   -1.3186 C   0  0  2  0  0  0  0  0  0  0  0  0
    1.1891    0.4144   -0.7848 C   0  0  0  0  0  0  0  0  0  0  0  0
    1.2220    0.6640    0.4154 O   0  0  0  0  0  0  0  0  0  0  0  0
   -0.8799   -0.9728   -0.6991 C   0  0  0  0  0  0  0  0  0  0  0  0
   -1.8049   -2.0933   -1.2121 C   0  0  0  0  0  0  0  0  0  0  0  0
   -3.1284   -2.0386   -0.4660 C   0  0  0  0  0  0  0  0  0  0  0  0
   -4.0466   -1.2913   -0.8794 O   0  5  0  0  0  0  0  0  0  0  0  0
   -3.1683   -2.7264    0.5888 O   0  0  0  0  0  0  0  0  0  0  0  0
    1.6953   -1.9960    0.0235 H   0  0  0  0  0  0  0  0  0  0  0  0
    0.4552   -0.8199   -2.4079 H   0  0  0  0  0  0  0  0  0  0  0  0
   -1.3928   -0.0216   -0.8815 H   0  0  0  0  0  0  0  0  0  0  0  0
   -0.7851   -1.0772    0.3859 H   0  0  0  0  0  0  0  0  0  0  0  0
   -1.9822   -1.9557   -2.2826 H   0  0  0  0  0  0  0  0  0  0  0  0
   -1.3979   -3.0888   -1.0784 H   0  0  0  0  0  0  0  0  0  0  0  0
    1.8316    1.2768   -1.6537 N   0  0  0  0  0  0  0  0  0  0  0  0
    2.4194    2.5643   -1.2626 C   0  0  2  0  0  0  0  0  0  0  0  0
    2.1945    3.6522   -2.3319 C   0  0  0  0  0  0  0  0  0  0  0  0
    2.1369    3.3556   -3.5205 O   0  0  0  0  0  0  0  0  0  0  0  0
    3.9155    2.3549   -1.0168 C   0  0  0  0  0  0  0  0  0  0  0  0
    1.7602    1.0758   -2.6499 H   0  0  0  0  0  0  0  0  0  0  0  0
    1.9528    2.9189   -0.3375 H   0  0  0  0  0  0  0  0  0  0  0  0
    4.4063    1.9951   -1.9269 H   0  0  0  0  0  0  0  0  0  0  0  0
    4.3887    3.2930   -0.7117 H   0  0  0  0  0  0  0  0  0  0  0  0
    4.0674    1.6164   -0.2231 H   0  0  0  0  0  0  0  0  0  0  0  0
    2.0669    4.9773   -1.9556 N   0  0  0  0  0  0  0  0  0  0  0  0
    1.7665    6.0490   -2.8959 C   0  0  0  0  0  0  0  0  0  0  0  0
    2.0391    5.1759   -0.9596 H   0  0  0  0  0  0  0  0  0  0  0  0
    2.5628    6.1382   -3.6419 H   0  0  0  0  0  0  0  0  0  0  0  0
    0.8205    5.8528   -3.4111 H   0  0  0  0  0  0  0  0  0  0  0  0
    1.6804    7.0025   -2.3662 H   0  0  0  0  0  0  0  0  0  0  0  0
  1  2  2  0  0  0  0
  1  3  1  0  0  0  0
  1  7  1  0  0  0  0
  3  4  1  0  0  0  0
  3  5  1  0  0  0  0
  3  6  1  0  0  0  0
  7  8  1  0  0  0  0
  7 12  1  0  0  0  0
  8  9  1  0  0  0  0
  8 11  1  0  0  0  0
  8 13  1  0  0  0  0
  9 10  2  0  0  0  0
  9 17  1  0  0  0  0
 11 14  1  0  0  0  0
 11 15  1  0  0  0  0
 11 16  1  0  0  0  0
 17 18  1  0  0  0  0
 17 26  1  0  0  0  0
 18 19  1  0  0  0  0
 18 21  1  0  0  0  0
 18 27  1  0  0  0  0
 19 20  2  0  0  0  0
 19 32  1  0  0  0  0
 21 22  1  0  0  0  0
 21 28  1  0  0  0  0
 21 29  1  0  0  0  0
 22 23  1  0  0  0  0
 22 30  1  0  0  0  0
 22 31  1  0  0  0  0
 23 24  1  0  0  0  0
 23 25  2  0  0  0  0
 32 33  1  0  0  0  0
 32 37  1  0  0  0  0
 33 34  1  0  0  0  0
 33 36  1  0  0  0  0
 33 38  1  0  0  0  0
 34 35  2  0  0  0  0
 34 42  1  0  0  0  0
 36 39  1  0  0  0  0
 36 40  1  0  0  0  0
 36 41  1  0  0  0  0
 42 43  1  0  0  0  0
 42 44  1  0  0  0  0
 43 45  1  0  0  0  0
 43 46  1  0  0  0  0
 43 47  1  0  0  0  0
M  CHG  1  24  -1
M  END
$$$$

  -OEChem-05262216243D

 47 46  0     1  0  0  0  0  0999 V2000
    0.5386   -3.1259    1.9069 C   0  0  0  0  0  0  0  0  0  0  0  0
    1.7374   -2.8844    1.9604 O   0  0  0  0  0  0  0  0  0  0  0  0
   -0.4092   -2.5670    2.9518 C   0  0  0  0  0  0  0  0  0  0  0  0
   -0.7617   -3.3703    3.6027 H   0  0  0  0  0  0  0  0  0  0  0  0
    0.0986   -1.8117    3.5576 H   0  0  0  0  0  0  0  0  0  0  0  0
   -1.2740   -2.1043    2.4685 H   0  0  0  0  0  0  0  0  0  0  0  0
    0.0564   -3.8784    0.8581 N   0  0  0  0  0  0  0  0  0  0  0  0
    0.8960   -4.3236   -0.2727 C   0  0  2  0  0  0  0  0  0  0  0  0
    1.0618   -3.2202   -1.3494 C   0  0  0  0  0  0  0  0  0  0  0  0
    0.8339   -3.4255   -2.5366 O   0  0  0  0  0  0  0  0  0  0  0  0
    0.2632   -5.6064   -0.8263 C   0  0  0  0  0  0  0  0  0  0  0  0
   -0.9597   -3.8344    0.7221 H   0  0  0  0  0  0  0  0  0  0  0  0
    1.8990   -4.5749    0.0863 H   0  0  0  0  0  0  0  0  0  0  0  0
   -0.7389   -5.4025   -1.2177 H   0  0  0  0  0  0  0  0  0  0  0  0
    0.8754   -6.0145   -1.6365 H   0  0  0  0  0  0  0  0  0  0  0  0
    0.1833   -6.3617   -0.0386 H   0  0  0  0  0  0  0  0  0  0  0  0
    1.3810   -1.9338   -0.9695 N   0  0  0  0  0  0  0  0  0  0  0  0
    0.5372   -0.7748   -1.3244 C   0  0  2  0  0  0  0  0  0  0  0  0
    1.1613    0.5199   -0.7657 C   0  0  0  0  0  0  0  0  0  0  0  0
    1.3923    0.6460    0.4322 O   0  0  0  0  0  0  0  0  0  0  0  0
   -0.8808   -0.8766   -0.7008 C   0  0  0  0  0  0  0  0  0  0  0  0
   -1.8050   -1.9944   -1.2211 C   0  0  0  0  0  0  0  0  0  0  0  0
   -3.1259   -1.9506   -0.4695 C   0  0  0  0  0  0  0  0  0  0  0  0
   -4.0388   -1.1848   -0.8602 O   0  5  0  0  0  0  0  0  0  0  0  0
   -3.1667   -2.6616    0.5698 O   0  0  0  0  0  0  0  0  0  0  0  0
    1.6901   -1.9043    0.0065 H   0  0  0  0  0  0  0  0  0  0  0  0
    0.4530   -0.6997   -2.4131 H   0  0  0  0  0  0  0  0  0  0  0  0
   -1.3987    0.0744   -0.8704 H   0  0  0  0  0  0  0  0  0  0  0  0
   -0.7772   -0.9913    0.3824 H   0  0  0  0  0  0  0  0  0  0  0  0
   -1.9865   -1.8468   -2.2897 H   0  0  0  0  0  0  0  0  0  0  0  0
   -1.3941   -2.9899   -1.0983 H   0  0  0  0  0  0  0  0  0  0  0  0
    1.5258    1.5424   -1.6216 N   0  0  0  0  0  0  0  0  0  0  0  0
    2.0279    2.8497   -1.1828 C   0  0  2  0  0  0  0  0  0  0  0  0
    1.6081    3.9798   -2.1442 C   0  0  0  0  0  0  0  0  0  0  0  0
    1.3714    3.7391   -3.3232 O   0  0  0  0  0  0  0  0  0  0  0  0
    3.5541    2.7777   -1.0819 C   0  0  0  0  0  0  0  0  0  0  0  0
    1.2730    1.4446   -2.6043 H   0  0  0  0  0  0  0  0  0  0  0  0
    1.6133    3.0886   -0.1975 H   0  0  0  0  0  0  0  0  0  0  0  0
    3.9905    2.5390   -2.0571 H   0  0  0  0  0  0  0  0  0  0  0  0
    3.9606    3.7348   -0.7416 H   0  0  0  0  0  0  0  0  0  0  0  0
    3.8508    2.0025   -0.3682 H   0  0  0  0  0  0  0  0  0  0  0  0
    1.5040    5.2797   -1.6830 N   0  0  0  0  0  0  0  0  0  0  0  0
    1.0367    6.3843   -2.5105 C   0  0  0  0  0  0  0  0  0  0  0  0
    1.6381    5.4322   -0.6876 H   0  0  0  0  0  0  0  0  0  0  0  0
    1.6823    6.5078   -3.3863 H   0  0  0  0  0  0  0  0  0  0  0  0
    0.0121    6.2006   -2.8506 H   0  0  0  0  0  0  0  0  0  0  0  0
    1.0505    7.3163   -1.9378 H   0  0  0  0  0  0  0  0  0  0  0  0
  1  2  2  0  0  0  0
  1  3  1  0  0  0  0
  1  7  1  0  0  0  0
  3  4  1  0  0  0  0
  3  5  1  0  0  0  0
  3  6  1  0  0  0  0
  7  8  1  0  0  0  0
  7 12  1  0  0  0  0
  8  9  1  0  0  0  0
  8 11  1  0  0  0  0
  8 13  1  0  0  0  0
  9 10  2  0  0  0  0
  9 17  1  0  0  0  0
 11 14  1  0  0  0  0
 11 15  1  0  0  0  0
 11 16  1  0  0  0  0
 17 18  1  0  0  0  0
 17 26  1  0  0  0  0
 18 19  1  0  0  0  0
 18 21  1  0  0  0  0
 18 27  1  0  0  0  0
 19 20  2  0  0  0  0
 19 32  1  0  0  0  0
 21 22  1  0  0  0  0
 21 28  1  0  0  0  0
 21 29  1  0  0  0  0
 22 23  1  0  0  0  0
 22 30  1  0  0  0  0
 22 31  1  0  0  0  0
 23 24  1  0  0  0  0
 23 25  2  0  0  0  0
 32 33  1  0  0  0  0
 32 37  1  0  0  0  0
 33 34  1  0  0  0  0
 33 36  1  0  0  0  0
 33 38  1  0  0  0  0
 34 35  2  0  0  0  0
 34 42  1  0  0  0  0
 36 39  1  0  0  0  0
 36 40  1  0  0  0  0
 36 41  1  0  0  0  0
 42 43  1  0  0  0  0
 42 44  1  0  0  0  0
 43 45  1  0  0  0  0
 43 46  1  0  0  0  0
 43 47  1  0  0  0  0
M  CHG  1  24  -1
M  END
$$$$

  -OEChem-05262216243D

 47 46  0     1  0  0  0  0  0999 V2000
    0.5113   -3.0562    1.9295 C   0  0  0  0  0  0  0  0  0  0  0  0
    1.7139   -2.8642    2.0474 O   0  0  0  0  0  0  0  0  0  0  0  0
   -0.4633   -2.4700    2.9342 C   0  0  0  0  0  0  0  0  0  0  0  0
   -1.3493   -3.1059    3.0135 H   0  0  0  0  0  0  0  0  0  0  0  0
    0.0070   -2.3947    3.9177 H   0  0  0  0  0  0  0  0  0  0  0  0
   -0.7784   -1.4742    2.6135 H   0  0  0  0  0  0  0  0  0  0  0  0
    0.0498   -3.7711    0.8461 N   0  0  0  0  0  0  0  0  0  0  0  0
    0.9170   -4.2322   -0.2575 C   0  0  2  0  0  0  0  0  0  0  0  0
    1.1108   -3.1411   -1.3419 C   0  0  0  0  0  0  0  0  0  0  0  0
    0.8968   -3.3550   -2.5302 O   0  0  0  0  0  0  0  0  0  0  0  0
    0.2913   -5.5175   -0.8121 C   0  0  0  0  0  0  0  0  0  0  0  0
   -0.9592   -3.6963    0.6745 H   0  0  0  0  0  0  0  0  0  0  0  0
    1.9102   -4.4839    0.1274 H   0  0  0  0  0  0  0  0  0  0  0  0
   -0.6991   -5.3125   -1.2316 H   0  0  0  0  0  0  0  0  0  0  0  0
    0.9221   -5.9382   -1.6013 H   0  0  0  0  0  0  0  0  0  0  0  0
    0.1868   -6.2628   -0.0181 H   0  0  0  0  0  0  0  0  0  0  0  0
    1.4158   -1.8507   -0.9651 N   0  0  0  0  0  0  0  0  0  0  0  0
    0.5836   -0.6927   -1.3498 C   0  0  2  0  0  0  0  0  0  0  0  0
    1.1903    0.6065   -0.7839 C   0  0  0  0  0  0  0  0  0  0  0  0
    1.6208    0.6467    0.3641 O   0  0  0  0  0  0  0  0  0  0  0  0
   -0.8409   -0.7875   -0.7451 C   0  0  0  0  0  0  0  0  0  0  0  0
   -1.7597   -1.9106   -1.2627 C   0  0  0  0  0  0  0  0  0  0  0  0
   -3.0866   -1.8509   -0.5236 C   0  0  0  0  0  0  0  0  0  0  0  0
   -4.0035   -1.1074   -0.9464 O   0  5  0  0  0  0  0  0  0  0  0  0
   -3.1240   -2.5201    0.5435 O   0  0  0  0  0  0  0  0  0  0  0  0
    1.7169   -1.8045    0.0122 H   0  0  0  0  0  0  0  0  0  0  0  0
    0.5239   -0.6263   -2.4407 H   0  0  0  0  0  0  0  0  0  0  0  0
   -1.3569    0.1611   -0.9338 H   0  0  0  0  0  0  0  0  0  0  0  0
   -0.7502   -0.8884    0.3402 H   0  0  0  0  0  0  0  0  0  0  0  0
   -1.9304   -1.7746   -2.3345 H   0  0  0  0  0  0  0  0  0  0  0  0
   -1.3535   -2.9060   -1.1267 H   0  0  0  0  0  0  0  0  0  0  0  0
    1.2947    1.7372   -1.5727 N   0  0  0  0  0  0  0  0  0  0  0  0
    1.7636    3.0402   -1.0854 C   0  0  2  0  0  0  0  0  0  0  0  0
    1.0391    4.2137   -1.7747 C   0  0  0  0  0  0  0  0  0  0  0  0
    0.6396    4.1062   -2.9289 O   0  0  0  0  0  0  0  0  0  0  0  0
    3.2729    3.1295   -1.3243 C   0  0  0  0  0  0  0  0  0  0  0  0
    0.8601    1.7095   -2.4942 H   0  0  0  0  0  0  0  0  0  0  0  0
    1.5657    3.1232   -0.0116 H   0  0  0  0  0  0  0  0  0  0  0  0
    3.4960    3.0544   -2.3933 H   0  0  0  0  0  0  0  0  0  0  0  0
    3.6639    4.0807   -0.9512 H   0  0  0  0  0  0  0  0  0  0  0  0
    3.7866    2.3156   -0.8027 H   0  0  0  0  0  0  0  0  0  0  0  0
    0.8483    5.4044   -1.0966 N   0  0  0  0  0  0  0  0  0  0  0  0
    0.0968    6.5245   -1.6477 C   0  0  0  0  0  0  0  0  0  0  0  0
    1.1161    5.4283   -0.1169 H   0  0  0  0  0  0  0  0  0  0  0  0
    0.5573    6.8741   -2.5776 H   0  0  0  0  0  0  0  0  0  0  0  0
   -0.9366    6.2271   -1.8548 H   0  0  0  0  0  0  0  0  0  0  0  0
    0.0822    7.3557   -0.9363 H   0  0  0  0  0  0  0  0  0  0  0  0
  1  2  2  0  0  0  0
  1  3  1  0  0  0  0
  1  7  1  0  0  0  0
  3  4  1  0  0  0  0
  3  5  1  0  0  0  0
  3  6  1  0  0  0  0
  7  8  1  0  0  0  0
  7 12  1  0  0  0  0
  8  9  1  0  0  0  0
  8 11  1  0  0  0  0
  8 13  1  0  0  0  0
  9 10  2  0  0  0  0
  9 17  1  0  0  0  0
 11 14  1  0  0  0  0
 11 15  1  0  0  0  0
 11 16  1  0  0  0  0
 17 18  1  0  0  0  0
 17 26  1  0  0  0  0
 18 19  1  0  0  0  0
 18 21  1  0  0  0  0
 18 27  1  0  0  0  0
 19 20  2  0  0  0  0
 19 32  1  0  0  0  0
 21 22  1  0  0  0  0
 21 28  1  0  0  0  0
 21 29  1  0  0  0  0
 22 23  1  0  0  0  0
 22 30  1  0  0  0  0
 22 31  1  0  0  0  0
 23 24  1  0  0  0  0
 23 25  2  0  0  0  0
 32 33  1  0  0  0  0
 32 37  1  0  0  0  0
 33 34  1  0  0  0  0
 33 36  1  0  0  0  0
 33 38  1  0  0  0  0
 34 35  2  0  0  0  0
 34 42  1  0  0  0  0
 36 39  1  0  0  0  0
 36 40  1  0  0  0  0
 36 41  1  0  0  0  0
 42 43  1  0  0  0  0
 42 44  1  0  0  0  0
 43 45  1  0  0  0  0
 43 46  1  0  0  0  0
 43 47  1  0  0  0  0
M  CHG  1  24  -1
M  END
$$$$

  -OEChem-05262216243D

 47 46  0     1  0  0  0  0  0999 V2000
    0.5272   -3.0315    1.8772 C   0  0  0  0  0  0  0  0  0  0  0  0
    1.7330   -2.8497    1.9723 O   0  0  0  0  0  0  0  0  0  0  0  0
   -0.4180   -2.4343    2.9025 C   0  0  0  0  0  0  0  0  0  0  0  0
   -1.4117   -2.8820    2.8102 H   0  0  0  0  0  0  0  0  0  0  0  0
   -0.0416   -2.6189    3.9112 H   0  0  0  0  0  0  0  0  0  0  0  0
   -0.5061   -1.3568    2.7438 H   0  0  0  0  0  0  0  0  0  0  0  0
    0.0364   -3.7273    0.7941 N   0  0  0  0  0  0  0  0  0  0  0  0
    0.8750   -4.1672   -0.3397 C   0  0  2  0  0  0  0  0  0  0  0  0
    1.0422   -3.0522   -1.4041 C   0  0  0  0  0  0  0  0  0  0  0  0
    0.7703   -3.2310   -2.5865 O   0  0  0  0  0  0  0  0  0  0  0  0
    0.2349   -5.4408   -0.9050 C   0  0  0  0  0  0  0  0  0  0  0  0
   -0.9747   -3.6373    0.6447 H   0  0  0  0  0  0  0  0  0  0  0  0
    1.8774   -4.4272    0.0147 H   0  0  0  0  0  0  0  0  0  0  0  0
   -0.7673   -5.2286   -1.2912 H   0  0  0  0  0  0  0  0  0  0  0  0
    0.8436   -5.8421   -1.7209 H   0  0  0  0  0  0  0  0  0  0  0  0
    0.1542   -6.2039   -0.1251 H   0  0  0  0  0  0  0  0  0  0  0  0
    1.3809   -1.7769   -1.0049 N   0  0  0  0  0  0  0  0  0  0  0  0
    0.5667   -0.5893   -1.3359 C   0  0  2  0  0  0  0  0  0  0  0  0
    1.2102    0.6868   -0.7558 C   0  0  0  0  0  0  0  0  0  0  0  0
    1.8678    0.6445    0.2790 O   0  0  0  0  0  0  0  0  0  0  0  0
   -0.8396   -0.6719   -0.6874 C   0  0  0  0  0  0  0  0  0  0  0  0
   -1.7980   -1.7620   -1.2037 C   0  0  0  0  0  0  0  0  0  0  0  0
   -3.0988   -1.6950   -0.4203 C   0  0  0  0  0  0  0  0  0  0  0  0
   -3.9993   -0.8988   -0.7767 O   0  5  0  0  0  0  0  0  0  0  0  0
   -3.1266   -2.4094    0.6168 O   0  0  0  0  0  0  0  0  0  0  0  0
    1.7296   -1.7569   -0.0425 H   0  0  0  0  0  0  0  0  0  0  0  0
    0.4775   -0.4928   -2.4224 H   0  0  0  0  0  0  0  0  0  0  0  0
   -1.3433    0.2906   -0.8333 H   0  0  0  0  0  0  0  0  0  0  0  0
   -0.7152   -0.8049    0.3916 H   0  0  0  0  0  0  0  0  0  0  0  0
   -2.0006   -1.5947   -2.2653 H   0  0  0  0  0  0  0  0  0  0  0  0
   -1.4079   -2.7687   -1.1063 H   0  0  0  0  0  0  0  0  0  0  0  0
    1.0448    1.9061   -1.3866 N   0  0  0  0  0  0  0  0  0  0  0  0
    1.5009    3.1878   -0.8351 C   0  0  2  0  0  0  0  0  0  0  0  0
    0.5951    4.3581   -1.2675 C   0  0  0  0  0  0  0  0  0  0  0  0
    0.0245    4.3324   -2.3523 O   0  0  0  0  0  0  0  0  0  0  0  0
    2.9402    3.4325   -1.2965 C   0  0  0  0  0  0  0  0  0  0  0  0
    0.4192    1.9388   -2.1911 H   0  0  0  0  0  0  0  0  0  0  0  0
    1.4772    3.1430    0.2588 H   0  0  0  0  0  0  0  0  0  0  0  0
    2.9881    3.4785   -2.3892 H   0  0  0  0  0  0  0  0  0  0  0  0
    3.3173    4.3756   -0.8898 H   0  0  0  0  0  0  0  0  0  0  0  0
    3.5918    2.6228   -0.9528 H   0  0  0  0  0  0  0  0  0  0  0  0
    0.4293    5.4529   -0.4380 N   0  0  0  0  0  0  0  0  0  0  0  0
   -0.4916    6.5427   -0.7347 C   0  0  0  0  0  0  0  0  0  0  0  0
    0.8417    5.3987    0.4887 H   0  0  0  0  0  0  0  0  0  0  0  0
   -0.2390    7.0098   -1.6924 H   0  0  0  0  0  0  0  0  0  0  0  0
   -1.5204    6.1706   -0.7841 H   0  0  0  0  0  0  0  0  0  0  0  0
   -0.4359    7.3072    0.0460 H   0  0  0  0  0  0  0  0  0  0  0  0
  1  2  2  0  0  0  0
  1  3  1  0  0  0  0
  1  7  1  0  0  0  0
  3  4  1  0  0  0  0
  3  5  1  0  0  0  0
  3  6  1  0  0  0  0
  7  8  1  0  0  0  0
  7 12  1  0  0  0  0
  8  9  1  0  0  0  0
  8 11  1  0  0  0  0
  8 13  1  0  0  0  0
  9 10  2  0  0  0  0
  9 17  1  0  0  0  0
 11 14  1  0  0  0  0
 11 15  1  0  0  0  0
 11 16  1  0  0  0  0
 17 18  1  0  0  0  0
 17 26  1  0  0  0  0
 18 19  1  0  0  0  0
 18 21  1  0  0  0  0
 18 27  1  0  0  0  0
 19 20  2  0  0  0  0
 19 32  1  0  0  0  0
 21 22  1  0  0  0  0
 21 28  1  0  0  0  0
 21 29  1  0  0  0  0
 22 23  1  0  0  0  0
 22 30  1  0  0  0  0
 22 31  1  0  0  0  0
 23 24  1  0  0  0  0
 23 25  2  0  0  0  0
 32 33  1  0  0  0  0
 32 37  1  0  0  0  0
 33 34  1  0  0  0  0
 33 36  1  0  0  0  0
 33 38  1  0  0  0  0
 34 35  2  0  0  0  0
 34 42  1  0  0  0  0
 36 39  1  0  0  0  0
 36 40  1  0  0  0  0
 36 41  1  0  0  0  0
 42 43  1  0  0  0  0
 42 44  1  0  0  0  0
 43 45  1  0  0  0  0
 43 46  1  0  0  0  0
 43 47  1  0  0  0  0
M  CHG  1  24  -1
M  END
$$$$

  -OEChem-05262216243D

 47 46  0     1  0  0  0  0  0999 V2000
    0.5658   -2.9412    1.8679 C   0  0  0  0  0  0  0  0  0  0  0  0
    1.7686   -2.7254    1.9198 O   0  0  0  0  0  0  0  0  0  0  0  0
   -0.3552   -2.3592    2.9236 C   0  0  0  0  0  0  0  0  0  0  0  0
   -1.3993   -2.5753    2.6814 H   0  0  0  0  0  0  0  0  0  0  0  0
   -0.1248   -2.7927    3.8994 H   0  0  0  0  0  0  0  0  0  0  0  0
   -0.2270   -1.2748    2.9708 H   0  0  0  0  0  0  0  0  0  0  0  0
    0.0570   -3.6610    0.8086 N   0  0  0  0  0  0  0  0  0  0  0  0
    0.8717   -4.0896   -0.3465 C   0  0  2  0  0  0  0  0  0  0  0  0
    1.0123   -2.9668   -1.4064 C   0  0  0  0  0  0  0  0  0  0  0  0
    0.7111   -3.1384   -2.5829 O   0  0  0  0  0  0  0  0  0  0  0  0
    0.2212   -5.3594   -0.9083 C   0  0  0  0  0  0  0  0  0  0  0  0
   -0.9593   -3.5948    0.6877 H   0  0  0  0  0  0  0  0  0  0  0  0
    1.8820   -4.3495   -0.0145 H   0  0  0  0  0  0  0  0  0  0  0  0
   -0.7879   -5.1439   -1.2746 H   0  0  0  0  0  0  0  0  0  0  0  0
    0.8145   -5.7545   -1.7384 H   0  0  0  0  0  0  0  0  0  0  0  0
    0.1543   -6.1283   -0.1330 H   0  0  0  0  0  0  0  0  0  0  0  0
    1.3603   -1.6939   -1.0072 N   0  0  0  0  0  0  0  0  0  0  0  0
    0.5528   -0.4968   -1.3229 C   0  0  2  0  0  0  0  0  0  0  0  0
    1.2108    0.7757   -0.7437 C   0  0  0  0  0  0  0  0  0  0  0  0
    2.0652    0.7022    0.1339 O   0  0  0  0  0  0  0  0  0  0  0  0
   -0.8470   -0.5791   -0.6537 C   0  0  0  0  0  0  0  0  0  0  0  0
   -1.8173   -1.6622   -1.1636 C   0  0  0  0  0  0  0  0  0  0  0  0
   -3.1094   -1.5996   -0.3645 C   0  0  0  0  0  0  0  0  0  0  0  0
   -4.0010   -0.7808   -0.6905 O   0  5  0  0  0  0  0  0  0  0  0  0
   -3.1393   -2.3406    0.6534 O   0  0  0  0  0  0  0  0  0  0  0  0
    1.7429   -1.6757   -0.0577 H   0  0  0  0  0  0  0  0  0  0  0  0
    0.4508   -0.3923   -2.4074 H   0  0  0  0  0  0  0  0  0  0  0  0
   -1.3538    0.3834   -0.7856 H   0  0  0  0  0  0  0  0  0  0  0  0
   -0.7079   -0.7196    0.4230 H   0  0  0  0  0  0  0  0  0  0  0  0
   -2.0324   -1.4894   -2.2219 H   0  0  0  0  0  0  0  0  0  0  0  0
   -1.4286   -2.6703   -1.0734 H   0  0  0  0  0  0  0  0  0  0  0  0
    0.8123    2.0309   -1.1678 N   0  0  0  0  0  0  0  0  0  0  0  0
    1.2699    3.2889   -0.5646 C   0  0  2  0  0  0  0  0  0  0  0  0
    0.2127    4.4049   -0.6799 C   0  0  0  0  0  0  0  0  0  0  0  0
   -0.5241    4.4627   -1.6578 O   0  0  0  0  0  0  0  0  0  0  0  0
    2.5698    3.7192   -1.2502 C   0  0  0  0  0  0  0  0  0  0  0  0
    0.0349    2.0814   -1.8261 H   0  0  0  0  0  0  0  0  0  0  0  0
    1.4624    3.1310    0.5018 H   0  0  0  0  0  0  0  0  0  0  0  0
    2.4019    3.8834   -2.3194 H   0  0  0  0  0  0  0  0  0  0  0  0
    2.9456    4.6469   -0.8086 H   0  0  0  0  0  0  0  0  0  0  0  0
    3.3352    2.9458   -1.1321 H   0  0  0  0  0  0  0  0  0  0  0  0
    0.0997    5.3586    0.3159 N   0  0  0  0  0  0  0  0  0  0  0  0
   -0.9493    6.3697    0.3316 C   0  0  0  0  0  0  0  0  0  0  0  0
    0.6605    5.2223    1.1519 H   0  0  0  0  0  0  0  0  0  0  0  0
   -0.9163    6.9719   -0.5823 H   0  0  0  0  0  0  0  0  0  0  0  0
   -1.9339    5.8965    0.4078 H   0  0  0  0  0  0  0  0  0  0  0  0
   -0.8171    7.0370    1.1886 H   0  0  0  0  0  0  0  0  0  0  0  0
  1  2  2  0  0  0  0
  1  3  1  0  0  0  0
  1  7  1  0  0  0  0
  3  4  1  0  0  0  0
  3  5  1  0  0  0  0
  3  6  1  0  0  0  0
  7  8  1  0  0  0  0
  7 12  1  0  0  0  0
  8  9  1  0  0  0  0
  8 11  1  0  0  0  0
  8 13  1  0  0  0  0
  9 10  2  0  0  0  0
  9 17  1  0  0  0  0
 11 14  1  0  0  0  0
 11 15  1  0  0  0  0
 11 16  1  0  0  0  0
 17 18  1  0  0  0  0
 17 26  1  0  0  0  0
 18 19  1  0  0  0  0
 18 21  1  0  0  0  0
 18 27  1  0  0  0  0
 19 20  2  0  0  0  0
 19 32  1  0  0  0  0
 21 22  1  0  0  0  0
 21 28  1  0  0  0  0
 21 29  1  0  0  0  0
 22 23  1  0  0  0  0
 22 30  1  0  0  0  0
 22 31  1  0  0  0  0
 23 24  1  0  0  0  0
 23 25  2  0  0  0  0
 32 33  1  0  0  0  0
 32 37  1  0  0  0  0
 33 34  1  0  0  0  0
 33 36  1  0  0  0  0
 33 38  1  0  0  0  0
 34 35  2  0  0  0  0
 34 42  1  0  0  0  0
 36 39  1  0  0  0  0
 36 40  1  0  0  0  0
 36 41  1  0  0  0  0
 42 43  1  0  0  0  0
 42 44  1  0  0  0  0
 43 45  1  0  0  0  0
 43 46  1  0  0  0  0
 43 47  1  0  0  0  0
M  CHG  1  24  -1
M  END
$$$$

  -OEChem-05262216243D

 47 46  0     1  0  0  0  0  0999 V2000
    0.0078   -5.5381    1.7206 C   0  0  0  0  0  0  0  0  0  0  0  0
    1.0439   -5.5963    2.3667 O   0  0  0  0  0  0  0  0  0  0  0  0
   -1.1856   -6.3884    2.1150 C   0  0  0  0  0  0  0  0  0  0  0  0
   -1.4661   -7.0443    1.2877 H   0  0  0  0  0  0  0  0  0  0  0  0
   -0.9425   -7.0021    2.9865 H   0  0  0  0  0  0  0  0  0  0  0  0
   -2.0336   -5.7444    2.3631 H   0  0  0  0  0  0  0  0  0  0  0  0
   -0.0837   -4.7135    0.6207 N   0  0  0  0  0  0  0  0  0  0  0  0
    0.8893   -3.6689    0.2820 C   0  0  2  0  0  0  0  0  0  0  0  0
    0.2055   -2.5379   -0.5115 C   0  0  0  0  0  0  0  0  0  0  0  0
   -0.7623   -2.7947   -1.2214 O   0  0  0  0  0  0  0  0  0  0  0  0
    2.0275   -4.2815   -0.5387 C   0  0  0  0  0  0  0  0  0  0  0  0
   -1.0003   -4.6276    0.1805 H   0  0  0  0  0  0  0  0  0  0  0  0
    1.2943   -3.2349    1.2024 H   0  0  0  0  0  0  0  0  0  0  0  0
    1.6368   -4.7202   -1.4623 H   0  0  0  0  0  0  0  0  0  0  0  0
    2.7646   -3.5161   -0.7995 H   0  0  0  0  0  0  0  0  0  0  0  0
    2.5314   -5.0653    0.0351 H   0  0  0  0  0  0  0  0  0  0  0  0
    0.7083   -1.2526   -0.4807 N   0  0  0  0  0  0  0  0  0  0  0  0
   -0.0352   -0.0386   -0.8600 C   0  0  2  0  0  0  0  0  0  0  0  0
    0.9520    1.1371   -1.0620 C   0  0  0  0  0  0  0  0  0  0  0  0
    2.1510    0.9935   -0.8301 O   0  0  0  0  0  0  0  0  0  0  0  0
   -1.0062    0.3936    0.2710 C   0  0  0  0  0  0  0  0  0  0  0  0
   -2.1804   -0.5593    0.5496 C   0  0  0  0  0  0  0  0  0  0  0  0
   -3.0352   -0.0215    1.6960 C   0  0  0  0  0  0  0  0  0  0  0  0
   -3.6876    1.0313    1.4858 O   0  5  0  0  0  0  0  0  0  0  0  0
   -2.9946   -0.6326    2.7924 O   0  0  0  0  0  0  0  0  0  0  0  0
    1.5567   -1.1025    0.0608 H   0  0  0  0  0  0  0  0  0  0  0  0
   -0.5887   -0.2042   -1.7896 H   0  0  0  0  0  0  0  0  0  0  0  0
   -1.4382    1.3692    0.0235 H   0  0  0  0  0  0  0  0  0  0  0  0
   -0.4347    0.5170    1.1977 H   0  0  0  0  0  0  0  0  0  0  0  0
   -2.7956   -0.6709   -0.3476 H   0  0  0  0  0  0  0  0  0  0  0  0
   -1.8163   -1.5469    0.8375 H   0  0  0  0  0  0  0  0  0  0  0  0
    0.5033    2.3940   -1.4265 N   0  0  0  0  0  0  0  0  0  0  0  0
    1.3486    3.5915   -1.5102 C   0  0  2  0  0  0  0  0  0  0  0  0
    0.5242    4.8838   -1.3437 C   0  0  0  0  0  0  0  0  0  0  0  0
   -0.5742    4.9872   -1.8766 O   0  0  0  0  0  0  0  0  0  0  0  0
    2.0689    3.5996   -2.8623 C   0  0  0  0  0  0  0  0  0  0  0  0
   -0.5025    2.5185   -1.5469 H   0  0  0  0  0  0  0  0  0  0  0  0
    2.0924    3.5661   -0.7072 H   0  0  0  0  0  0  0  0  0  0  0  0
    1.3425    3.6087   -3.6813 H   0  0  0  0  0  0  0  0  0  0  0  0
    2.7049    4.4856   -2.9500 H   0  0  0  0  0  0  0  0  0  0  0  0
    2.6984    2.7101   -2.9649 H   0  0  0  0  0  0  0  0  0  0  0  0
    1.0268    5.9445   -0.6113 N   0  0  0  0  0  0  0  0  0  0  0  0
    0.2543    7.1473   -0.3273 C   0  0  0  0  0  0  0  0  0  0  0  0
    1.8962    5.7915   -0.1092 H   0  0  0  0  0  0  0  0  0  0  0  0
   -0.0198    7.6554   -1.2575 H   0  0  0  0  0  0  0  0  0  0  0  0
   -0.6606    6.8950    0.2195 H   0  0  0  0  0  0  0  0  0  0  0  0
    0.8426    7.8393    0.2827 H   0  0  0  0  0  0  0  0  0  0  0  0
  1  2  2  0  0  0  0
  1  3  1  0  0  0  0
  1  7  1  0  0  0  0
  3  4  1  0  0  0  0
  3  5  1  0  0  0  0
  3  6  1  0  0  0  0
  7  8  1  0  0  0  0
  7 12  1  0  0  0  0
  8  9  1  0  0  0  0
  8 11  1  0  0  0  0
  8 13  1  0  0  0  0
  9 10  2  0  0  0  0
  9 17  1  0  0  0  0
 11 14  1  0  0  0  0
 11 15  1  0  0  0  0
 11 16  1  0  0  0  0
 17 18  1  0  0  0  0
 17 26  1  0  0  0  0
 18 19  1  0  0  0  0
 18 21  1  0  0  0  0
 18 27  1  0  0  0  0
 19 20  2  0  0  0  0
 19 32  1  0  0  0  0
 21 22  1  0  0  0  0
 21 28  1  0  0  0  0
 21 29  1  0  0  0  0
 22 23  1  0  0  0  0
 22 30  1  0  0  0  0
 22 31  1  0  0  0  0
 23 24  1  0  0  0  0
 23 25  2  0  0  0  0
 32 33  1  0  0  0  0
 32 37  1  0  0  0  0
 33 34  1  0  0  0  0
 33 36  1  0  0  0  0
 33 38  1  0  0  0  0
 34 35  2  0  0  0  0
 34 42  1  0  0  0  0
 36 39  1  0  0  0  0
 36 40  1  0  0  0  0
 36 41  1  0  0  0  0
 42 43  1  0  0  0  0
 42 44  1  0  0  0  0
 43 45  1  0  0  0  0
 43 46  1  0  0  0  0
 43 47  1  0  0  0  0
M  CHG  1  24  -1
M  END
$$$$

  -OEChem-05262216243D

 47 46  0     1  0  0  0  0  0999 V2000
    0.0741   -5.6030    1.6481 C   0  0  0  0  0  0  0  0  0  0  0  0
    1.0938   -5.6226    2.3218 O   0  0  0  0  0  0  0  0  0  0  0  0
   -1.0770   -6.5336    1.9831 C   0  0  0  0  0  0  0  0  0  0  0  0
   -1.3475   -7.1256    1.1054 H   0  0  0  0  0  0  0  0  0  0  0  0
   -0.7927   -7.2120    2.7921 H   0  0  0  0  0  0  0  0  0  0  0  0
   -1.9451   -5.9497    2.3005 H   0  0  0  0  0  0  0  0  0  0  0  0
   -0.0382   -4.7413    0.5791 N   0  0  0  0  0  0  0  0  0  0  0  0
    0.8815   -3.6307    0.3065 C   0  0  2  0  0  0  0  0  0  0  0  0
    0.1513   -2.5033   -0.4504 C   0  0  0  0  0  0  0  0  0  0  0  0
   -0.8319   -2.7711   -1.1342 O   0  0  0  0  0  0  0  0  0  0  0  0
    2.0683   -4.1434   -0.5149 C   0  0  0  0  0  0  0  0  0  0  0  0
   -0.9478   -4.6870    0.1192 H   0  0  0  0  0  0  0  0  0  0  0  0
    1.2446   -3.2158    1.2528 H   0  0  0  0  0  0  0  0  0  0  0  0
    1.7227   -4.5584   -1.4672 H   0  0  0  0  0  0  0  0  0  0  0  0
    2.7687   -3.3286   -0.7229 H   0  0  0  0  0  0  0  0  0  0  0  0
    2.6019   -4.9250    0.0346 H   0  0  0  0  0  0  0  0  0  0  0  0
    0.6346   -1.2107   -0.4229 N   0  0  0  0  0  0  0  0  0  0  0  0
   -0.1280   -0.0022   -0.7845 C   0  0  2  0  0  0  0  0  0  0  0  0
    0.8579    1.1793   -0.9938 C   0  0  0  0  0  0  0  0  0  0  0  0
    2.0702    0.9754   -1.0202 O   0  0  0  0  0  0  0  0  0  0  0  0
   -1.0923    0.4018    0.3666 C   0  0  0  0  0  0  0  0  0  0  0  0
   -2.2544   -0.5701    0.6558 C   0  0  0  0  0  0  0  0  0  0  0  0
   -3.1400   -0.1042    1.8179 C   0  0  0  0  0  0  0  0  0  0  0  0
   -2.6452    0.6716    2.6757 O   0  5  0  0  0  0  0  0  0  0  0  0
   -4.3140   -0.5468    1.8525 O   0  0  0  0  0  0  0  0  0  0  0  0
    1.5112   -1.0565    0.0694 H   0  0  0  0  0  0  0  0  0  0  0  0
   -0.6917   -0.1653   -1.7086 H   0  0  0  0  0  0  0  0  0  0  0  0
   -1.5496    1.3701    0.1427 H   0  0  0  0  0  0  0  0  0  0  0  0
   -0.5005    0.5242    1.2808 H   0  0  0  0  0  0  0  0  0  0  0  0
   -2.8644   -0.6873   -0.2447 H   0  0  0  0  0  0  0  0  0  0  0  0
   -1.8634   -1.5484    0.9376 H   0  0  0  0  0  0  0  0  0  0  0  0
    0.4308    2.4953   -1.0442 N   0  0  0  0  0  0  0  0  0  0  0  0
    1.3172    3.6656   -1.0870 C   0  0  2  0  0  0  0  0  0  0  0  0
    0.6055    4.9412   -0.5917 C   0  0  0  0  0  0  0  0  0  0  0  0
   -0.5853    5.1130   -0.8242 O   0  0  0  0  0  0  0  0  0  0  0  0
    1.8099    3.8728   -2.5237 C   0  0  0  0  0  0  0  0  0  0  0  0
   -0.5691    2.6702   -0.9395 H   0  0  0  0  0  0  0  0  0  0  0  0
    2.1771    3.4896   -0.4326 H   0  0  0  0  0  0  0  0  0  0  0  0
    0.9630    4.0380   -3.1973 H   0  0  0  0  0  0  0  0  0  0  0  0
    2.4735    4.7411   -2.5779 H   0  0  0  0  0  0  0  0  0  0  0  0
    2.3636    2.9946   -2.8696 H   0  0  0  0  0  0  0  0  0  0  0  0
    1.3117    5.9150    0.0923 N   0  0  0  0  0  0  0  0  0  0  0  0
    0.6786    7.0938    0.6710 C   0  0  0  0  0  0  0  0  0  0  0  0
    2.2686    5.6962    0.3529 H   0  0  0  0  0  0  0  0  0  0  0  0
    0.1208    7.6461   -0.0929 H   0  0  0  0  0  0  0  0  0  0  0  0
   -0.0116    6.8024    1.4696 H   0  0  0  0  0  0  0  0  0  0  0  0
    1.4363    7.7615    1.0919 H   0  0  0  0  0  0  0  0  0  0  0  0
  1  2  2  0  0  0  0
  1  3  1  0  0  0  0
  1  7  1  0  0  0  0
  3  4  1  0  0  0  0
  3  5  1  0  0  0  0
  3  6  1  0  0  0  0
  7  8  1  0  0  0  0
  7 12  1  0  0  0  0
  8  9  1  0  0  0  0
  8 11  1  0  0  0  0
  8 13  1  0  0  0  0
  9 10  2  0  0  0  0
  9 17  1  0  0  0  0
 11 14  1  0  0  0  0
 11 15  1  0  0  0  0
 11 16  1  0  0  0  0
 17 18  1  0  0  0  0
 17 26  1  0  0  0  0
 18 19  1  0  0  0  0
 18 21  1  0  0  0  0
 18 27  1  0  0  0  0
 19 20  2  0  0  0  0
 19 32  1  0  0  0  0
 21 22  1  0  0  0  0
 21 28  1  0  0  0  0
 21 29  1  0  0  0  0
 22 23  1  0  0  0  0
 22 30  1  0  0  0  0
 22 31  1  0  0  0  0
 23 24  1  0  0  0  0
 23 25  2  0  0  0  0
 32 33  1  0  0  0  0
 32 37  1  0  0  0  0
 33 34  1  0  0  0  0
 33 36  1  0  0  0  0
 33 38  1  0  0  0  0
 34 35  2  0  0  0  0
 34 42  1  0  0  0  0
 36 39  1  0  0  0  0
 36 40  1  0  0  0  0
 36 41  1  0  0  0  0
 42 43  1  0  0  0  0
 42 44  1  0  0  0  0
 43 45  1  0  0  0  0
 43 46  1  0  0  0  0
 43 47  1  0  0  0  0
M  CHG  1  24  -1
M  END
$$$$

  -OEChem-05262216243D

 47 46  0     1  0  0  0  0  0999 V2000
    0.2154   -5.5825    1.6971 C   0  0  0  0  0  0  0  0  0  0  0  0
    1.2349   -5.5426    2.3706 O   0  0  0  0  0  0  0  0  0  0  0  0
   -0.8653   -6.5995    2.0146 C   0  0  0  0  0  0  0  0  0  0  0  0
   -0.9457   -7.3237    1.2004 H   0  0  0  0  0  0  0  0  0  0  0  0
   -0.6246   -7.1310    2.9395 H   0  0  0  0  0  0  0  0  0  0  0  0
   -1.8268   -6.0947    2.1403 H   0  0  0  0  0  0  0  0  0  0  0  0
    0.0487   -4.7200    0.6355 N   0  0  0  0  0  0  0  0  0  0  0  0
    0.9171   -3.5710    0.3549 C   0  0  2  0  0  0  0  0  0  0  0  0
    0.1366   -2.4677   -0.3870 C   0  0  0  0  0  0  0  0  0  0  0  0
   -0.8242   -2.7705   -1.0866 O   0  0  0  0  0  0  0  0  0  0  0  0
    2.1119   -4.0373   -0.4829 C   0  0  0  0  0  0  0  0  0  0  0  0
   -0.8605   -4.7186    0.1715 H   0  0  0  0  0  0  0  0  0  0  0  0
    1.2764   -3.1453    1.2980 H   0  0  0  0  0  0  0  0  0  0  0  0
    1.7690   -4.4729   -1.4269 H   0  0  0  0  0  0  0  0  0  0  0  0
    2.7735   -3.1952   -0.7073 H   0  0  0  0  0  0  0  0  0  0  0  0
    2.6872   -4.7925    0.0615 H   0  0  0  0  0  0  0  0  0  0  0  0
    0.5701   -1.1579   -0.3402 N   0  0  0  0  0  0  0  0  0  0  0  0
   -0.2122    0.0320   -0.7235 C   0  0  2  0  0  0  0  0  0  0  0  0
    0.7665    1.2292   -0.8856 C   0  0  0  0  0  0  0  0  0  0  0  0
    1.9468    1.0133   -1.1535 O   0  0  0  0  0  0  0  0  0  0  0  0
   -1.2557    0.3997    0.3680 C   0  0  0  0  0  0  0  0  0  0  0  0
   -2.4063   -0.6051    0.5792 C   0  0  0  0  0  0  0  0  0  0  0  0
   -3.3787   -0.1805    1.6868 C   0  0  0  0  0  0  0  0  0  0  0  0
   -4.2852   -0.9948    1.9880 O   0  5  0  0  0  0  0  0  0  0  0  0
   -3.2134    0.9378    2.2389 O   0  0  0  0  0  0  0  0  0  0  0  0
    1.4532   -0.9842    0.1324 H   0  0  0  0  0  0  0  0  0  0  0  0
   -0.7214   -0.1382   -1.6775 H   0  0  0  0  0  0  0  0  0  0  0  0
   -1.7277    1.3517    0.1054 H   0  0  0  0  0  0  0  0  0  0  0  0
   -0.7348    0.5402    1.3218 H   0  0  0  0  0  0  0  0  0  0  0  0
   -2.9597   -0.7323   -0.3555 H   0  0  0  0  0  0  0  0  0  0  0  0
   -2.0049   -1.5758    0.8731 H   0  0  0  0  0  0  0  0  0  0  0  0
    0.4070    2.5466   -0.6490 N   0  0  0  0  0  0  0  0  0  0  0  0
    1.3275    3.6892   -0.7387 C   0  0  2  0  0  0  0  0  0  0  0  0
    0.8794    4.8765    0.1367 C   0  0  0  0  0  0  0  0  0  0  0  0
   -0.2936    5.2273    0.1507 O   0  0  0  0  0  0  0  0  0  0  0  0
    1.4253    4.1268   -2.2038 C   0  0  0  0  0  0  0  0  0  0  0  0
   -0.5511    2.7309   -0.3480 H   0  0  0  0  0  0  0  0  0  0  0  0
    2.3196    3.3842   -0.3906 H   0  0  0  0  0  0  0  0  0  0  0  0
    0.4433    4.4366   -2.5754 H   0  0  0  0  0  0  0  0  0  0  0  0
    2.1181    4.9674   -2.3055 H   0  0  0  0  0  0  0  0  0  0  0  0
    1.7887    3.3027   -2.8251 H   0  0  0  0  0  0  0  0  0  0  0  0
    1.8097    5.5863    0.8756 N   0  0  0  0  0  0  0  0  0  0  0  0
    1.4490    6.6780    1.7711 C   0  0  0  0  0  0  0  0  0  0  0  0
    2.7574    5.2227    0.9024 H   0  0  0  0  0  0  0  0  0  0  0  0
    0.9415    7.4754    1.2184 H   0  0  0  0  0  0  0  0  0  0  0  0
    0.7841    6.3186    2.5635 H   0  0  0  0  0  0  0  0  0  0  0  0
    2.3465    7.0977    2.2351 H   0  0  0  0  0  0  0  0  0  0  0  0
  1  2  2  0  0  0  0
  1  3  1  0  0  0  0
  1  7  1  0  0  0  0
  3  4  1  0  0  0  0
  3  5  1  0  0  0  0
  3  6  1  0  0  0  0
  7  8  1  0  0  0  0
  7 12  1  0  0  0  0
  8  9  1  0  0  0  0
  8 11  1  0  0  0  0
  8 13  1  0  0  0  0
  9 10  2  0  0  0  0
  9 17  1  0  0  0  0
 11 14  1  0  0  0  0
 11 15  1  0  0  0  0
 11 16  1  0  0  0  0
 17 18  1  0  0  0  0
 17 26  1  0  0  0  0
 18 19  1  0  0  0  0
 18 21  1  0  0  0  0
 18 27  1  0  0  0  0
 19 20  2  0  0  0  0
 19 32  1  0  0  0  0
 21 22  1  0  0  0  0
 21 28  1  0  0  0  0
 21 29  1  0  0  0  0
 22 23  1  0  0  0  0
 22 30  1  0  0  0  0
 22 31  1  0  0  0  0
 23 24  1  0  0  0  0
 23 25  2  0  0  0  0
 32 33  1  0  0  0  0
 32 37  1  0  0  0  0
 33 34  1  0  0  0  0
 33 36  1  0  0  0  0
 33 38  1  0  0  0  0
 34 35  2  0  0  0  0
 34 42  1  0  0  0  0
 36 39  1  0  0  0  0
 36 40  1  0  0  0  0
 36 41  1  0  0  0  0
 42 43  1  0  0  0  0
 42 44  1  0  0  0  0
 43 45  1  0  0  0  0
 43 46  1  0  0  0  0
 43 47  1  0  0  0  0
M  CHG  1  24  -1
M  END
$$$$

  -OEChem-05262216243D

 47 46  0     1  0  0  0  0  0999 V2000
    0.1132   -5.5572    1.6954 C   0  0  0  0  0  0  0  0  0  0  0  0
    1.1086   -5.5545    2.4053 O   0  0  0  0  0  0  0  0  0  0  0  0
   -1.0206   -6.5259    1.9767 C   0  0  0  0  0  0  0  0  0  0  0  0
   -1.1643   -7.1895    1.1204 H   0  0  0  0  0  0  0  0  0  0  0  0
   -0.7929   -7.1302    2.8592 H   0  0  0  0  0  0  0  0  0  0  0  0
   -1.9456   -5.9719    2.1583 H   0  0  0  0  0  0  0  0  0  0  0  0
    0.0194   -4.6938    0.6258 N   0  0  0  0  0  0  0  0  0  0  0  0
    0.9445   -3.5853    0.3655 C   0  0  2  0  0  0  0  0  0  0  0  0
    0.2376   -2.4697   -0.4296 C   0  0  0  0  0  0  0  0  0  0  0  0
   -0.6642   -2.7616   -1.2082 O   0  0  0  0  0  0  0  0  0  0  0  0
    2.1550   -4.1108   -0.4116 C   0  0  0  0  0  0  0  0  0  0  0  0
   -0.8716   -4.6612    0.1285 H   0  0  0  0  0  0  0  0  0  0  0  0
    1.2786   -3.1584    1.3170 H   0  0  0  0  0  0  0  0  0  0  0  0
    1.8357   -4.5522   -1.3613 H   0  0  0  0  0  0  0  0  0  0  0  0
    2.8556   -3.2973   -0.6228 H   0  0  0  0  0  0  0  0  0  0  0  0
    2.6781   -4.8755    0.1709 H   0  0  0  0  0  0  0  0  0  0  0  0
    0.6570   -1.1581   -0.3241 N   0  0  0  0  0  0  0  0  0  0  0  0
   -0.1485    0.0237   -0.6881 C   0  0  2  0  0  0  0  0  0  0  0  0
    0.7973    1.2520   -0.7927 C   0  0  0  0  0  0  0  0  0  0  0  0
    1.8953    1.1160   -1.3252 O   0  0  0  0  0  0  0  0  0  0  0  0
   -1.2489    0.3213    0.3682 C   0  0  0  0  0  0  0  0  0  0  0  0
   -2.3767   -0.7247    0.4866 C   0  0  0  0  0  0  0  0  0  0  0  0
   -3.4129   -0.3769    1.5616 C   0  0  0  0  0  0  0  0  0  0  0  0
   -4.2393   -1.2724    1.8634 O   0  5  0  0  0  0  0  0  0  0  0  0
   -3.3730    0.7635    2.0897 O   0  0  0  0  0  0  0  0  0  0  0  0
    1.4662   -0.9916    0.2662 H   0  0  0  0  0  0  0  0  0  0  0  0
   -0.6187   -0.1285   -1.6651 H   0  0  0  0  0  0  0  0  0  0  0  0
   -1.7336    1.2699    0.1141 H   0  0  0  0  0  0  0  0  0  0  0  0
   -0.7779    0.4401    1.3503 H   0  0  0  0  0  0  0  0  0  0  0  0
   -2.8818   -0.8341   -0.4771 H   0  0  0  0  0  0  0  0  0  0  0  0
   -1.9580   -1.6927    0.7636 H   0  0  0  0  0  0  0  0  0  0  0  0
    0.5117    2.4955   -0.2504 N   0  0  0  0  0  0  0  0  0  0  0  0
    1.4230    3.6496   -0.2869 C   0  0  2  0  0  0  0  0  0  0  0  0
    1.2682    4.5752    0.9366 C   0  0  0  0  0  0  0  0  0  0  0  0
    0.2073    4.6370    1.5433 O   0  0  0  0  0  0  0  0  0  0  0  0
    1.1580    4.4315   -1.5769 C   0  0  0  0  0  0  0  0  0  0  0  0
   -0.3450    2.5878    0.2994 H   0  0  0  0  0  0  0  0  0  0  0  0
    2.4595    3.2975   -0.2888 H   0  0  0  0  0  0  0  0  0  0  0  0
    0.1272    4.8000   -1.5948 H   0  0  0  0  0  0  0  0  0  0  0  0
    1.8360    5.2867   -1.6525 H   0  0  0  0  0  0  0  0  0  0  0  0
    1.3137    3.7892   -2.4495 H   0  0  0  0  0  0  0  0  0  0  0  0
    2.3284    5.3630    1.3498 N   0  0  0  0  0  0  0  0  0  0  0  0
    2.2697    6.2289    2.5207 C   0  0  0  0  0  0  0  0  0  0  0  0
    3.2076    5.2651    0.8514 H   0  0  0  0  0  0  0  0  0  0  0  0
    1.4813    6.9797    2.4029 H   0  0  0  0  0  0  0  0  0  0  0  0
    2.0647    5.6402    3.4212 H   0  0  0  0  0  0  0  0  0  0  0  0
    3.2232    6.7480    2.6560 H   0  0  0  0  0  0  0  0  0  0  0  0
  1  2  2  0  0  0  0
  1  3  1  0  0  0  0
  1  7  1  0  0  0  0
  3  4  1  0  0  0  0
  3  5  1  0  0  0  0
  3  6  1  0  0  0  0
  7  8  1  0  0  0  0
  7 12  1  0  0  0  0
  8  9  1  0  0  0  0
  8 11  1  0  0  0  0
  8 13  1  0  0  0  0
  9 10  2  0  0  0  0
  9 17  1  0  0  0  0
 11 14  1  0  0  0  0
 11 15  1  0  0  0  0
 11 16  1  0  0  0  0
 17 18  1  0  0  0  0
 17 26  1  0  0  0  0
 18 19  1  0  0  0  0
 18 21  1  0  0  0  0
 18 27  1  0  0  0  0
 19 20  2  0  0  0  0
 19 32  1  0  0  0  0
 21 22  1  0  0  0  0
 21 28  1  0  0  0  0
 21 29  1  0  0  0  0
 22 23  1  0  0  0  0
 22 30  1  0  0  0  0
 22 31  1  0  0  0  0
 23 24  1  0  0  0  0
 23 25  2  0  0  0  0
 32 33  1  0  0  0  0
 32 37  1  0  0  0  0
 33 34  1  0  0  0  0
 33 36  1  0  0  0  0
 33 38  1  0  0  0  0
 34 35  2  0  0  0  0
 34 42  1  0  0  0  0
 36 39  1  0  0  0  0
 36 40  1  0  0  0  0
 36 41  1  0  0  0  0
 42 43  1  0  0  0  0
 42 44  1  0  0  0  0
 43 45  1  0  0  0  0
 43 46  1  0  0  0  0
 43 47  1  0  0  0  0
M  CHG  1  24  -1
M  END
$$$$

  -OEChem-05262216243D

 47 46  0     1  0  0  0  0  0999 V2000
    0.4593   -2.4843    2.1674 C   0  0  0  0  0  0  0  0  0  0  0  0
    1.4635   -1.8036    2.3345 O   0  0  0  0  0  0  0  0  0  0  0  0
   -0.7377   -2.3193    3.0845 C   0  0  0  0  0  0  0  0  0  0  0  0
   -1.1269   -3.2988    3.3725 H   0  0  0  0  0  0  0  0  0  0  0  0
   -0.4524   -1.7732    3.9873 H   0  0  0  0  0  0  0  0  0  0  0  0
   -1.5295   -1.7662    2.5729 H   0  0  0  0  0  0  0  0  0  0  0  0
    0.4028   -3.3472    1.0935 N   0  0  0  0  0  0  0  0  0  0  0  0
    1.4634   -3.4553    0.0708 C   0  0  2  0  0  0  0  0  0  0  0  0
    1.4069   -2.2959   -0.9566 C   0  0  0  0  0  0  0  0  0  0  0  0
    1.2564   -2.4946   -2.1568 O   0  0  0  0  0  0  0  0  0  0  0  0
    1.3205   -4.8354   -0.5822 C   0  0  0  0  0  0  0  0  0  0  0  0
   -0.5395   -3.6541    0.8410 H   0  0  0  0  0  0  0  0  0  0  0  0
    2.4453   -3.4111    0.5529 H   0  0  0  0  0  0  0  0  0  0  0  0
    0.3522   -4.9223   -1.0865 H   0  0  0  0  0  0  0  0  0  0  0  0
    2.1118   -4.9896   -1.3225 H   0  0  0  0  0  0  0  0  0  0  0  0
    1.3942   -5.6240    0.1726 H   0  0  0  0  0  0  0  0  0  0  0  0
    1.3868   -1.0021   -0.4791 N   0  0  0  0  0  0  0  0  0  0  0  0
    0.4707    0.0352   -0.9903 C   0  0  2  0  0  0  0  0  0  0  0  0
    0.9449    1.4392   -0.5371 C   0  0  0  0  0  0  0  0  0  0  0  0
    2.0730    1.8320   -0.8148 O   0  0  0  0  0  0  0  0  0  0  0  0
   -0.9635   -0.2353   -0.4607 C   0  0  0  0  0  0  0  0  0  0  0  0
   -1.6591   -1.5031   -0.9882 C   0  0  0  0  0  0  0  0  0  0  0  0
   -3.0350   -1.6364   -0.3514 C   0  0  0  0  0  0  0  0  0  0  0  0
   -3.9294   -0.8163   -0.6686 O   0  5  0  0  0  0  0  0  0  0  0  0
   -3.1323   -2.4979    0.5604 O   0  0  0  0  0  0  0  0  0  0  0  0
    1.5613   -0.9655    0.5283 H   0  0  0  0  0  0  0  0  0  0  0  0
    0.4614    0.0240   -2.0854 H   0  0  0  0  0  0  0  0  0  0  0  0
   -1.6035    0.6087   -0.7417 H   0  0  0  0  0  0  0  0  0  0  0  0
   -0.9366   -0.2824    0.6329 H   0  0  0  0  0  0  0  0  0  0  0  0
   -1.7674   -1.4358   -2.0746 H   0  0  0  0  0  0  0  0  0  0  0  0
   -1.1008   -2.4086   -0.7727 H   0  0  0  0  0  0  0  0  0  0  0  0
    0.1580    2.2736    0.2411 N   0  0  0  0  0  0  0  0  0  0  0  0
    0.5393    3.6265    0.6768 C   0  0  2  0  0  0  0  0  0  0  0  0
    1.5159    3.6275    1.8812 C   0  0  0  0  0  0  0  0  0  0  0  0
    1.2925    4.2813    2.8952 O   0  0  0  0  0  0  0  0  0  0  0  0
   -0.7626    4.3842    0.9650 C   0  0  0  0  0  0  0  0  0  0  0  0
   -0.7560    1.9186    0.5126 H   0  0  0  0  0  0  0  0  0  0  0  0
    1.0485    4.1380   -0.1466 H   0  0  0  0  0  0  0  0  0  0  0  0
   -1.3014    3.9192    1.7968 H   0  0  0  0  0  0  0  0  0  0  0  0
   -0.5472    5.4242    1.2288 H   0  0  0  0  0  0  0  0  0  0  0  0
   -1.4099    4.3800    0.0826 H   0  0  0  0  0  0  0  0  0  0  0  0
    2.6885    2.9028    1.7991 N   0  0  0  0  0  0  0  0  0  0  0  0
    3.6600    2.7852    2.8759 C   0  0  0  0  0  0  0  0  0  0  0  0
    2.8247    2.3681    0.9362 H   0  0  0  0  0  0  0  0  0  0  0  0
    4.0090    3.7752    3.1872 H   0  0  0  0  0  0  0  0  0  0  0  0
    3.2148    2.2784    3.7380 H   0  0  0  0  0  0  0  0  0  0  0  0
    4.5239    2.2044    2.5393 H   0  0  0  0  0  0  0  0  0  0  0  0
  1  2  2  0  0  0  0
  1  3  1  0  0  0  0
  1  7  1  0  0  0  0
  3  4  1  0  0  0  0
  3  5  1  0  0  0  0
  3  6  1  0  0  0  0
  7  8  1  0  0  0  0
  7 12  1  0  0  0  0
  8  9  1  0  0  0  0
  8 11  1  0  0  0  0
  8 13  1  0  0  0  0
  9 10  2  0  0  0  0
  9 17  1  0  0  0  0
 11 14  1  0  0  0  0
 11 15  1  0  0  0  0
 11 16  1  0  0  0  0
 17 18  1  0  0  0  0
 17 26  1  0  0  0  0
 18 19  1  0  0  0  0
 18 21  1  0  0  0  0
 18 27  1  0  0  0  0
 19 20  2  0  0  0  0
 19 32  1  0  0  0  0
 21 22  1  0  0  0  0
 21 28  1  0  0  0  0
 21 29  1  0  0  0  0
 22 23  1  0  0  0  0
 22 30  1  0  0  0  0
 22 31  1  0  0  0  0
 23 24  1  0  0  0  0
 23 25  2  0  0  0  0
 32 33  1  0  0  0  0
 32 37  1  0  0  0  0
 33 34  1  0  0  0  0
 33 36  1  0  0  0  0
 33 38  1  0  0  0  0
 34 35  2  0  0  0  0
 34 42  1  0  0  0  0
 36 39  1  0  0  0  0
 36 40  1  0  0  0  0
 36 41  1  0  0  0  0
 42 43  1  0  0  0  0
 42 44  1  0  0  0  0
 43 45  1  0  0  0  0
 43 46  1  0  0  0  0
 43 47  1  0  0  0  0
M  CHG  1  24  -1
M  END
$$$$

  -OEChem-05262216243D

 47 46  0     1  0  0  0  0  0999 V2000
    0.5430   -2.7181    2.0959 C   0  0  0  0  0  0  0  0  0  0  0  0
    1.5282   -2.0226    2.3085 O   0  0  0  0  0  0  0  0  0  0  0  0
   -0.6487   -2.6636    3.0325 C   0  0  0  0  0  0  0  0  0  0  0  0
   -1.0408   -3.6696    3.2006 H   0  0  0  0  0  0  0  0  0  0  0  0
   -0.3567   -2.2334    3.9939 H   0  0  0  0  0  0  0  0  0  0  0  0
   -1.4401   -2.0494    2.5955 H   0  0  0  0  0  0  0  0  0  0  0  0
    0.4997   -3.4892    0.9539 N   0  0  0  0  0  0  0  0  0  0  0  0
    1.5548   -3.4854   -0.0797 C   0  0  2  0  0  0  0  0  0  0  0  0
    1.4669   -2.2448   -1.0053 C   0  0  0  0  0  0  0  0  0  0  0  0
    1.3122   -2.3472   -2.2167 O   0  0  0  0  0  0  0  0  0  0  0  0
    1.4357   -4.8086   -0.8454 C   0  0  0  0  0  0  0  0  0  0  0  0
   -0.4364   -3.7984    0.6822 H   0  0  0  0  0  0  0  0  0  0  0  0
    2.5389   -3.4615    0.3992 H   0  0  0  0  0  0  0  0  0  0  0  0
    0.4666   -4.8729   -1.3513 H   0  0  0  0  0  0  0  0  0  0  0  0
    2.2256   -4.8848   -1.5991 H   0  0  0  0  0  0  0  0  0  0  0  0
    1.5286   -5.6555   -0.1589 H   0  0  0  0  0  0  0  0  0  0  0  0
    1.4339   -0.9939   -0.4237 N   0  0  0  0  0  0  0  0  0  0  0  0
    0.4971    0.0663   -0.8442 C   0  0  2  0  0  0  0  0  0  0  0  0
    0.9460    1.4398   -0.2893 C   0  0  0  0  0  0  0  0  0  0  0  0
    1.9414    1.9938   -0.7422 O   0  0  0  0  0  0  0  0  0  0  0  0
   -0.9274   -0.2646   -0.3236 C   0  0  0  0  0  0  0  0  0  0  0  0
   -1.6113   -1.4973   -0.9417 C   0  0  0  0  0  0  0  0  0  0  0  0
   -2.9790   -1.7019   -0.3053 C   0  0  0  0  0  0  0  0  0  0  0  0
   -3.8912   -0.8764   -0.5483 O   0  5  0  0  0  0  0  0  0  0  0  0
   -3.0511   -2.6335    0.5376 O   0  0  0  0  0  0  0  0  0  0  0  0
    1.6076   -1.0421    0.5834 H   0  0  0  0  0  0  0  0  0  0  0  0
    0.4757    0.1384   -1.9369 H   0  0  0  0  0  0  0  0  0  0  0  0
   -1.5778    0.5951   -0.5225 H   0  0  0  0  0  0  0  0  0  0  0  0
   -0.8876   -0.4066    0.7610 H   0  0  0  0  0  0  0  0  0  0  0  0
   -1.7325   -1.3458   -2.0183 H   0  0  0  0  0  0  0  0  0  0  0  0
   -1.0376   -2.4085   -0.8038 H   0  0  0  0  0  0  0  0  0  0  0  0
    0.3042    2.0520    0.7756 N   0  0  0  0  0  0  0  0  0  0  0  0
    0.6415    3.3822    1.3086 C   0  0  2  0  0  0  0  0  0  0  0  0
    1.8752    3.3699    2.2475 C   0  0  0  0  0  0  0  0  0  0  0  0
    1.8474    3.8884    3.3593 O   0  0  0  0  0  0  0  0  0  0  0  0
   -0.6213    3.9209    1.9930 C   0  0  0  0  0  0  0  0  0  0  0  0
   -0.5033    1.5684    1.1611 H   0  0  0  0  0  0  0  0  0  0  0  0
    0.8813    4.0526    0.4766 H   0  0  0  0  0  0  0  0  0  0  0  0
   -0.8926    3.2937    2.8484 H   0  0  0  0  0  0  0  0  0  0  0  0
   -0.4541    4.9419    2.3504 H   0  0  0  0  0  0  0  0  0  0  0  0
   -1.4598    3.9361    1.2897 H   0  0  0  0  0  0  0  0  0  0  0  0
    3.0503    2.7901    1.8116 N   0  0  0  0  0  0  0  0  0  0  0  0
    4.2554    2.6674    2.6177 C   0  0  0  0  0  0  0  0  0  0  0  0
    3.0251    2.3777    0.8745 H   0  0  0  0  0  0  0  0  0  0  0  0
    4.5928    3.6528    2.9549 H   0  0  0  0  0  0  0  0  0  0  0  0
    4.0664    2.0382    3.4936 H   0  0  0  0  0  0  0  0  0  0  0  0
    5.0563    2.2105    2.0287 H   0  0  0  0  0  0  0  0  0  0  0  0
  1  2  2  0  0  0  0
  1  3  1  0  0  0  0
  1  7  1  0  0  0  0
  3  4  1  0  0  0  0
  3  5  1  0  0  0  0
  3  6  1  0  0  0  0
  7  8  1  0  0  0  0
  7 12  1  0  0  0  0
  8  9  1  0  0  0  0
  8 11  1  0  0  0  0
  8 13  1  0  0  0  0
  9 10  2  0  0  0  0
  9 17  1  0  0  0  0
 11 14  1  0  0  0  0
 11 15  1  0  0  0  0
 11 16  1  0  0  0  0
 17 18  1  0  0  0  0
 17 26  1  0  0  0  0
 18 19  1  0  0  0  0
 18 21  1  0  0  0  0
 18 27  1  0  0  0  0
 19 20  2  0  0  0  0
 19 32  1  0  0  0  0
 21 22  1  0  0  0  0
 21 28  1  0  0  0  0
 21 29  1  0  0  0  0
 22 23  1  0  0  0  0
 22 30  1  0  0  0  0
 22 31  1  0  0  0  0
 23 24  1  0  0  0  0
 23 25  2  0  0  0  0
 32 33  1  0  0  0  0
 32 37  1  0  0  0  0
 33 34  1  0  0  0  0
 33 36  1  0  0  0  0
 33 38  1  0  0  0  0
 34 35  2  0  0  0  0
 34 42  1  0  0  0  0
 36 39  1  0  0  0  0
 36 40  1  0  0  0  0
 36 41  1  0  0  0  0
 42 43  1  0  0  0  0
 42 44  1  0  0  0  0
 43 45  1  0  0  0  0
 43 46  1  0  0  0  0
 43 47  1  0  0  0  0
M  CHG  1  24  -1
M  END
$$$$

  -OEChem-05262216243D

 47 46  0     1  0  0  0  0  0999 V2000
    0.4524   -2.8031    2.0959 C   0  0  0  0  0  0  0  0  0  0  0  0
    1.4538   -2.1351    2.3212 O   0  0  0  0  0  0  0  0  0  0  0  0
   -0.7339   -2.7389    3.0386 C   0  0  0  0  0  0  0  0  0  0  0  0
   -1.2154   -3.7177    3.1043 H   0  0  0  0  0  0  0  0  0  0  0  0
   -0.4076   -2.4381    4.0374 H   0  0  0  0  0  0  0  0  0  0  0  0
   -1.4659   -2.0154    2.6713 H   0  0  0  0  0  0  0  0  0  0  0  0
    0.3896   -3.5518    0.9395 N   0  0  0  0  0  0  0  0  0  0  0  0
    1.4472   -3.5649   -0.0924 C   0  0  2  0  0  0  0  0  0  0  0  0
    1.4115   -2.3010   -0.9898 C   0  0  0  0  0  0  0  0  0  0  0  0
    1.2557   -2.3669   -2.2033 O   0  0  0  0  0  0  0  0  0  0  0  0
    1.2816   -4.8638   -0.8901 C   0  0  0  0  0  0  0  0  0  0  0  0
   -0.5548   -3.8287    0.6619 H   0  0  0  0  0  0  0  0  0  0  0  0
    2.4295   -3.5899    0.3900 H   0  0  0  0  0  0  0  0  0  0  0  0
    0.3111   -4.8807   -1.3970 H   0  0  0  0  0  0  0  0  0  0  0  0
    2.0689   -4.9490   -1.6455 H   0  0  0  0  0  0  0  0  0  0  0  0
    1.3448   -5.7302   -0.2250 H   0  0  0  0  0  0  0  0  0  0  0  0
    1.4316   -1.0655   -0.3765 N   0  0  0  0  0  0  0  0  0  0  0  0
    0.5422    0.0444   -0.7679 C   0  0  2  0  0  0  0  0  0  0  0  0
    1.0553    1.3755   -0.1750 C   0  0  0  0  0  0  0  0  0  0  0  0
    1.9223    2.0208   -0.7535 O   0  0  0  0  0  0  0  0  0  0  0  0
   -0.8945   -0.2292   -0.2492 C   0  0  0  0  0  0  0  0  0  0  0  0
   -1.6332   -1.4148   -0.8954 C   0  0  0  0  0  0  0  0  0  0  0  0
   -3.0083   -1.5735   -0.2622 C   0  0  0  0  0  0  0  0  0  0  0  0
   -3.9057   -0.7418   -0.5357 O   0  5  0  0  0  0  0  0  0  0  0  0
   -3.1030   -2.4834    0.6020 O   0  0  0  0  0  0  0  0  0  0  0  0
    1.5973   -1.1500    0.6298 H   0  0  0  0  0  0  0  0  0  0  0  0
    0.5222    0.1466   -1.8584 H   0  0  0  0  0  0  0  0  0  0  0  0
   -1.5008    0.6678   -0.4210 H   0  0  0  0  0  0  0  0  0  0  0  0
   -0.8612   -0.4019    0.8310 H   0  0  0  0  0  0  0  0  0  0  0  0
   -1.7476   -1.2322   -1.9678 H   0  0  0  0  0  0  0  0  0  0  0  0
   -1.1006   -2.3537   -0.7805 H   0  0  0  0  0  0  0  0  0  0  0  0
    0.6458    1.8202    1.0712 N   0  0  0  0  0  0  0  0  0  0  0  0
    1.1021    3.0644    1.7100 C   0  0  2  0  0  0  0  0  0  0  0  0
    2.4975    2.9266    2.3697 C   0  0  0  0  0  0  0  0  0  0  0  0
    2.6967    3.2452    3.5377 O   0  0  0  0  0  0  0  0  0  0  0  0
    0.0112    3.4829    2.7032 C   0  0  0  0  0  0  0  0  0  0  0  0
   -0.0221    1.2374    1.5691 H   0  0  0  0  0  0  0  0  0  0  0  0
    1.1833    3.8500    0.9515 H   0  0  0  0  0  0  0  0  0  0  0  0
   -0.0950    2.7348    3.4953 H   0  0  0  0  0  0  0  0  0  0  0  0
    0.2646    4.4428    3.1638 H   0  0  0  0  0  0  0  0  0  0  0  0
   -0.9502    3.5897    2.1914 H   0  0  0  0  0  0  0  0  0  0  0  0
    3.5521    2.4476    1.6178 N   0  0  0  0  0  0  0  0  0  0  0  0
    4.8769    2.1675    2.1502 C   0  0  0  0  0  0  0  0  0  0  0  0
    3.3289    2.1819    0.6542 H   0  0  0  0  0  0  0  0  0  0  0  0
    5.2972    3.0601    2.6247 H   0  0  0  0  0  0  0  0  0  0  0  0
    4.8265    1.3629    2.8909 H   0  0  0  0  0  0  0  0  0  0  0  0
    5.5478    1.8569    1.3438 H   0  0  0  0  0  0  0  0  0  0  0  0
  1  2  2  0  0  0  0
  1  3  1  0  0  0  0
  1  7  1  0  0  0  0
  3  4  1  0  0  0  0
  3  5  1  0  0  0  0
  3  6  1  0  0  0  0
  7  8  1  0  0  0  0
  7 12  1  0  0  0  0
  8  9  1  0  0  0  0
  8 11  1  0  0  0  0
  8 13  1  0  0  0  0
  9 10  2  0  0  0  0
  9 17  1  0  0  0  0
 11 14  1  0  0  0  0
 11 15  1  0  0  0  0
 11 16  1  0  0  0  0
 17 18  1  0  0  0  0
 17 26  1  0  0  0  0
 18 19  1  0  0  0  0
 18 21  1  0  0  0  0
 18 27  1  0  0  0  0
 19 20  2  0  0  0  0
 19 32  1  0  0  0  0
 21 22  1  0  0  0  0
 21 28  1  0  0  0  0
 21 29  1  0  0  0  0
 22 23  1  0  0  0  0
 22 30  1  0  0  0  0
 22 31  1  0  0  0  0
 23 24  1  0  0  0  0
 23 25  2  0  0  0  0
 32 33  1  0  0  0  0
 32 37  1  0  0  0  0
 33 34  1  0  0  0  0
 33 36  1  0  0  0  0
 33 38  1  0  0  0  0
 34 35  2  0  0  0  0
 34 42  1  0  0  0  0
 36 39  1  0  0  0  0
 36 40  1  0  0  0  0
 36 41  1  0  0  0  0
 42 43  1  0  0  0  0
 42 44  1  0  0  0  0
 43 45  1  0  0  0  0
 43 46  1  0  0  0  0
 43 47  1  0  0  0  0
M  CHG  1  24  -1
M  END
$$$$

  -OEChem-05262216243D

 47 46  0     1  0  0  0  0  0999 V2000
    0.3478   -2.9182    2.0726 C   0  0  0  0  0  0  0  0  0  0  0  0
    1.3288   -2.2332    2.3369 O   0  0  0  0  0  0  0  0  0  0  0  0
   -0.8724   -2.8687    2.9722 C   0  0  0  0  0  0  0  0  0  0  0  0
   -1.4701   -3.7759    2.8516 H   0  0  0  0  0  0  0  0  0  0  0  0
   -0.5675   -2.7837    4.0181 H   0  0  0  0  0  0  0  0  0  0  0  0
   -1.4946   -2.0091    2.7108 H   0  0  0  0  0  0  0  0  0  0  0  0
    0.3362   -3.6632    0.9112 N   0  0  0  0  0  0  0  0  0  0  0  0
    1.4252   -3.6621   -0.0881 C   0  0  2  0  0  0  0  0  0  0  0  0
    1.4241   -2.3838   -0.9662 C   0  0  0  0  0  0  0  0  0  0  0  0
    1.2858   -2.4213   -2.1827 O   0  0  0  0  0  0  0  0  0  0  0  0
    1.2788   -4.9447   -0.9152 C   0  0  0  0  0  0  0  0  0  0  0  0
   -0.5948   -3.9491    0.6015 H   0  0  0  0  0  0  0  0  0  0  0  0
    2.3912   -3.7004    0.4256 H   0  0  0  0  0  0  0  0  0  0  0  0
    0.3266   -4.9448   -1.4561 H   0  0  0  0  0  0  0  0  0  0  0  0
    2.0913   -5.0216   -1.6445 H   0  0  0  0  0  0  0  0  0  0  0  0
    1.3124   -5.8238   -0.2647 H   0  0  0  0  0  0  0  0  0  0  0  0
    1.4602   -1.1652   -0.3235 N   0  0  0  0  0  0  0  0  0  0  0  0
    0.5993   -0.0262   -0.6904 C   0  0  2  0  0  0  0  0  0  0  0  0
    1.1506    1.2613   -0.0475 C   0  0  0  0  0  0  0  0  0  0  0  0
    1.8236    2.0525   -0.6984 O   0  0  0  0  0  0  0  0  0  0  0  0
   -0.8479   -0.2647   -0.1894 C   0  0  0  0  0  0  0  0  0  0  0  0
   -1.6062   -1.4146   -0.8759 C   0  0  0  0  0  0  0  0  0  0  0  0
   -2.9954   -1.5606   -0.2714 C   0  0  0  0  0  0  0  0  0  0  0  0
   -3.8790   -0.7186   -0.5575 O   0  5  0  0  0  0  0  0  0  0  0  0
   -3.1214   -2.4841    0.5749 O   0  0  0  0  0  0  0  0  0  0  0  0
    1.6080   -1.2829    0.6819 H   0  0  0  0  0  0  0  0  0  0  0  0
    0.5914    0.1088   -1.7777 H   0  0  0  0  0  0  0  0  0  0  0  0
   -1.4247    0.6542   -0.3463 H   0  0  0  0  0  0  0  0  0  0  0  0
   -0.8343   -0.4599    0.8867 H   0  0  0  0  0  0  0  0  0  0  0  0
   -1.6975   -1.2027   -1.9450 H   0  0  0  0  0  0  0  0  0  0  0  0
   -1.0961   -2.3677   -0.7766 H   0  0  0  0  0  0  0  0  0  0  0  0
    0.9879    1.5000    1.3068 N   0  0  0  0  0  0  0  0  0  0  0  0
    1.5194    2.6717    2.0199 C   0  0  2  0  0  0  0  0  0  0  0  0
    3.0339    2.5575    2.3319 C   0  0  0  0  0  0  0  0  0  0  0  0
    3.4861    2.8036    3.4457 O   0  0  0  0  0  0  0  0  0  0  0  0
    0.6641    2.8506    3.2799 C   0  0  0  0  0  0  0  0  0  0  0  0
    0.5260    0.7727    1.8474 H   0  0  0  0  0  0  0  0  0  0  0  0
    1.3877    3.5613    1.3951 H   0  0  0  0  0  0  0  0  0  0  0  0
    0.7832    1.9925    3.9493 H   0  0  0  0  0  0  0  0  0  0  0  0
    0.9640    3.7554    3.8176 H   0  0  0  0  0  0  0  0  0  0  0  0
   -0.3932    2.9435    3.0129 H   0  0  0  0  0  0  0  0  0  0  0  0
    3.9059    2.1978    1.3229 N   0  0  0  0  0  0  0  0  0  0  0  0
    5.3461    2.0694    1.4837 C   0  0  0  0  0  0  0  0  0  0  0  0
    3.4883    2.0669    0.3971 H   0  0  0  0  0  0  0  0  0  0  0  0
    5.7903    3.0380    1.7345 H   0  0  0  0  0  0  0  0  0  0  0  0
    5.5815    1.3545    2.2790 H   0  0  0  0  0  0  0  0  0  0  0  0
    5.7956    1.7100    0.5531 H   0  0  0  0  0  0  0  0  0  0  0  0
  1  2  2  0  0  0  0
  1  3  1  0  0  0  0
  1  7  1  0  0  0  0
  3  4  1  0  0  0  0
  3  5  1  0  0  0  0
  3  6  1  0  0  0  0
  7  8  1  0  0  0  0
  7 12  1  0  0  0  0
  8  9  1  0  0  0  0
  8 11  1  0  0  0  0
  8 13  1  0  0  0  0
  9 10  2  0  0  0  0
  9 17  1  0  0  0  0
 11 14  1  0  0  0  0
 11 15  1  0  0  0  0
 11 16  1  0  0  0  0
 17 18  1  0  0  0  0
 17 26  1  0  0  0  0
 18 19  1  0  0  0  0
 18 21  1  0  0  0  0
 18 27  1  0  0  0  0
 19 20  2  0  0  0  0
 19 32  1  0  0  0  0
 21 22  1  0  0  0  0
 21 28  1  0  0  0  0
 21 29  1  0  0  0  0
 22 23  1  0  0  0  0
 22 30  1  0  0  0  0
 22 31  1  0  0  0  0
 23 24  1  0  0  0  0
 23 25  2  0  0  0  0
 32 33  1  0  0  0  0
 32 37  1  0  0  0  0
 33 34  1  0  0  0  0
 33 36  1  0  0  0  0
 33 38  1  0  0  0  0
 34 35  2  0  0  0  0
 34 42  1  0  0  0  0
 36 39  1  0  0  0  0
 36 40  1  0  0  0  0
 36 41  1  0  0  0  0
 42 43  1  0  0  0  0
 42 44  1  0  0  0  0
 43 45  1  0  0  0  0
 43 46  1  0  0  0  0
 43 47  1  0  0  0  0
M  CHG  1  24  -1
M  END
$$$$

  -OEChem-05262216243D

 47 46  0     1  0  0  0  0  0999 V2000
    0.4686   -5.2691    1.8827 C   0  0  0  0  0  0  0  0  0  0  0  0
    1.1815   -5.1008    2.8611 O   0  0  0  0  0  0  0  0  0  0  0  0
   -0.4453   -6.4787    1.8094 C   0  0  0  0  0  0  0  0  0  0  0  0
   -0.2113   -7.0699    0.9207 H   0  0  0  0  0  0  0  0  0  0  0  0
   -0.3156   -7.1063    2.6954 H   0  0  0  0  0  0  0  0  0  0  0  0
   -1.4875   -6.1532    1.7572 H   0  0  0  0  0  0  0  0  0  0  0  0
    0.4925   -4.3742    0.8354 N   0  0  0  0  0  0  0  0  0  0  0  0
    1.1656   -3.0698    0.8614 C   0  0  2  0  0  0  0  0  0  0  0  0
    0.4827   -2.0904   -0.1153 C   0  0  0  0  0  0  0  0  0  0  0  0
   -0.1809   -2.5302   -1.0486 O   0  0  0  0  0  0  0  0  0  0  0  0
    2.6395   -3.2533    0.4852 C   0  0  0  0  0  0  0  0  0  0  0  0
   -0.2006   -4.5004    0.0967 H   0  0  0  0  0  0  0  0  0  0  0  0
    1.0974   -2.6392    1.8663 H   0  0  0  0  0  0  0  0  0  0  0  0
    2.7262   -3.6788   -0.5195 H   0  0  0  0  0  0  0  0  0  0  0  0
    3.1609   -2.2913    0.5032 H   0  0  0  0  0  0  0  0  0  0  0  0
    3.1329   -3.9251    1.1940 H   0  0  0  0  0  0  0  0  0  0  0  0
    0.7020   -0.7334    0.0021 N   0  0  0  0  0  0  0  0  0  0  0  0
   -0.0352    0.3306   -0.7075 C   0  0  2  0  0  0  0  0  0  0  0  0
    0.7796    1.6325   -0.5780 C   0  0  0  0  0  0  0  0  0  0  0  0
    1.4926    2.0112   -1.5003 O   0  0  0  0  0  0  0  0  0  0  0  0
   -1.4237    0.6196   -0.0819 C   0  0  0  0  0  0  0  0  0  0  0  0
   -2.4729   -0.5027   -0.1943 C   0  0  0  0  0  0  0  0  0  0  0  0
   -3.8085   -0.1407    0.4710 C   0  0  0  0  0  0  0  0  0  0  0  0
   -4.7202   -1.0022    0.4219 O   0  5  0  0  0  0  0  0  0  0  0  0
   -3.9152    0.9759    1.0433 O   0  0  0  0  0  0  0  0  0  0  0  0
    1.3782   -0.4513    0.7166 H   0  0  0  0  0  0  0  0  0  0  0  0
   -0.1486    0.0771   -1.7670 H   0  0  0  0  0  0  0  0  0  0  0  0
   -1.8395    1.5128   -0.5624 H   0  0  0  0  0  0  0  0  0  0  0  0
   -1.2973    0.8476    0.9815 H   0  0  0  0  0  0  0  0  0  0  0  0
   -2.6482   -0.7359   -1.2483 H   0  0  0  0  0  0  0  0  0  0  0  0
   -2.1057   -1.4049    0.2973 H   0  0  0  0  0  0  0  0  0  0  0  0
    1.0312    2.1269    0.6908 N   0  0  0  0  0  0  0  0  0  0  0  0
    2.3699    2.5961    1.0630 C   0  0  2  0  0  0  0  0  0  0  0  0
    3.3278    1.4069    1.3046 C   0  0  0  0  0  0  0  0  0  0  0  0
    2.8853    0.3178    1.6655 O   0  0  0  0  0  0  0  0  0  0  0  0
    2.2355    3.4473    2.3270 C   0  0  0  0  0  0  0  0  0  0  0  0
    0.5043    1.6532    1.4213 H   0  0  0  0  0  0  0  0  0  0  0  0
    2.7832    3.2227    0.2656 H   0  0  0  0  0  0  0  0  0  0  0  0
    1.8336    2.8497    3.1519 H   0  0  0  0  0  0  0  0  0  0  0  0
    3.2104    3.8434    2.6270 H   0  0  0  0  0  0  0  0  0  0  0  0
    1.5603    4.2895    2.1454 H   0  0  0  0  0  0  0  0  0  0  0  0
    4.6888    1.5527    1.1111 N   0  0  0  0  0  0  0  0  0  0  0  0
    5.6265    0.4407    1.2040 C   0  0  0  0  0  0  0  0  0  0  0  0
    5.0019    2.4199    0.6849 H   0  0  0  0  0  0  0  0  0  0  0  0
    5.5332   -0.0622    2.1726 H   0  0  0  0  0  0  0  0  0  0  0  0
    5.4357   -0.2877    0.4087 H   0  0  0  0  0  0  0  0  0  0  0  0
    6.6535    0.8049    1.1043 H   0  0  0  0  0  0  0  0  0  0  0  0
  1  2  2  0  0  0  0
  1  3  1  0  0  0  0
  1  7  1  0  0  0  0
  3  4  1  0  0  0  0
  3  5  1  0  0  0  0
  3  6  1  0  0  0  0
  7  8  1  0  0  0  0
  7 12  1  0  0  0  0
  8  9  1  0  0  0  0
  8 11  1  0  0  0  0
  8 13  1  0  0  0  0
  9 10  2  0  0  0  0
  9 17  1  0  0  0  0
 11 14  1  0  0  0  0
 11 15  1  0  0  0  0
 11 16  1  0  0  0  0
 17 18  1  0  0  0  0
 17 26  1  0  0  0  0
 18 19  1  0  0  0  0
 18 21  1  0  0  0  0
 18 27  1  0  0  0  0
 19 20  2  0  0  0  0
 19 32  1  0  0  0  0
 21 22  1  0  0  0  0
 21 28  1  0  0  0  0
 21 29  1  0  0  0  0
 22 23  1  0  0  0  0
 22 30  1  0  0  0  0
 22 31  1  0  0  0  0
 23 24  1  0  0  0  0
 23 25  2  0  0  0  0
 32 33  1  0  0  0  0
 32 37  1  0  0  0  0
 33 34  1  0  0  0  0
 33 36  1  0  0  0  0
 33 38  1  0  0  0  0
 34 35  2  0  0  0  0
 34 42  1  0  0  0  0
 36 39  1  0  0  0  0
 36 40  1  0  0  0  0
 36 41  1  0  0  0  0
 42 43  1  0  0  0  0
 42 44  1  0  0  0  0
 43 45  1  0  0  0  0
 43 46  1  0  0  0  0
 43 47  1  0  0  0  0
M  CHG  1  24  -1
M  END
$$$$

  -OEChem-05262216243D

 47 46  0     1  0  0  0  0  0999 V2000
    0.4674   -5.3245    1.8684 C   0  0  0  0  0  0  0  0  0  0  0  0
    1.2604   -5.1889    2.7883 O   0  0  0  0  0  0  0  0  0  0  0  0
   -0.5311   -6.4671    1.8904 C   0  0  0  0  0  0  0  0  0  0  0  0
   -0.3956   -7.0988    1.0092 H   0  0  0  0  0  0  0  0  0  0  0  0
   -0.3895   -7.0761    2.7873 H   0  0  0  0  0  0  0  0  0  0  0  0
   -1.5492   -6.0695    1.8915 H   0  0  0  0  0  0  0  0  0  0  0  0
    0.4747   -4.4515    0.8027 N   0  0  0  0  0  0  0  0  0  0  0  0
    1.2225   -3.1893    0.7629 C   0  0  2  0  0  0  0  0  0  0  0  0
    0.4920   -2.1589   -0.1217 C   0  0  0  0  0  0  0  0  0  0  0  0
   -0.2237   -2.5523   -1.0369 O   0  0  0  0  0  0  0  0  0  0  0  0
    2.6292   -3.4593    0.2208 C   0  0  0  0  0  0  0  0  0  0  0  0
   -0.2742   -4.5453    0.1161 H   0  0  0  0  0  0  0  0  0  0  0  0
    1.2964   -2.7686    1.7716 H   0  0  0  0  0  0  0  0  0  0  0  0
    2.5748   -3.8812   -0.7877 H   0  0  0  0  0  0  0  0  0  0  0  0
    3.2080   -2.5318    0.1797 H   0  0  0  0  0  0  0  0  0  0  0  0
    3.1563   -4.1661    0.8688 H   0  0  0  0  0  0  0  0  0  0  0  0
    0.7260   -0.8105    0.0576 N   0  0  0  0  0  0  0  0  0  0  0  0
    0.0178    0.2953   -0.6218 C   0  0  2  0  0  0  0  0  0  0  0  0
    0.8325    1.5891   -0.4297 C   0  0  0  0  0  0  0  0  0  0  0  0
    1.3639    2.1355   -1.3891 O   0  0  0  0  0  0  0  0  0  0  0  0
   -1.3611    0.5936    0.0189 C   0  0  0  0  0  0  0  0  0  0  0  0
   -2.4305   -0.4988   -0.1258 C   0  0  0  0  0  0  0  0  0  0  0  0
   -3.7160   -0.0621    0.5759 C   0  0  0  0  0  0  0  0  0  0  0  0
   -3.6969   -0.0203    1.8326 O   0  5  0  0  0  0  0  0  0  0  0  0
   -4.6895    0.2856   -0.1368 O   0  0  0  0  0  0  0  0  0  0  0  0
    1.5044   -0.5780    0.6793 H   0  0  0  0  0  0  0  0  0  0  0  0
   -0.0960    0.0851   -1.6908 H   0  0  0  0  0  0  0  0  0  0  0  0
   -1.7638    1.5081   -0.4313 H   0  0  0  0  0  0  0  0  0  0  0  0
   -1.2232    0.7893    1.0881 H   0  0  0  0  0  0  0  0  0  0  0  0
   -2.6254   -0.6993   -1.1835 H   0  0  0  0  0  0  0  0  0  0  0  0
   -2.0963   -1.4262    0.3427 H   0  0  0  0  0  0  0  0  0  0  0  0
    1.3243    1.8627    0.8354 N   0  0  0  0  0  0  0  0  0  0  0  0
    2.7134    2.2858    1.0369 C   0  0  2  0  0  0  0  0  0  0  0  0
    3.6665    1.0728    0.9687 C   0  0  0  0  0  0  0  0  0  0  0  0
    3.2769   -0.0332    1.3385 O   0  0  0  0  0  0  0  0  0  0  0  0
    2.8085    2.9695    2.4015 C   0  0  0  0  0  0  0  0  0  0  0  0
    0.9250    1.2723    1.5619 H   0  0  0  0  0  0  0  0  0  0  0  0
    3.0054    3.0077    0.2669 H   0  0  0  0  0  0  0  0  0  0  0  0
    2.5274    2.2749    3.1999 H   0  0  0  0  0  0  0  0  0  0  0  0
    3.8308    3.3144    2.5840 H   0  0  0  0  0  0  0  0  0  0  0  0
    2.1383    3.8340    2.4390 H   0  0  0  0  0  0  0  0  0  0  0  0
    4.9514    1.2160    0.4797 N   0  0  0  0  0  0  0  0  0  0  0  0
    5.8440    0.0853    0.2585 C   0  0  0  0  0  0  0  0  0  0  0  0
    5.1797    2.1072    0.0483 H   0  0  0  0  0  0  0  0  0  0  0  0
    5.9672   -0.4943    1.1796 H   0  0  0  0  0  0  0  0  0  0  0  0
    5.4428   -0.5712   -0.5208 H   0  0  0  0  0  0  0  0  0  0  0  0
    6.8298    0.4394   -0.0579 H   0  0  0  0  0  0  0  0  0  0  0  0
  1  2  2  0  0  0  0
  1  3  1  0  0  0  0
  1  7  1  0  0  0  0
  3  4  1  0  0  0  0
  3  5  1  0  0  0  0
  3  6  1  0  0  0  0
  7  8  1  0  0  0  0
  7 12  1  0  0  0  0
  8  9  1  0  0  0  0
  8 11  1  0  0  0  0
  8 13  1  0  0  0  0
  9 10  2  0  0  0  0
  9 17  1  0  0  0  0
 11 14  1  0  0  0  0
 11 15  1  0  0  0  0
 11 16  1  0  0  0  0
 17 18  1  0  0  0  0
 17 26  1  0  0  0  0
 18 19  1  0  0  0  0
 18 21  1  0  0  0  0
 18 27  1  0  0  0  0
 19 20  2  0  0  0  0
 19 32  1  0  0  0  0
 21 22  1  0  0  0  0
 21 28  1  0  0  0  0
 21 29  1  0  0  0  0
 22 23  1  0  0  0  0
 22 30  1  0  0  0  0
 22 31  1  0  0  0  0
 23 24  1  0  0  0  0
 23 25  2  0  0  0  0
 32 33  1  0  0  0  0
 32 37  1  0  0  0  0
 33 34  1  0  0  0  0
 33 36  1  0  0  0  0
 33 38  1  0  0  0  0
 34 35  2  0  0  0  0
 34 42  1  0  0  0  0
 36 39  1  0  0  0  0
 36 40  1  0  0  0  0
 36 41  1  0  0  0  0
 42 43  1  0  0  0  0
 42 44  1  0  0  0  0
 43 45  1  0  0  0  0
 43 46  1  0  0  0  0
 43 47  1  0  0  0  0
M  CHG  1  24  -1
M  END
$$$$

  -OEChem-05262216243D

 47 46  0     1  0  0  0  0  0999 V2000
   -0.5017   -5.8034    1.5507 C   0  0  0  0  0  0  0  0  0  0  0  0
    0.3625   -5.9352    2.4047 O   0  0  0  0  0  0  0  0  0  0  0  0
   -1.7612   -6.6477    1.6070 C   0  0  0  0  0  0  0  0  0  0  0  0
   -1.8580   -7.2362    0.6916 H   0  0  0  0  0  0  0  0  0  0  0  0
   -1.7224   -7.3274    2.4626 H   0  0  0  0  0  0  0  0  0  0  0  0
   -2.6364   -6.0008    1.7105 H   0  0  0  0  0  0  0  0  0  0  0  0
   -0.3347   -4.8975    0.5259 N   0  0  0  0  0  0  0  0  0  0  0  0
    0.7087   -3.8667    0.4915 C   0  0  2  0  0  0  0  0  0  0  0  0
    0.2566   -2.6678   -0.3668 C   0  0  0  0  0  0  0  0  0  0  0  0
   -0.5704   -2.8380   -1.2564 O   0  0  0  0  0  0  0  0  0  0  0  0
    1.9991   -4.4674   -0.0752 C   0  0  0  0  0  0  0  0  0  0  0  0
   -1.1248   -4.7543   -0.1041 H   0  0  0  0  0  0  0  0  0  0  0  0
    0.8912   -3.5015    1.5080 H   0  0  0  0  0  0  0  0  0  0  0  0
    1.8312   -4.8449   -1.0889 H   0  0  0  0  0  0  0  0  0  0  0  0
    2.7885   -3.7108   -0.1102 H   0  0  0  0  0  0  0  0  0  0  0  0
    2.3435   -5.2953    0.5520 H   0  0  0  0  0  0  0  0  0  0  0  0
    0.8260   -1.4213   -0.1829 N   0  0  0  0  0  0  0  0  0  0  0  0
    0.1458   -0.1636   -0.5662 C   0  0  2  0  0  0  0  0  0  0  0  0
    1.1294    1.0267   -0.6095 C   0  0  0  0  0  0  0  0  0  0  0  0
    0.9736    1.9348   -1.4162 O   0  0  0  0  0  0  0  0  0  0  0  0
   -0.9160    0.2336    0.4893 C   0  0  0  0  0  0  0  0  0  0  0  0
   -2.1325   -0.7012    0.6048 C   0  0  0  0  0  0  0  0  0  0  0  0
   -3.0809   -0.2045    1.6952 C   0  0  0  0  0  0  0  0  0  0  0  0
   -2.6513   -0.2287    2.8765 O   0  5  0  0  0  0  0  0  0  0  0  0
   -4.2160    0.2083    1.3545 O   0  0  0  0  0  0  0  0  0  0  0  0
    1.4314   -1.3752    0.6288 H   0  0  0  0  0  0  0  0  0  0  0  0
   -0.3223   -0.2657   -1.5516 H   0  0  0  0  0  0  0  0  0  0  0  0
   -1.2941    1.2337    0.2466 H   0  0  0  0  0  0  0  0  0  0  0  0
   -0.4334    0.2993    1.4707 H   0  0  0  0  0  0  0  0  0  0  0  0
   -2.6560   -0.7517   -0.3547 H   0  0  0  0  0  0  0  0  0  0  0  0
   -1.8233   -1.7106    0.8778 H   0  0  0  0  0  0  0  0  0  0  0  0
    2.2395    1.0686    0.2160 N   0  0  0  0  0  0  0  0  0  0  0  0
    3.3117    2.0652    0.1293 C   0  0  2  0  0  0  0  0  0  0  0  0
    4.6887    1.4438    0.4414 C   0  0  0  0  0  0  0  0  0  0  0  0
    4.7677    0.3424    0.9774 O   0  0  0  0  0  0  0  0  0  0  0  0
    2.9911    3.1960    1.1100 C   0  0  0  0  0  0  0  0  0  0  0  0
    2.4096    0.2674    0.8161 H   0  0  0  0  0  0  0  0  0  0  0  0
    3.3613    2.4725   -0.8859 H   0  0  0  0  0  0  0  0  0  0  0  0
    2.9495    2.8138    2.1350 H   0  0  0  0  0  0  0  0  0  0  0  0
    3.7543    3.9780    1.0589 H   0  0  0  0  0  0  0  0  0  0  0  0
    2.0219    3.6430    0.8660 H   0  0  0  0  0  0  0  0  0  0  0  0
    5.8481    2.1200    0.1071 N   0  0  0  0  0  0  0  0  0  0  0  0
    7.1836    1.5874    0.3428 C   0  0  0  0  0  0  0  0  0  0  0  0
    5.7487    3.0150   -0.3631 H   0  0  0  0  0  0  0  0  0  0  0  0
    7.3446    1.4166    1.4123 H   0  0  0  0  0  0  0  0  0  0  0  0
    7.3178    0.6404   -0.1903 H   0  0  0  0  0  0  0  0  0  0  0  0
    7.9395    2.2943   -0.0122 H   0  0  0  0  0  0  0  0  0  0  0  0
  1  2  2  0  0  0  0
  1  3  1  0  0  0  0
  1  7  1  0  0  0  0
  3  4  1  0  0  0  0
  3  5  1  0  0  0  0
  3  6  1  0  0  0  0
  7  8  1  0  0  0  0
  7 12  1  0  0  0  0
  8  9  1  0  0  0  0
  8 11  1  0  0  0  0
  8 13  1  0  0  0  0
  9 10  2  0  0  0  0
  9 17  1  0  0  0  0
 11 14  1  0  0  0  0
 11 15  1  0  0  0  0
 11 16  1  0  0  0  0
 17 18  1  0  0  0  0
 17 26  1  0  0  0  0
 18 19  1  0  0  0  0
 18 21  1  0  0  0  0
 18 27  1  0  0  0  0
 19 20  2  0  0  0  0
 19 32  1  0  0  0  0
 21 22  1  0  0  0  0
 21 28  1  0  0  0  0
 21 29  1  0  0  0  0
 22 23  1  0  0  0  0
 22 30  1  0  0  0  0
 22 31  1  0  0  0  0
 23 24  1  0  0  0  0
 23 25  2  0  0  0  0
 32 33  1  0  0  0  0
 32 37  1  0  0  0  0
 33 34  1  0  0  0  0
 33 36  1  0  0  0  0
 33 38  1  0  0  0  0
 34 35  2  0  0  0  0
 34 42  1  0  0  0  0
 36 39  1  0  0  0  0
 36 40  1  0  0  0  0
 36 41  1  0  0  0  0
 42 43  1  0  0  0  0
 42 44  1  0  0  0  0
 43 45  1  0  0  0  0
 43 46  1  0  0  0  0
 43 47  1  0  0  0  0
M  CHG  1  24  -1
M  END
$$$$

  -OEChem-05262216243D

 47 46  0     1  0  0  0  0  0999 V2000
   -0.6361   -5.7250    1.6355 C   0  0  0  0  0  0  0  0  0  0  0  0
    0.2497   -5.8929    2.4608 O   0  0  0  0  0  0  0  0  0  0  0  0
   -1.9505   -6.4719    1.7651 C   0  0  0  0  0  0  0  0  0  0  0  0
   -2.1446   -7.0461    0.8560 H   0  0  0  0  0  0  0  0  0  0  0  0
   -1.9146   -7.1572    2.6162 H   0  0  0  0  0  0  0  0  0  0  0  0
   -2.7664   -5.7608    1.9190 H   0  0  0  0  0  0  0  0  0  0  0  0
   -0.4437   -4.8710    0.5713 N   0  0  0  0  0  0  0  0  0  0  0  0
    0.6738   -3.9276    0.4547 C   0  0  2  0  0  0  0  0  0  0  0  0
    0.2790   -2.7337   -0.4374 C   0  0  0  0  0  0  0  0  0  0  0  0
   -0.5385   -2.8927   -1.3377 O   0  0  0  0  0  0  0  0  0  0  0  0
    1.8909   -4.6503   -0.1317 C   0  0  0  0  0  0  0  0  0  0  0  0
   -1.2440   -4.6981   -0.0379 H   0  0  0  0  0  0  0  0  0  0  0  0
    0.9236   -3.5376    1.4475 H   0  0  0  0  0  0  0  0  0  0  0  0
    1.6526   -5.0594   -1.1187 H   0  0  0  0  0  0  0  0  0  0  0  0
    2.7331   -3.9595   -0.2341 H   0  0  0  0  0  0  0  0  0  0  0  0
    2.1972   -5.4727    0.5219 H   0  0  0  0  0  0  0  0  0  0  0  0
    0.8775   -1.4995   -0.2635 N   0  0  0  0  0  0  0  0  0  0  0  0
    0.1931   -0.2352   -0.6162 C   0  0  2  0  0  0  0  0  0  0  0  0
    1.1920    0.9432   -0.6895 C   0  0  0  0  0  0  0  0  0  0  0  0
    0.8802    2.0023   -1.2195 O   0  0  0  0  0  0  0  0  0  0  0  0
   -0.8321    0.1519    0.4811 C   0  0  0  0  0  0  0  0  0  0  0  0
   -2.0461   -0.7833    0.6258 C   0  0  0  0  0  0  0  0  0  0  0  0
   -2.9573   -0.3005    1.7529 C   0  0  0  0  0  0  0  0  0  0  0  0
   -2.5115   -0.4003    2.9240 O   0  5  0  0  0  0  0  0  0  0  0  0
   -4.0820    0.1678    1.4511 O   0  0  0  0  0  0  0  0  0  0  0  0
    1.4383   -1.4603    0.5815 H   0  0  0  0  0  0  0  0  0  0  0  0
   -0.3094   -0.3250   -1.5857 H   0  0  0  0  0  0  0  0  0  0  0  0
   -1.2194    1.1544    0.2650 H   0  0  0  0  0  0  0  0  0  0  0  0
   -0.3156    0.2059    1.4459 H   0  0  0  0  0  0  0  0  0  0  0  0
   -2.6006   -0.8236   -0.3166 H   0  0  0  0  0  0  0  0  0  0  0  0
   -1.7309   -1.7963    0.8786 H   0  0  0  0  0  0  0  0  0  0  0  0
    2.4632    0.8320   -0.1532 N   0  0  0  0  0  0  0  0  0  0  0  0
    3.5040    1.8605   -0.2541 C   0  0  2  0  0  0  0  0  0  0  0  0
    4.9142    1.2356   -0.3027 C   0  0  0  0  0  0  0  0  0  0  0  0
    5.0772    0.0473   -0.0411 O   0  0  0  0  0  0  0  0  0  0  0  0
    3.3685    2.7980    0.9496 C   0  0  0  0  0  0  0  0  0  0  0  0
    2.7772   -0.1048    0.0868 H   0  0  0  0  0  0  0  0  0  0  0  0
    3.3696    2.4343   -1.1772 H   0  0  0  0  0  0  0  0  0  0  0  0
    3.5142    2.2447    1.8829 H   0  0  0  0  0  0  0  0  0  0  0  0
    4.1098    3.6008    0.8992 H   0  0  0  0  0  0  0  0  0  0  0  0
    2.3717    3.2507    0.9660 H   0  0  0  0  0  0  0  0  0  0  0  0
    6.0071    2.0080   -0.6529 N   0  0  0  0  0  0  0  0  0  0  0  0
    7.3673    1.4900   -0.7218 C   0  0  0  0  0  0  0  0  0  0  0  0
    5.8390    2.9862   -0.8696 H   0  0  0  0  0  0  0  0  0  0  0  0
    7.6896    1.1288    0.2604 H   0  0  0  0  0  0  0  0  0  0  0  0
    7.4272    0.6645   -1.4387 H   0  0  0  0  0  0  0  0  0  0  0  0
    8.0551    2.2778   -1.0433 H   0  0  0  0  0  0  0  0  0  0  0  0
  1  2  2  0  0  0  0
  1  3  1  0  0  0  0
  1  7  1  0  0  0  0
  3  4  1  0  0  0  0
  3  5  1  0  0  0  0
  3  6  1  0  0  0  0
  7  8  1  0  0  0  0
  7 12  1  0  0  0  0
  8  9  1  0  0  0  0
  8 11  1  0  0  0  0
  8 13  1  0  0  0  0
  9 10  2  0  0  0  0
  9 17  1  0  0  0  0
 11 14  1  0  0  0  0
 11 15  1  0  0  0  0
 11 16  1  0  0  0  0
 17 18  1  0  0  0  0
 17 26  1  0  0  0  0
 18 19  1  0  0  0  0
 18 21  1  0  0  0  0
 18 27  1  0  0  0  0
 19 20  2  0  0  0  0
 19 32  1  0  0  0  0
 21 22  1  0  0  0  0
 21 28  1  0  0  0  0
 21 29  1  0  0  0  0
 22 23  1  0  0  0  0
 22 30  1  0  0  0  0
 22 31  1  0  0  0  0
 23 24  1  0  0  0  0
 23 25  2  0  0  0  0
 32 33  1  0  0  0  0
 32 37  1  0  0  0  0
 33 34  1  0  0  0  0
 33 36  1  0  0  0  0
 33 38  1  0  0  0  0
 34 35  2  0  0  0  0
 34 42  1  0  0  0  0
 36 39  1  0  0  0  0
 36 40  1  0  0  0  0
 36 41  1  0  0  0  0
 42 43  1  0  0  0  0
 42 44  1  0  0  0  0
 43 45  1  0  0  0  0
 43 46  1  0  0  0  0
 43 47  1  0  0  0  0
M  CHG  1  24  -1
M  END
$$$$

  -OEChem-05262216243D

 47 46  0     1  0  0  0  0  0999 V2000
   -0.5504   -5.7358    1.6830 C   0  0  0  0  0  0  0  0  0  0  0  0
    0.3647   -5.8852    2.4794 O   0  0  0  0  0  0  0  0  0  0  0  0
   -1.8434   -6.5105    1.8545 C   0  0  0  0  0  0  0  0  0  0  0  0
   -2.0524   -7.0924    0.9535 H   0  0  0  0  0  0  0  0  0  0  0  0
   -1.7660   -7.1915    2.7064 H   0  0  0  0  0  0  0  0  0  0  0  0
   -2.6698   -5.8171    2.0318 H   0  0  0  0  0  0  0  0  0  0  0  0
   -0.4109   -4.8766    0.6149 N   0  0  0  0  0  0  0  0  0  0  0  0
    0.6745   -3.9005    0.4730 C   0  0  2  0  0  0  0  0  0  0  0  0
    0.2285   -2.7242   -0.4174 C   0  0  0  0  0  0  0  0  0  0  0  0
   -0.6211   -2.9031   -1.2834 O   0  0  0  0  0  0  0  0  0  0  0  0
    1.9044   -4.5842   -0.1330 C   0  0  0  0  0  0  0  0  0  0  0  0
   -1.2345   -4.7192    0.0334 H   0  0  0  0  0  0  0  0  0  0  0  0
    0.9292   -3.4977    1.4592 H   0  0  0  0  0  0  0  0  0  0  0  0
    1.6633   -4.9995   -1.1166 H   0  0  0  0  0  0  0  0  0  0  0  0
    2.7230   -3.8670   -0.2484 H   0  0  0  0  0  0  0  0  0  0  0  0
    2.2467   -5.3970    0.5149 H   0  0  0  0  0  0  0  0  0  0  0  0
    0.8296   -1.4859   -0.2944 N   0  0  0  0  0  0  0  0  0  0  0  0
    0.1364   -0.2265   -0.6479 C   0  0  2  0  0  0  0  0  0  0  0  0
    1.1555    0.9319   -0.7775 C   0  0  0  0  0  0  0  0  0  0  0  0
    0.8098    2.0664   -1.0829 O   0  0  0  0  0  0  0  0  0  0  0  0
   -0.8565    0.1778    0.4755 C   0  0  0  0  0  0  0  0  0  0  0  0
   -2.0656   -0.7553    0.6702 C   0  0  0  0  0  0  0  0  0  0  0  0
   -2.9437   -0.2577    1.8163 C   0  0  0  0  0  0  0  0  0  0  0  0
   -2.4995   -0.4186    2.9812 O   0  5  0  0  0  0  0  0  0  0  0  0
   -4.0400    0.2845    1.5353 O   0  0  0  0  0  0  0  0  0  0  0  0
    1.4300   -1.4247    0.5227 H   0  0  0  0  0  0  0  0  0  0  0  0
   -0.3944   -0.3311   -1.6001 H   0  0  0  0  0  0  0  0  0  0  0  0
   -1.2532    1.1758    0.2558 H   0  0  0  0  0  0  0  0  0  0  0  0
   -0.3120    0.2482    1.4235 H   0  0  0  0  0  0  0  0  0  0  0  0
   -2.6491   -0.8082   -0.2537 H   0  0  0  0  0  0  0  0  0  0  0  0
   -1.7442   -1.7651    0.9272 H   0  0  0  0  0  0  0  0  0  0  0  0
    2.5031    0.6980   -0.5681 N   0  0  0  0  0  0  0  0  0  0  0  0
    3.5655    1.6950   -0.7372 C   0  0  2  0  0  0  0  0  0  0  0  0
    4.9187    1.0314   -1.0700 C   0  0  0  0  0  0  0  0  0  0  0  0
    5.0577   -0.1842   -0.9718 O   0  0  0  0  0  0  0  0  0  0  0  0
    3.6743    2.5121    0.5548 C   0  0  0  0  0  0  0  0  0  0  0  0
    2.7924   -0.2781   -0.5452 H   0  0  0  0  0  0  0  0  0  0  0  0
    3.3136    2.3620   -1.5685 H   0  0  0  0  0  0  0  0  0  0  0  0
    3.9148    1.8594    1.4000 H   0  0  0  0  0  0  0  0  0  0  0  0
    4.4559    3.2723    0.4663 H   0  0  0  0  0  0  0  0  0  0  0  0
    2.7266    3.0179    0.7653 H   0  0  0  0  0  0  0  0  0  0  0  0
    5.9890    1.8024   -1.4866 N   0  0  0  0  0  0  0  0  0  0  0  0
    7.2974    1.2495   -1.8115 C   0  0  0  0  0  0  0  0  0  0  0  0
    5.8425    2.8047   -1.5642 H   0  0  0  0  0  0  0  0  0  0  0  0
    7.7092    0.7117   -0.9510 H   0  0  0  0  0  0  0  0  0  0  0  0
    7.2208    0.5585   -2.6575 H   0  0  0  0  0  0  0  0  0  0  0  0
    7.9903    2.0522   -2.0814 H   0  0  0  0  0  0  0  0  0  0  0  0
  1  2  2  0  0  0  0
  1  3  1  0  0  0  0
  1  7  1  0  0  0  0
  3  4  1  0  0  0  0
  3  5  1  0  0  0  0
  3  6  1  0  0  0  0
  7  8  1  0  0  0  0
  7 12  1  0  0  0  0
  8  9  1  0  0  0  0
  8 11  1  0  0  0  0
  8 13  1  0  0  0  0
  9 10  2  0  0  0  0
  9 17  1  0  0  0  0
 11 14  1  0  0  0  0
 11 15  1  0  0  0  0
 11 16  1  0  0  0  0
 17 18  1  0  0  0  0
 17 26  1  0  0  0  0
 18 19  1  0  0  0  0
 18 21  1  0  0  0  0
 18 27  1  0  0  0  0
 19 20  2  0  0  0  0
 19 32  1  0  0  0  0
 21 22  1  0  0  0  0
 21 28  1  0  0  0  0
 21 29  1  0  0  0  0
 22 23  1  0  0  0  0
 22 30  1  0  0  0  0
 22 31  1  0  0  0  0
 23 24  1  0  0  0  0
 23 25  2  0  0  0  0
 32 33  1  0  0  0  0
 32 37  1  0  0  0  0
 33 34  1  0  0  0  0
 33 36  1  0  0  0  0
 33 38  1  0  0  0  0
 34 35  2  0  0  0  0
 34 42  1  0  0  0  0
 36 39  1  0  0  0  0
 36 40  1  0  0  0  0
 36 41  1  0  0  0  0
 42 43  1  0  0  0  0
 42 44  1  0  0  0  0
 43 45  1  0  0  0  0
 43 46  1  0  0  0  0
 43 47  1  0  0  0  0
M  CHG  1  24  -1
M  END
$$$$

  -OEChem-05262216243D

 47 46  0     1  0  0  0  0  0999 V2000
   -0.4920   -5.7331    1.7288 C   0  0  0  0  0  0  0  0  0  0  0  0
    0.4318   -5.8679    2.5176 O   0  0  0  0  0  0  0  0  0  0  0  0
   -1.7651   -6.5401    1.9041 C   0  0  0  0  0  0  0  0  0  0  0  0
   -1.9718   -7.1154    0.9984 H   0  0  0  0  0  0  0  0  0  0  0  0
   -1.6626   -7.2305    2.7459 H   0  0  0  0  0  0  0  0  0  0  0  0
   -2.6048   -5.8681    2.0997 H   0  0  0  0  0  0  0  0  0  0  0  0
   -0.3807   -4.8594    0.6689 N   0  0  0  0  0  0  0  0  0  0  0  0
    0.6906   -3.8688    0.5158 C   0  0  2  0  0  0  0  0  0  0  0  0
    0.2279   -2.7075   -0.3862 C   0  0  0  0  0  0  0  0  0  0  0  0
   -0.6215   -2.9068   -1.2480 O   0  0  0  0  0  0  0  0  0  0  0  0
    1.9283   -4.5407   -0.0878 C   0  0  0  0  0  0  0  0  0  0  0  0
   -1.2093   -4.7189    0.0901 H   0  0  0  0  0  0  0  0  0  0  0  0
    0.9413   -3.4538    1.4980 H   0  0  0  0  0  0  0  0  0  0  0  0
    1.6900   -4.9673   -1.0673 H   0  0  0  0  0  0  0  0  0  0  0  0
    2.7365   -3.8134   -0.2110 H   0  0  0  0  0  0  0  0  0  0  0  0
    2.2845   -5.3434    0.5648 H   0  0  0  0  0  0  0  0  0  0  0  0
    0.8210   -1.4628   -0.2898 N   0  0  0  0  0  0  0  0  0  0  0  0
    0.1216   -0.2134   -0.6641 C   0  0  2  0  0  0  0  0  0  0  0  0
    1.1512    0.9355   -0.8144 C   0  0  0  0  0  0  0  0  0  0  0  0
    0.8199    2.1113   -0.9014 O   0  0  0  0  0  0  0  0  0  0  0  0
   -0.8812    0.1989    0.4498 C   0  0  0  0  0  0  0  0  0  0  0  0
   -2.0859   -0.7400    0.6516 C   0  0  0  0  0  0  0  0  0  0  0  0
   -2.9788   -0.2395    1.7858 C   0  0  0  0  0  0  0  0  0  0  0  0
   -2.4906   -0.2561    2.9442 O   0  5  0  0  0  0  0  0  0  0  0  0
   -4.1411    0.1408    1.5033 O   0  0  0  0  0  0  0  0  0  0  0  0
    1.4397   -1.3792    0.5120 H   0  0  0  0  0  0  0  0  0  0  0  0
   -0.4060   -0.3345   -1.6161 H   0  0  0  0  0  0  0  0  0  0  0  0
   -1.2870    1.1891    0.2149 H   0  0  0  0  0  0  0  0  0  0  0  0
   -0.3400    0.2888    1.3983 H   0  0  0  0  0  0  0  0  0  0  0  0
   -2.6612   -0.8094   -0.2764 H   0  0  0  0  0  0  0  0  0  0  0  0
   -1.7582   -1.7430    0.9254 H   0  0  0  0  0  0  0  0  0  0  0  0
    2.5000    0.6391   -0.9098 N   0  0  0  0  0  0  0  0  0  0  0  0
    3.5633    1.6219   -1.1486 C   0  0  2  0  0  0  0  0  0  0  0  0
    4.8015    0.9777   -1.8070 C   0  0  0  0  0  0  0  0  0  0  0  0
    4.9293   -0.2424   -1.8330 O   0  0  0  0  0  0  0  0  0  0  0  0
    3.9451    2.2626    0.1905 C   0  0  0  0  0  0  0  0  0  0  0  0
    2.7397   -0.3435   -1.0372 H   0  0  0  0  0  0  0  0  0  0  0  0
    3.1954    2.3975   -1.8285 H   0  0  0  0  0  0  0  0  0  0  0  0
    4.3157    1.5026    0.8859 H   0  0  0  0  0  0  0  0  0  0  0  0
    4.7248    3.0166    0.0482 H   0  0  0  0  0  0  0  0  0  0  0  0
    3.0744    2.7505    0.6407 H   0  0  0  0  0  0  0  0  0  0  0  0
    5.7790    1.7719   -2.3792 N   0  0  0  0  0  0  0  0  0  0  0  0
    6.9648    1.2365   -3.0355 C   0  0  0  0  0  0  0  0  0  0  0  0
    5.6339    2.7773   -2.3641 H   0  0  0  0  0  0  0  0  0  0  0  0
    7.5610    0.6482   -2.3300 H   0  0  0  0  0  0  0  0  0  0  0  0
    6.6803    0.5961   -3.8770 H   0  0  0  0  0  0  0  0  0  0  0  0
    7.5865    2.0522   -3.4166 H   0  0  0  0  0  0  0  0  0  0  0  0
  1  2  2  0  0  0  0
  1  3  1  0  0  0  0
  1  7  1  0  0  0  0
  3  4  1  0  0  0  0
  3  5  1  0  0  0  0
  3  6  1  0  0  0  0
  7  8  1  0  0  0  0
  7 12  1  0  0  0  0
  8  9  1  0  0  0  0
  8 11  1  0  0  0  0
  8 13  1  0  0  0  0
  9 10  2  0  0  0  0
  9 17  1  0  0  0  0
 11 14  1  0  0  0  0
 11 15  1  0  0  0  0
 11 16  1  0  0  0  0
 17 18  1  0  0  0  0
 17 26  1  0  0  0  0
 18 19  1  0  0  0  0
 18 21  1  0  0  0  0
 18 27  1  0  0  0  0
 19 20  2  0  0  0  0
 19 32  1  0  0  0  0
 21 22  1  0  0  0  0
 21 28  1  0  0  0  0
 21 29  1  0  0  0  0
 22 23  1  0  0  0  0
 22 30  1  0  0  0  0
 22 31  1  0  0  0  0
 23 24  1  0  0  0  0
 23 25  2  0  0  0  0
 32 33  1  0  0  0  0
 32 37  1  0  0  0  0
 33 34  1  0  0  0  0
 33 36  1  0  0  0  0
 33 38  1  0  0  0  0
 34 35  2  0  0  0  0
 34 42  1  0  0  0  0
 36 39  1  0  0  0  0
 36 40  1  0  0  0  0
 36 41  1  0  0  0  0
 42 43  1  0  0  0  0
 42 44  1  0  0  0  0
 43 45  1  0  0  0  0
 43 46  1  0  0  0  0
 43 47  1  0  0  0  0
M  CHG  1  24  -1
M  END
$$$$

  -OEChem-05262216243D

 47 46  0     1  0  0  0  0  0999 V2000
   -0.4064   -5.6858    1.7963 C   0  0  0  0  0  0  0  0  0  0  0  0
    0.5351   -5.7958    2.5679 O   0  0  0  0  0  0  0  0  0  0  0  0
   -1.6703   -6.4957    2.0190 C   0  0  0  0  0  0  0  0  0  0  0  0
   -1.8697   -7.1241    1.1477 H   0  0  0  0  0  0  0  0  0  0  0  0
   -1.5595   -7.1353    2.8989 H   0  0  0  0  0  0  0  0  0  0  0  0
   -2.5185   -5.8245    2.1773 H   0  0  0  0  0  0  0  0  0  0  0  0
   -0.3204   -4.8418    0.7101 N   0  0  0  0  0  0  0  0  0  0  0  0
    0.7427   -3.8506    0.5113 C   0  0  2  0  0  0  0  0  0  0  0  0
    0.2449   -2.6949   -0.3791 C   0  0  0  0  0  0  0  0  0  0  0  0
   -0.6105   -2.9089   -1.2313 O   0  0  0  0  0  0  0  0  0  0  0  0
    1.9544   -4.5301   -0.1350 C   0  0  0  0  0  0  0  0  0  0  0  0
   -1.1619   -4.7185    0.1464 H   0  0  0  0  0  0  0  0  0  0  0  0
    1.0315   -3.4292    1.4803 H   0  0  0  0  0  0  0  0  0  0  0  0
    1.6780   -4.9603   -1.1029 H   0  0  0  0  0  0  0  0  0  0  0  0
    2.7608   -3.8075   -0.2919 H   0  0  0  0  0  0  0  0  0  0  0  0
    2.3304   -5.3318    0.5078 H   0  0  0  0  0  0  0  0  0  0  0  0
    0.8220   -1.4417   -0.2966 N   0  0  0  0  0  0  0  0  0  0  0  0
    0.1109   -0.1996   -0.6718 C   0  0  2  0  0  0  0  0  0  0  0  0
    1.1477    0.9422   -0.8304 C   0  0  0  0  0  0  0  0  0  0  0  0
    0.8840    2.1245   -0.6493 O   0  0  0  0  0  0  0  0  0  0  0  0
   -0.9175    0.2083    0.4219 C   0  0  0  0  0  0  0  0  0  0  0  0
   -2.1166   -0.7413    0.5988 C   0  0  0  0  0  0  0  0  0  0  0  0
   -3.0374   -0.2471    1.7127 C   0  0  0  0  0  0  0  0  0  0  0  0
   -2.6185   -0.3638    2.8921 O   0  5  0  0  0  0  0  0  0  0  0  0
   -4.1494    0.2390    1.3913 O   0  0  0  0  0  0  0  0  0  0  0  0
    1.4702   -1.3462    0.4801 H   0  0  0  0  0  0  0  0  0  0  0  0
   -0.4058   -0.3297   -1.6279 H   0  0  0  0  0  0  0  0  0  0  0  0
   -1.3286    1.1939    0.1757 H   0  0  0  0  0  0  0  0  0  0  0  0
   -0.3980    0.3049    1.3819 H   0  0  0  0  0  0  0  0  0  0  0  0
   -2.6713   -0.8184   -0.3409 H   0  0  0  0  0  0  0  0  0  0  0  0
   -1.7843   -1.7407    0.8803 H   0  0  0  0  0  0  0  0  0  0  0  0
    2.4322    0.6295   -1.2393 N   0  0  0  0  0  0  0  0  0  0  0  0
    3.4862    1.6102   -1.5255 C   0  0  2  0  0  0  0  0  0  0  0  0
    4.5379    1.0595   -2.5109 C   0  0  0  0  0  0  0  0  0  0  0  0
    4.6406   -0.1474   -2.7051 O   0  0  0  0  0  0  0  0  0  0  0  0
    4.1576    2.0099   -0.2072 C   0  0  0  0  0  0  0  0  0  0  0  0
    2.5951   -0.3339   -1.5315 H   0  0  0  0  0  0  0  0  0  0  0  0
    3.0388    2.4976   -1.9858 H   0  0  0  0  0  0  0  0  0  0  0  0
    4.6154    1.1369    0.2687 H   0  0  0  0  0  0  0  0  0  0  0  0
    4.9344    2.7594   -0.3846 H   0  0  0  0  0  0  0  0  0  0  0  0
    3.4212    2.4358    0.4816 H   0  0  0  0  0  0  0  0  0  0  0  0
    5.3791    1.9283   -3.1828 N   0  0  0  0  0  0  0  0  0  0  0  0
    6.3827    1.4924   -4.1450 C   0  0  0  0  0  0  0  0  0  0  0  0
    5.2488    2.9229   -3.0214 H   0  0  0  0  0  0  0  0  0  0  0  0
    7.0991    0.8132   -3.6714 H   0  0  0  0  0  0  0  0  0  0  0  0
    5.9083    0.9753   -4.9856 H   0  0  0  0  0  0  0  0  0  0  0  0
    6.9309    2.3556   -4.5344 H   0  0  0  0  0  0  0  0  0  0  0  0
  1  2  2  0  0  0  0
  1  3  1  0  0  0  0
  1  7  1  0  0  0  0
  3  4  1  0  0  0  0
  3  5  1  0  0  0  0
  3  6  1  0  0  0  0
  7  8  1  0  0  0  0
  7 12  1  0  0  0  0
  8  9  1  0  0  0  0
  8 11  1  0  0  0  0
  8 13  1  0  0  0  0
  9 10  2  0  0  0  0
  9 17  1  0  0  0  0
 11 14  1  0  0  0  0
 11 15  1  0  0  0  0
 11 16  1  0  0  0  0
 17 18  1  0  0  0  0
 17 26  1  0  0  0  0
 18 19  1  0  0  0  0
 18 21  1  0  0  0  0
 18 27  1  0  0  0  0
 19 20  2  0  0  0  0
 19 32  1  0  0  0  0
 21 22  1  0  0  0  0
 21 28  1  0  0  0  0
 21 29  1  0  0  0  0
 22 23  1  0  0  0  0
 22 30  1  0  0  0  0
 22 31  1  0  0  0  0
 23 24  1  0  0  0  0
 23 25  2  0  0  0  0
 32 33  1  0  0  0  0
 32 37  1  0  0  0  0
 33 34  1  0  0  0  0
 33 36  1  0  0  0  0
 33 38  1  0  0  0  0
 34 35  2  0  0  0  0
 34 42  1  0  0  0  0
 36 39  1  0  0  0  0
 36 40  1  0  0  0  0
 36 41  1  0  0  0  0
 42 43  1  0  0  0  0
 42 44  1  0  0  0  0
 43 45  1  0  0  0  0
 43 46  1  0  0  0  0
 43 47  1  0  0  0  0
M  CHG  1  24  -1
M  END
$$$$

  -OEChem-05262216243D

 47 46  0     1  0  0  0  0  0999 V2000
   -0.3600   -5.6353    1.8598 C   0  0  0  0  0  0  0  0  0  0  0  0
    0.5903   -5.7322    2.6227 O   0  0  0  0  0  0  0  0  0  0  0  0
   -1.6194   -6.4446    2.1081 C   0  0  0  0  0  0  0  0  0  0  0  0
   -1.8511   -7.0550    1.2322 H   0  0  0  0  0  0  0  0  0  0  0  0
   -1.4818   -7.1018    2.9708 H   0  0  0  0  0  0  0  0  0  0  0  0
   -2.4585   -5.7731    2.3070 H   0  0  0  0  0  0  0  0  0  0  0  0
   -0.2870   -4.8080    0.7598 N   0  0  0  0  0  0  0  0  0  0  0  0
    0.7758   -3.8224    0.5324 C   0  0  2  0  0  0  0  0  0  0  0  0
    0.2821   -2.6932   -0.3931 C   0  0  0  0  0  0  0  0  0  0  0  0
   -0.5588   -2.9312   -1.2532 O   0  0  0  0  0  0  0  0  0  0  0  0
    1.9937   -4.5161   -0.0873 C   0  0  0  0  0  0  0  0  0  0  0  0
   -1.1353   -4.6934    0.2047 H   0  0  0  0  0  0  0  0  0  0  0  0
    1.0591   -3.3719    1.4897 H   0  0  0  0  0  0  0  0  0  0  0  0
    1.7224   -4.9861   -1.0379 H   0  0  0  0  0  0  0  0  0  0  0  0
    2.7932   -3.7924   -0.2719 H   0  0  0  0  0  0  0  0  0  0  0  0
    2.3775   -5.2882    0.5865 H   0  0  0  0  0  0  0  0  0  0  0  0
    0.8426   -1.4324   -0.3225 N   0  0  0  0  0  0  0  0  0  0  0  0
    0.1180   -0.2032   -0.7066 C   0  0  2  0  0  0  0  0  0  0  0  0
    1.1536    0.9382   -0.8714 C   0  0  0  0  0  0  0  0  0  0  0  0
    1.0079    2.0652   -0.4140 O   0  0  0  0  0  0  0  0  0  0  0  0
   -0.9319    0.1981    0.3682 C   0  0  0  0  0  0  0  0  0  0  0  0
   -2.1215   -0.7659    0.5301 C   0  0  0  0  0  0  0  0  0  0  0  0
   -3.0652   -0.2770    1.6262 C   0  0  0  0  0  0  0  0  0  0  0  0
   -2.7553   -0.5554    2.8119 O   0  5  0  0  0  0  0  0  0  0  0  0
   -4.0798    0.3789    1.2845 O   0  0  0  0  0  0  0  0  0  0  0  0
    1.4910   -1.3209    0.4517 H   0  0  0  0  0  0  0  0  0  0  0  0
   -0.3888   -0.3460   -1.6669 H   0  0  0  0  0  0  0  0  0  0  0  0
   -1.3465    1.1793    0.1100 H   0  0  0  0  0  0  0  0  0  0  0  0
   -0.4297    0.3028    1.3363 H   0  0  0  0  0  0  0  0  0  0  0  0
   -2.6635   -0.8534   -0.4163 H   0  0  0  0  0  0  0  0  0  0  0  0
   -1.7822   -1.7607    0.8196 H   0  0  0  0  0  0  0  0  0  0  0  0
    2.3208    0.6755   -1.5656 N   0  0  0  0  0  0  0  0  0  0  0  0
    3.3566    1.6684   -1.8765 C   0  0  2  0  0  0  0  0  0  0  0  0
    4.1419    1.3089   -3.1548 C   0  0  0  0  0  0  0  0  0  0  0  0
    4.1565    0.1568   -3.5754 O   0  0  0  0  0  0  0  0  0  0  0  0
    4.3099    1.7705   -0.6813 C   0  0  0  0  0  0  0  0  0  0  0  0
    2.3924   -0.2381   -2.0132 H   0  0  0  0  0  0  0  0  0  0  0  0
    2.8851    2.6421   -2.0464 H   0  0  0  0  0  0  0  0  0  0  0  0
    4.7913    0.8057   -0.4928 H   0  0  0  0  0  0  0  0  0  0  0  0
    5.0861    2.5174   -0.8726 H   0  0  0  0  0  0  0  0  0  0  0  0
    3.7613    2.0678    0.2182 H   0  0  0  0  0  0  0  0  0  0  0  0
    4.8455    2.2868   -3.8351 N   0  0  0  0  0  0  0  0  0  0  0  0
    5.5848    2.0331   -5.0647 C   0  0  0  0  0  0  0  0  0  0  0  0
    4.7802    3.2385   -3.4858 H   0  0  0  0  0  0  0  0  0  0  0  0
    6.3559    1.2736   -4.8983 H   0  0  0  0  0  0  0  0  0  0  0  0
    4.9088    1.6841   -5.8521 H   0  0  0  0  0  0  0  0  0  0  0  0
    6.0725    2.9503   -5.4084 H   0  0  0  0  0  0  0  0  0  0  0  0
  1  2  2  0  0  0  0
  1  3  1  0  0  0  0
  1  7  1  0  0  0  0
  3  4  1  0  0  0  0
  3  5  1  0  0  0  0
  3  6  1  0  0  0  0
  7  8  1  0  0  0  0
  7 12  1  0  0  0  0
  8  9  1  0  0  0  0
  8 11  1  0  0  0  0
  8 13  1  0  0  0  0
  9 10  2  0  0  0  0
  9 17  1  0  0  0  0
 11 14  1  0  0  0  0
 11 15  1  0  0  0  0
 11 16  1  0  0  0  0
 17 18  1  0  0  0  0
 17 26  1  0  0  0  0
 18 19  1  0  0  0  0
 18 21  1  0  0  0  0
 18 27  1  0  0  0  0
 19 20  2  0  0  0  0
 19 32  1  0  0  0  0
 21 22  1  0  0  0  0
 21 28  1  0  0  0  0
 21 29  1  0  0  0  0
 22 23  1  0  0  0  0
 22 30  1  0  0  0  0
 22 31  1  0  0  0  0
 23 24  1  0  0  0  0
 23 25  2  0  0  0  0
 32 33  1  0  0  0  0
 32 37  1  0  0  0  0
 33 34  1  0  0  0  0
 33 36  1  0  0  0  0
 33 38  1  0  0  0  0
 34 35  2  0  0  0  0
 34 42  1  0  0  0  0
 36 39  1  0  0  0  0
 36 40  1  0  0  0  0
 36 41  1  0  0  0  0
 42 43  1  0  0  0  0
 42 44  1  0  0  0  0
 43 45  1  0  0  0  0
 43 46  1  0  0  0  0
 43 47  1  0  0  0  0
M  CHG  1  24  -1
M  END
$$$$

  -OEChem-05262216243D

 47 46  0     1  0  0  0  0  0999 V2000
    0.3262   -2.8941    2.1739 C   0  0  0  0  0  0  0  0  0  0  0  0
    1.5263   -2.6492    2.1888 O   0  0  0  0  0  0  0  0  0  0  0  0
   -0.6284   -2.1369    3.0775 C   0  0  0  0  0  0  0  0  0  0  0  0
   -1.2927   -2.8367    3.5903 H   0  0  0  0  0  0  0  0  0  0  0  0
   -0.0722   -1.5642    3.8240 H   0  0  0  0  0  0  0  0  0  0  0  0
   -1.2383   -1.4488    2.4859 H   0  0  0  0  0  0  0  0  0  0  0  0
   -0.1547   -3.8084    1.2622 N   0  0  0  0  0  0  0  0  0  0  0  0
    0.6857   -4.4796    0.2483 C   0  0  2  0  0  0  0  0  0  0  0  0
    1.0145   -3.5631   -0.9602 C   0  0  0  0  0  0  0  0  0  0  0  0
    0.8659   -3.9220   -2.1223 O   0  0  0  0  0  0  0  0  0  0  0  0
   -0.0540   -5.7562   -0.1680 C   0  0  0  0  0  0  0  0  0  0  0  0
   -1.1637   -3.7521    1.0933 H   0  0  0  0  0  0  0  0  0  0  0  0
    1.6385   -4.7728    0.7005 H   0  0  0  0  0  0  0  0  0  0  0  0
   -1.0059   -5.5074   -0.6488 H   0  0  0  0  0  0  0  0  0  0  0  0
    0.5508   -6.3340   -0.8739 H   0  0  0  0  0  0  0  0  0  0  0  0
   -0.2574   -6.3815    0.7064 H   0  0  0  0  0  0  0  0  0  0  0  0
    1.4174   -2.2652   -0.7275 N   0  0  0  0  0  0  0  0  0  0  0  0
    0.8065   -1.1056   -1.4089 C   0  0  2  0  0  0  0  0  0  0  0  0
    1.7229    0.1234   -1.2220 C   0  0  0  0  0  0  0  0  0  0  0  0
    1.3586    1.1707   -0.6984 O   0  0  0  0  0  0  0  0  0  0  0  0
   -0.6066   -0.8371   -0.8246 C   0  0  0  0  0  0  0  0  0  0  0  0
   -1.6628   -1.9220   -1.1158 C   0  0  0  0  0  0  0  0  0  0  0  0
   -2.9914   -1.5652   -0.4668 C   0  0  0  0  0  0  0  0  0  0  0  0
   -3.1869   -2.0881    0.6628 O   0  5  0  0  0  0  0  0  0  0  0  0
   -3.7687   -0.7657   -1.0395 O   0  0  0  0  0  0  0  0  0  0  0  0
    1.5910   -2.1136    0.2704 H   0  0  0  0  0  0  0  0  0  0  0  0
    0.7157   -1.3006   -2.4827 H   0  0  0  0  0  0  0  0  0  0  0  0
   -0.9849    0.1042   -1.2393 H   0  0  0  0  0  0  0  0  0  0  0  0
   -0.5246   -0.7002    0.2582 H   0  0  0  0  0  0  0  0  0  0  0  0
   -1.8034   -2.0055   -2.1975 H   0  0  0  0  0  0  0  0  0  0  0  0
   -1.3767   -2.9027   -0.7562 H   0  0  0  0  0  0  0  0  0  0  0  0
    3.0162    0.0566   -1.7053 N   0  0  0  0  0  0  0  0  0  0  0  0
    4.0331    1.1038   -1.5221 C   0  0  2  0  0  0  0  0  0  0  0  0
    3.8710    2.2802   -2.5178 C   0  0  0  0  0  0  0  0  0  0  0  0
    4.7905    2.6455   -3.2437 O   0  0  0  0  0  0  0  0  0  0  0  0
    5.4042    0.4238   -1.6178 C   0  0  0  0  0  0  0  0  0  0  0  0
    3.2945   -0.8329   -2.1120 H   0  0  0  0  0  0  0  0  0  0  0  0
    3.9392    1.5227   -0.5146 H   0  0  0  0  0  0  0  0  0  0  0  0
    5.5535   -0.0010   -2.6156 H   0  0  0  0  0  0  0  0  0  0  0  0
    6.2015    1.1487   -1.4261 H   0  0  0  0  0  0  0  0  0  0  0  0
    5.4841   -0.3790   -0.8784 H   0  0  0  0  0  0  0  0  0  0  0  0
    2.6626    2.9455   -2.5812 N   0  0  0  0  0  0  0  0  0  0  0  0
    2.3634    4.0230   -3.5121 C   0  0  0  0  0  0  0  0  0  0  0  0
    1.9241    2.5937   -1.9641 H   0  0  0  0  0  0  0  0  0  0  0  0
    3.0392    4.8686   -3.3491 H   0  0  0  0  0  0  0  0  0  0  0  0
    2.4712    3.6768   -4.5451 H   0  0  0  0  0  0  0  0  0  0  0  0
    1.3350    4.3679   -3.3678 H   0  0  0  0  0  0  0  0  0  0  0  0
  1  2  2  0  0  0  0
  1  3  1  0  0  0  0
  1  7  1  0  0  0  0
  3  4  1  0  0  0  0
  3  5  1  0  0  0  0
  3  6  1  0  0  0  0
  7  8  1  0  0  0  0
  7 12  1  0  0  0  0
  8  9  1  0  0  0  0
  8 11  1  0  0  0  0
  8 13  1  0  0  0  0
  9 10  2  0  0  0  0
  9 17  1  0  0  0  0
 11 14  1  0  0  0  0
 11 15  1  0  0  0  0
 11 16  1  0  0  0  0
 17 18  1  0  0  0  0
 17 26  1  0  0  0  0
 18 19  1  0  0  0  0
 18 21  1  0  0  0  0
 18 27  1  0  0  0  0
 19 20  2  0  0  0  0
 19 32  1  0  0  0  0
 21 22  1  0  0  0  0
 21 28  1  0  0  0  0
 21 29  1  0  0  0  0
 22 23  1  0  0  0  0
 22 30  1  0  0  0  0
 22 31  1  0  0  0  0
 23 24  1  0  0  0  0
 23 25  2  0  0  0  0
 32 33  1  0  0  0  0
 32 37  1  0  0  0  0
 33 34  1  0  0  0  0
 33 36  1  0  0  0  0
 33 38  1  0  0  0  0
 34 35  2  0  0  0  0
 34 42  1  0  0  0  0
 36 39  1  0  0  0  0
 36 40  1  0  0  0  0
 36 41  1  0  0  0  0
 42 43  1  0  0  0  0
 42 44  1  0  0  0  0
 43 45  1  0  0  0  0
 43 46  1  0  0  0  0
 43 47  1  0  0  0  0
M  CHG  1  24  -1
M  END
$$$$

  -OEChem-05262216243D

 47 46  0     1  0  0  0  0  0999 V2000
    0.7795   -3.2222    2.0393 C   0  0  0  0  0  0  0  0  0  0  0  0
    1.9260   -2.8444    1.8337 O   0  0  0  0  0  0  0  0  0  0  0  0
    0.0015   -2.7096    3.2366 C   0  0  0  0  0  0  0  0  0  0  0  0
   -0.8705   -2.1420    2.9015 H   0  0  0  0  0  0  0  0  0  0  0  0
   -0.3411   -3.5480    3.8473 H   0  0  0  0  0  0  0  0  0  0  0  0
    0.6298   -2.0580    3.8492 H   0  0  0  0  0  0  0  0  0  0  0  0
    0.1819   -4.0649    1.1271 N   0  0  0  0  0  0  0  0  0  0  0  0
    0.8152   -4.4773   -0.1429 C   0  0  2  0  0  0  0  0  0  0  0  0
    0.7232   -3.3797   -1.2355 C   0  0  0  0  0  0  0  0  0  0  0  0
    0.2949   -3.6069   -2.3613 O   0  0  0  0  0  0  0  0  0  0  0  0
    0.1504   -5.7916   -0.5684 C   0  0  0  0  0  0  0  0  0  0  0  0
   -0.8391   -4.1129    1.1947 H   0  0  0  0  0  0  0  0  0  0  0  0
    1.8785   -4.6762    0.0249 H   0  0  0  0  0  0  0  0  0  0  0  0
   -0.9146   -5.6354   -0.7697 H   0  0  0  0  0  0  0  0  0  0  0  0
    0.6215   -6.1795   -1.4768 H   0  0  0  0  0  0  0  0  0  0  0  0
    0.2510   -6.5420    0.2213 H   0  0  0  0  0  0  0  0  0  0  0  0
    1.0380   -2.0795   -0.9011 N   0  0  0  0  0  0  0  0  0  0  0  0
    0.1672   -0.9360   -1.2354 C   0  0  2  0  0  0  0  0  0  0  0  0
    0.9674    0.3751   -1.0738 C   0  0  0  0  0  0  0  0  0  0  0  0
    0.8425    1.1167   -0.1053 O   0  0  0  0  0  0  0  0  0  0  0  0
   -1.0814   -0.9306   -0.3126 C   0  0  0  0  0  0  0  0  0  0  0  0
   -2.0668   -2.0989   -0.5197 C   0  0  0  0  0  0  0  0  0  0  0  0
   -3.2289   -2.0061    0.4579 C   0  0  0  0  0  0  0  0  0  0  0  0
   -3.1157   -2.7166    1.4921 O   0  5  0  0  0  0  0  0  0  0  0  0
   -4.1786   -1.2231    0.2183 O   0  0  0  0  0  0  0  0  0  0  0  0
    1.4513   -2.0264    0.0340 H   0  0  0  0  0  0  0  0  0  0  0  0
   -0.1651   -1.0052   -2.2765 H   0  0  0  0  0  0  0  0  0  0  0  0
   -1.6335    0.0013   -0.4793 H   0  0  0  0  0  0  0  0  0  0  0  0
   -0.7528   -0.9262    0.7316 H   0  0  0  0  0  0  0  0  0  0  0  0
   -2.4554   -2.0665   -1.5416 H   0  0  0  0  0  0  0  0  0  0  0  0
   -1.6045   -3.0698   -0.3857 H   0  0  0  0  0  0  0  0  0  0  0  0
    1.9040    0.7085   -2.0343 N   0  0  0  0  0  0  0  0  0  0  0  0
    2.7512    1.9067   -1.9986 C   0  0  2  0  0  0  0  0  0  0  0  0
    3.1323    2.4041   -3.4081 C   0  0  0  0  0  0  0  0  0  0  0  0
    3.1568    1.6334   -4.3616 O   0  0  0  0  0  0  0  0  0  0  0  0
    4.0129    1.5803   -1.1941 C   0  0  0  0  0  0  0  0  0  0  0  0
    2.0038    0.0762   -2.8274 H   0  0  0  0  0  0  0  0  0  0  0  0
    2.2095    2.7193   -1.5034 H   0  0  0  0  0  0  0  0  0  0  0  0
    4.5722    0.7706   -1.6736 H   0  0  0  0  0  0  0  0  0  0  0  0
    4.6612    2.4587   -1.1230 H   0  0  0  0  0  0  0  0  0  0  0  0
    3.7453    1.2659   -0.1802 H   0  0  0  0  0  0  0  0  0  0  0  0
    3.4704    3.7315   -3.6045 N   0  0  0  0  0  0  0  0  0  0  0  0
    3.7992    4.2896   -4.9097 C   0  0  0  0  0  0  0  0  0  0  0  0
    3.3918    4.3554   -2.8067 H   0  0  0  0  0  0  0  0  0  0  0  0
    4.6606    3.7702   -5.3422 H   0  0  0  0  0  0  0  0  0  0  0  0
    2.9485    4.1925   -5.5923 H   0  0  0  0  0  0  0  0  0  0  0  0
    4.0481    5.3508   -4.8149 H   0  0  0  0  0  0  0  0  0  0  0  0
  1  2  2  0  0  0  0
  1  3  1  0  0  0  0
  1  7  1  0  0  0  0
  3  4  1  0  0  0  0
  3  5  1  0  0  0  0
  3  6  1  0  0  0  0
  7  8  1  0  0  0  0
  7 12  1  0  0  0  0
  8  9  1  0  0  0  0
  8 11  1  0  0  0  0
  8 13  1  0  0  0  0
  9 10  2  0  0  0  0
  9 17  1  0  0  0  0
 11 14  1  0  0  0  0
 11 15  1  0  0  0  0
 11 16  1  0  0  0  0
 17 18  1  0  0  0  0
 17 26  1  0  0  0  0
 18 19  1  0  0  0  0
 18 21  1  0  0  0  0
 18 27  1  0  0  0  0
 19 20  2  0  0  0  0
 19 32  1  0  0  0  0
 21 22  1  0  0  0  0
 21 28  1  0  0  0  0
 21 29  1  0  0  0  0
 22 23  1  0  0  0  0
 22 30  1  0  0  0  0
 22 31  1  0  0  0  0
 23 24  1  0  0  0  0
 23 25  2  0  0  0  0
 32 33  1  0  0  0  0
 32 37  1  0  0  0  0
 33 34  1  0  0  0  0
 33 36  1  0  0  0  0
 33 38  1  0  0  0  0
 34 35  2  0  0  0  0
 34 42  1  0  0  0  0
 36 39  1  0  0  0  0
 36 40  1  0  0  0  0
 36 41  1  0  0  0  0
 42 43  1  0  0  0  0
 42 44  1  0  0  0  0
 43 45  1  0  0  0  0
 43 46  1  0  0  0  0
 43 47  1  0  0  0  0
M  CHG  1  24  -1
M  END
$$$$

  -OEChem-05262216243D

 47 46  0     1  0  0  0  0  0999 V2000
    0.7035   -3.2978    1.9884 C   0  0  0  0  0  0  0  0  0  0  0  0
    1.8786   -2.9960    1.8245 O   0  0  0  0  0  0  0  0  0  0  0  0
   -0.0714   -2.7723    3.1820 C   0  0  0  0  0  0  0  0  0  0  0  0
   -0.5632   -3.5988    3.7006 H   0  0  0  0  0  0  0  0  0  0  0  0
    0.6014   -2.2657    3.8787 H   0  0  0  0  0  0  0  0  0  0  0  0
   -0.8359   -2.0641    2.8508 H   0  0  0  0  0  0  0  0  0  0  0  0
    0.0756   -4.0725    1.0379 N   0  0  0  0  0  0  0  0  0  0  0  0
    0.7128   -4.4908   -0.2277 C   0  0  2  0  0  0  0  0  0  0  0  0
    0.7069   -3.3642   -1.2942 C   0  0  0  0  0  0  0  0  0  0  0  0
    0.2882   -3.5415   -2.4326 O   0  0  0  0  0  0  0  0  0  0  0  0
   -0.0195   -5.7534   -0.6976 C   0  0  0  0  0  0  0  0  0  0  0  0
   -0.9477   -4.0537    1.0795 H   0  0  0  0  0  0  0  0  0  0  0  0
    1.7588   -4.7556   -0.0434 H   0  0  0  0  0  0  0  0  0  0  0  0
   -1.0691   -5.5285   -0.9148 H   0  0  0  0  0  0  0  0  0  0  0  0
    0.4463   -6.1484   -1.6057 H   0  0  0  0  0  0  0  0  0  0  0  0
    0.0189   -6.5266    0.0756 H   0  0  0  0  0  0  0  0  0  0  0  0
    1.0807   -2.0893   -0.9239 N   0  0  0  0  0  0  0  0  0  0  0  0
    0.2749   -0.8972   -1.2494 C   0  0  2  0  0  0  0  0  0  0  0  0
    1.1182    0.3794   -1.0495 C   0  0  0  0  0  0  0  0  0  0  0  0
    1.1868    0.9584    0.0290 O   0  0  0  0  0  0  0  0  0  0  0  0
   -0.9861   -0.8428   -0.3469 C   0  0  0  0  0  0  0  0  0  0  0  0
   -2.0271   -1.9536   -0.5913 C   0  0  0  0  0  0  0  0  0  0  0  0
   -3.1968   -1.8138    0.3717 C   0  0  0  0  0  0  0  0  0  0  0  0
   -4.1030   -0.9813    0.1293 O   0  5  0  0  0  0  0  0  0  0  0  0
   -3.1355   -2.5442    1.3962 O   0  0  0  0  0  0  0  0  0  0  0  0
    1.4796   -2.0741    0.0188 H   0  0  0  0  0  0  0  0  0  0  0  0
   -0.0439   -0.9345   -2.2958 H   0  0  0  0  0  0  0  0  0  0  0  0
   -1.4843    0.1210   -0.5006 H   0  0  0  0  0  0  0  0  0  0  0  0
   -0.6744   -0.8782    0.7021 H   0  0  0  0  0  0  0  0  0  0  0  0
   -2.3974   -1.8778   -1.6178 H   0  0  0  0  0  0  0  0  0  0  0  0
   -1.6201   -2.9509   -0.4736 H   0  0  0  0  0  0  0  0  0  0  0  0
    1.8560    0.8752   -2.1079 N   0  0  0  0  0  0  0  0  0  0  0  0
    2.6398    2.1151   -2.0711 C   0  0  2  0  0  0  0  0  0  0  0  0
    2.6511    2.8341   -3.4350 C   0  0  0  0  0  0  0  0  0  0  0  0
    2.5696    2.1960   -4.4789 O   0  0  0  0  0  0  0  0  0  0  0  0
    4.0660    1.7705   -1.6350 C   0  0  0  0  0  0  0  0  0  0  0  0
    1.7811    0.3876   -2.9996 H   0  0  0  0  0  0  0  0  0  0  0  0
    2.1994    2.8047   -1.3433 H   0  0  0  0  0  0  0  0  0  0  0  0
    4.5308    1.0880   -2.3537 H   0  0  0  0  0  0  0  0  0  0  0  0
    4.6756    2.6765   -1.5675 H   0  0  0  0  0  0  0  0  0  0  0  0
    4.0546    1.2869   -0.6529 H   0  0  0  0  0  0  0  0  0  0  0  0
    2.7620    4.2119   -3.4907 N   0  0  0  0  0  0  0  0  0  0  0  0
    2.6990    4.9686   -4.7344 C   0  0  0  0  0  0  0  0  0  0  0  0
    2.7505    4.7144   -2.6080 H   0  0  0  0  0  0  0  0  0  0  0  0
    3.5031    4.6612   -5.4114 H   0  0  0  0  0  0  0  0  0  0  0  0
    1.7371    4.8072   -5.2325 H   0  0  0  0  0  0  0  0  0  0  0  0
    2.8090    6.0380   -4.5308 H   0  0  0  0  0  0  0  0  0  0  0  0
  1  2  2  0  0  0  0
  1  3  1  0  0  0  0
  1  7  1  0  0  0  0
  3  4  1  0  0  0  0
  3  5  1  0  0  0  0
  3  6  1  0  0  0  0
  7  8  1  0  0  0  0
  7 12  1  0  0  0  0
  8  9  1  0  0  0  0
  8 11  1  0  0  0  0
  8 13  1  0  0  0  0
  9 10  2  0  0  0  0
  9 17  1  0  0  0  0
 11 14  1  0  0  0  0
 11 15  1  0  0  0  0
 11 16  1  0  0  0  0
 17 18  1  0  0  0  0
 17 26  1  0  0  0  0
 18 19  1  0  0  0  0
 18 21  1  0  0  0  0
 18 27  1  0  0  0  0
 19 20  2  0  0  0  0
 19 32  1  0  0  0  0
 21 22  1  0  0  0  0
 21 28  1  0  0  0  0
 21 29  1  0  0  0  0
 22 23  1  0  0  0  0
 22 30  1  0  0  0  0
 22 31  1  0  0  0  0
 23 24  1  0  0  0  0
 23 25  2  0  0  0  0
 32 33  1  0  0  0  0
 32 37  1  0  0  0  0
 33 34  1  0  0  0  0
 33 36  1  0  0  0  0
 33 38  1  0  0  0  0
 34 35  2  0  0  0  0
 34 42  1  0  0  0  0
 36 39  1  0  0  0  0
 36 40  1  0  0  0  0
 36 41  1  0  0  0  0
 42 43  1  0  0  0  0
 42 44  1  0  0  0  0
 43 45  1  0  0  0  0
 43 46  1  0  0  0  0
 43 47  1  0  0  0  0
M  CHG  1  24  -1
M  END
$$$$

  -OEChem-05262216243D

 47 46  0     1  0  0  0  0  0999 V2000
   -0.1415   -5.5343    1.9069 C   0  0  0  0  0  0  0  0  0  0  0  0
    0.8644   -5.6029    2.5985 O   0  0  0  0  0  0  0  0  0  0  0  0
   -1.3773   -6.3327    2.2783 C   0  0  0  0  0  0  0  0  0  0  0  0
   -1.6070   -7.0535    1.4900 H   0  0  0  0  0  0  0  0  0  0  0  0
   -1.2120   -6.8718    3.2151 H   0  0  0  0  0  0  0  0  0  0  0  0
   -2.2290   -5.6591    2.4058 H   0  0  0  0  0  0  0  0  0  0  0  0
   -0.1542   -4.7535    0.7715 N   0  0  0  0  0  0  0  0  0  0  0  0
    0.8824   -3.7743    0.4268 C   0  0  2  0  0  0  0  0  0  0  0  0
    0.3059   -2.6741   -0.4848 C   0  0  0  0  0  0  0  0  0  0  0  0
   -0.5778   -2.9493   -1.2902 O   0  0  0  0  0  0  0  0  0  0  0  0
    2.0439   -4.4837   -0.2757 C   0  0  0  0  0  0  0  0  0  0  0  0
   -1.0451   -4.6579    0.2835 H   0  0  0  0  0  0  0  0  0  0  0  0
    1.2463   -3.2954    1.3419 H   0  0  0  0  0  0  0  0  0  0  0  0
    1.6938   -4.9738   -1.1896 H   0  0  0  0  0  0  0  0  0  0  0  0
    2.8246   -3.7649   -0.5420 H   0  0  0  0  0  0  0  0  0  0  0  0
    2.4816   -5.2412    0.3813 H   0  0  0  0  0  0  0  0  0  0  0  0
    0.8243   -1.3949   -0.4541 N   0  0  0  0  0  0  0  0  0  0  0  0
    0.0639   -0.1990   -0.8507 C   0  0  2  0  0  0  0  0  0  0  0  0
    1.0561    0.9626   -1.0552 C   0  0  0  0  0  0  0  0  0  0  0  0
    1.7120    1.4040   -0.1169 O   0  0  0  0  0  0  0  0  0  0  0  0
   -0.9675    0.2430    0.2177 C   0  0  0  0  0  0  0  0  0  0  0  0
   -2.1385   -0.7306    0.4380 C   0  0  0  0  0  0  0  0  0  0  0  0
   -3.0811   -0.2131    1.5236 C   0  0  0  0  0  0  0  0  0  0  0  0
   -3.7280    0.8361    1.2803 O   0  5  0  0  0  0  0  0  0  0  0  0
   -3.1409   -0.8596    2.5992 O   0  0  0  0  0  0  0  0  0  0  0  0
    1.5208   -1.2334    0.2696 H   0  0  0  0  0  0  0  0  0  0  0  0
   -0.4616   -0.3860   -1.7927 H   0  0  0  0  0  0  0  0  0  0  0  0
   -1.3856    1.2116   -0.0787 H   0  0  0  0  0  0  0  0  0  0  0  0
   -0.4547    0.3902    1.1748 H   0  0  0  0  0  0  0  0  0  0  0  0
   -2.6947   -0.8599   -0.4948 H   0  0  0  0  0  0  0  0  0  0  0  0
   -1.7708   -1.7085    0.7525 H   0  0  0  0  0  0  0  0  0  0  0  0
    1.3802    1.3778   -2.3331 N   0  0  0  0  0  0  0  0  0  0  0  0
    2.3281    2.4548   -2.6414 C   0  0  2  0  0  0  0  0  0  0  0  0
    1.9796    3.1735   -3.9609 C   0  0  0  0  0  0  0  0  0  0  0  0
    1.3464    2.5943   -4.8370 O   0  0  0  0  0  0  0  0  0  0  0  0
    3.7365    1.8578   -2.7203 C   0  0  0  0  0  0  0  0  0  0  0  0
    0.8317    0.9996   -3.1046 H   0  0  0  0  0  0  0  0  0  0  0  0
    2.2966    3.2036   -1.8427 H   0  0  0  0  0  0  0  0  0  0  0  0
    3.7874    1.1013   -3.5099 H   0  0  0  0  0  0  0  0  0  0  0  0
    4.4715    2.6386   -2.9360 H   0  0  0  0  0  0  0  0  0  0  0  0
    4.0028    1.3864   -1.7692 H   0  0  0  0  0  0  0  0  0  0  0  0
    2.3956    4.4756   -4.1744 N   0  0  0  0  0  0  0  0  0  0  0  0
    2.0762    5.2289   -5.3801 C   0  0  0  0  0  0  0  0  0  0  0  0
    2.8749    4.9452   -3.4116 H   0  0  0  0  0  0  0  0  0  0  0  0
    2.5024    4.7382   -6.2613 H   0  0  0  0  0  0  0  0  0  0  0  0
    0.9913    5.3049   -5.5083 H   0  0  0  0  0  0  0  0  0  0  0  0
    2.4885    6.2403   -5.3147 H   0  0  0  0  0  0  0  0  0  0  0  0
  1  2  2  0  0  0  0
  1  3  1  0  0  0  0
  1  7  1  0  0  0  0
  3  4  1  0  0  0  0
  3  5  1  0  0  0  0
  3  6  1  0  0  0  0
  7  8  1  0  0  0  0
  7 12  1  0  0  0  0
  8  9  1  0  0  0  0
  8 11  1  0  0  0  0
  8 13  1  0  0  0  0
  9 10  2  0  0  0  0
  9 17  1  0  0  0  0
 11 14  1  0  0  0  0
 11 15  1  0  0  0  0
 11 16  1  0  0  0  0
 17 18  1  0  0  0  0
 17 26  1  0  0  0  0
 18 19  1  0  0  0  0
 18 21  1  0  0  0  0
 18 27  1  0  0  0  0
 19 20  2  0  0  0  0
 19 32  1  0  0  0  0
 21 22  1  0  0  0  0
 21 28  1  0  0  0  0
 21 29  1  0  0  0  0
 22 23  1  0  0  0  0
 22 30  1  0  0  0  0
 22 31  1  0  0  0  0
 23 24  1  0  0  0  0
 23 25  2  0  0  0  0
 32 33  1  0  0  0  0
 32 37  1  0  0  0  0
 33 34  1  0  0  0  0
 33 36  1  0  0  0  0
 33 38  1  0  0  0  0
 34 35  2  0  0  0  0
 34 42  1  0  0  0  0
 36 39  1  0  0  0  0
 36 40  1  0  0  0  0
 36 41  1  0  0  0  0
 42 43  1  0  0  0  0
 42 44  1  0  0  0  0
 43 45  1  0  0  0  0
 43 46  1  0  0  0  0
 43 47  1  0  0  0  0
M  CHG  1  24  -1
M  END
$$$$

  -OEChem-05262216243D

 47 46  0     1  0  0  0  0  0999 V2000
   -0.0897   -5.5655    1.8484 C   0  0  0  0  0  0  0  0  0  0  0  0
    0.9223   -5.6293    2.5313 O   0  0  0  0  0  0  0  0  0  0  0  0
   -1.3041   -6.4013    2.2093 C   0  0  0  0  0  0  0  0  0  0  0  0
   -1.5327   -7.0975    1.3985 H   0  0  0  0  0  0  0  0  0  0  0  0
   -1.1137   -6.9711    3.1232 H   0  0  0  0  0  0  0  0  0  0  0  0
   -2.1666   -5.7500    2.3744 H   0  0  0  0  0  0  0  0  0  0  0  0
   -0.1290   -4.7546    0.7347 N   0  0  0  0  0  0  0  0  0  0  0  0
    0.8865   -3.7488    0.4026 C   0  0  2  0  0  0  0  0  0  0  0  0
    0.2844   -2.6450   -0.4886 C   0  0  0  0  0  0  0  0  0  0  0  0
   -0.6138   -2.9201   -1.2779 O   0  0  0  0  0  0  0  0  0  0  0  0
    2.0594   -4.4230   -0.3161 C   0  0  0  0  0  0  0  0  0  0  0  0
   -1.0250   -4.6655    0.2549 H   0  0  0  0  0  0  0  0  0  0  0  0
    1.2447   -3.2776    1.3242 H   0  0  0  0  0  0  0  0  0  0  0  0
    1.7149   -4.9085   -1.2345 H   0  0  0  0  0  0  0  0  0  0  0  0
    2.8223   -3.6835   -0.5773 H   0  0  0  0  0  0  0  0  0  0  0  0
    2.5179   -5.1794    0.3278 H   0  0  0  0  0  0  0  0  0  0  0  0
    0.7938   -1.3624   -0.4572 N   0  0  0  0  0  0  0  0  0  0  0  0
    0.0337   -0.1663   -0.8533 C   0  0  2  0  0  0  0  0  0  0  0  0
    1.0178    1.0024   -1.0549 C   0  0  0  0  0  0  0  0  0  0  0  0
    1.8333    1.2874   -0.1825 O   0  0  0  0  0  0  0  0  0  0  0  0
   -0.9855    0.2791    0.2233 C   0  0  0  0  0  0  0  0  0  0  0  0
   -2.1561   -0.6915    0.4584 C   0  0  0  0  0  0  0  0  0  0  0  0
   -3.0851   -0.1676    1.5529 C   0  0  0  0  0  0  0  0  0  0  0  0
   -3.7093    0.8986    1.3240 O   0  5  0  0  0  0  0  0  0  0  0  0
   -3.1546   -0.8238    2.6219 O   0  0  0  0  0  0  0  0  0  0  0  0
    1.5114   -1.1961    0.2447 H   0  0  0  0  0  0  0  0  0  0  0  0
   -0.4951   -0.3548   -1.7930 H   0  0  0  0  0  0  0  0  0  0  0  0
   -1.4048    1.2489   -0.0689 H   0  0  0  0  0  0  0  0  0  0  0  0
   -0.4611    0.4257    1.1742 H   0  0  0  0  0  0  0  0  0  0  0  0
   -2.7234   -0.8205   -0.4677 H   0  0  0  0  0  0  0  0  0  0  0  0
   -1.7877   -1.6702    0.7701 H   0  0  0  0  0  0  0  0  0  0  0  0
    1.1154    1.6318   -2.2818 N   0  0  0  0  0  0  0  0  0  0  0  0
    2.0222    2.7489   -2.5725 C   0  0  2  0  0  0  0  0  0  0  0  0
    1.4753    3.6627   -3.6884 C   0  0  0  0  0  0  0  0  0  0  0  0
    0.6929    3.2233   -4.5241 O   0  0  0  0  0  0  0  0  0  0  0  0
    3.3870    2.1829   -2.9783 C   0  0  0  0  0  0  0  0  0  0  0  0
    0.4172    1.3995   -2.9876 H   0  0  0  0  0  0  0  0  0  0  0  0
    2.1390    3.3625   -1.6730 H   0  0  0  0  0  0  0  0  0  0  0  0
    3.2910    1.5574   -3.8716 H   0  0  0  0  0  0  0  0  0  0  0  0
    4.0891    2.9938   -3.1933 H   0  0  0  0  0  0  0  0  0  0  0  0
    3.8025    1.5734   -2.1697 H   0  0  0  0  0  0  0  0  0  0  0  0
    1.8810    4.9829   -3.7677 N   0  0  0  0  0  0  0  0  0  0  0  0
    1.3860    5.9125   -4.7750 C   0  0  0  0  0  0  0  0  0  0  0  0
    2.4848    5.3314   -3.0290 H   0  0  0  0  0  0  0  0  0  0  0  0
    1.6431    5.5608   -5.7796 H   0  0  0  0  0  0  0  0  0  0  0  0
    0.2978    6.0121   -4.7035 H   0  0  0  0  0  0  0  0  0  0  0  0
    1.8341    6.8998   -4.6298 H   0  0  0  0  0  0  0  0  0  0  0  0
  1  2  2  0  0  0  0
  1  3  1  0  0  0  0
  1  7  1  0  0  0  0
  3  4  1  0  0  0  0
  3  5  1  0  0  0  0
  3  6  1  0  0  0  0
  7  8  1  0  0  0  0
  7 12  1  0  0  0  0
  8  9  1  0  0  0  0
  8 11  1  0  0  0  0
  8 13  1  0  0  0  0
  9 10  2  0  0  0  0
  9 17  1  0  0  0  0
 11 14  1  0  0  0  0
 11 15  1  0  0  0  0
 11 16  1  0  0  0  0
 17 18  1  0  0  0  0
 17 26  1  0  0  0  0
 18 19  1  0  0  0  0
 18 21  1  0  0  0  0
 18 27  1  0  0  0  0
 19 20  2  0  0  0  0
 19 32  1  0  0  0  0
 21 22  1  0  0  0  0
 21 28  1  0  0  0  0
 21 29  1  0  0  0  0
 22 23  1  0  0  0  0
 22 30  1  0  0  0  0
 22 31  1  0  0  0  0
 23 24  1  0  0  0  0
 23 25  2  0  0  0  0
 32 33  1  0  0  0  0
 32 37  1  0  0  0  0
 33 34  1  0  0  0  0
 33 36  1  0  0  0  0
 33 38  1  0  0  0  0
 34 35  2  0  0  0  0
 34 42  1  0  0  0  0
 36 39  1  0  0  0  0
 36 40  1  0  0  0  0
 36 41  1  0  0  0  0
 42 43  1  0  0  0  0
 42 44  1  0  0  0  0
 43 45  1  0  0  0  0
 43 46  1  0  0  0  0
 43 47  1  0  0  0  0
M  CHG  1  24  -1
M  END
$$$$

  -OEChem-05262216243D

 47 46  0     1  0  0  0  0  0999 V2000
   -0.0643   -5.5881    1.7787 C   0  0  0  0  0  0  0  0  0  0  0  0
    0.9432   -5.6505    2.4681 O   0  0  0  0  0  0  0  0  0  0  0  0
   -1.2770   -6.4312    2.1270 C   0  0  0  0  0  0  0  0  0  0  0  0
   -1.5115   -7.1062    1.3007 H   0  0  0  0  0  0  0  0  0  0  0  0
   -1.0793   -7.0242    3.0240 H   0  0  0  0  0  0  0  0  0  0  0  0
   -2.1383   -5.7845    2.3155 H   0  0  0  0  0  0  0  0  0  0  0  0
   -0.1030   -4.7662    0.6734 N   0  0  0  0  0  0  0  0  0  0  0  0
    0.8922   -3.7303    0.3742 C   0  0  2  0  0  0  0  0  0  0  0  0
    0.2687   -2.6190   -0.4937 C   0  0  0  0  0  0  0  0  0  0  0  0
   -0.6484   -2.8888   -1.2633 O   0  0  0  0  0  0  0  0  0  0  0  0
    2.0861   -4.3611   -0.3494 C   0  0  0  0  0  0  0  0  0  0  0  0
   -0.9974   -4.6800    0.1899 H   0  0  0  0  0  0  0  0  0  0  0  0
    1.2324   -3.2729    1.3095 H   0  0  0  0  0  0  0  0  0  0  0  0
    1.7602   -4.8327   -1.2818 H   0  0  0  0  0  0  0  0  0  0  0  0
    2.8345   -3.5988   -0.5859 H   0  0  0  0  0  0  0  0  0  0  0  0
    2.5567   -5.1221    0.2805 H   0  0  0  0  0  0  0  0  0  0  0  0
    0.7728   -1.3345   -0.4584 N   0  0  0  0  0  0  0  0  0  0  0  0
    0.0157   -0.1333   -0.8461 C   0  0  2  0  0  0  0  0  0  0  0  0
    0.9969    1.0390   -1.0430 C   0  0  0  0  0  0  0  0  0  0  0  0
    1.9527    1.1830   -0.2848 O   0  0  0  0  0  0  0  0  0  0  0  0
   -0.9908    0.3153    0.2403 C   0  0  0  0  0  0  0  0  0  0  0  0
   -2.1642   -0.6485    0.4851 C   0  0  0  0  0  0  0  0  0  0  0  0
   -3.0771   -0.1172    1.5895 C   0  0  0  0  0  0  0  0  0  0  0  0
   -3.7044    0.9476    1.3617 O   0  5  0  0  0  0  0  0  0  0  0  0
   -3.1236   -0.7602    2.6675 O   0  0  0  0  0  0  0  0  0  0  0  0
    1.5272   -1.1711    0.2051 H   0  0  0  0  0  0  0  0  0  0  0  0
   -0.5172   -0.3164   -1.7846 H   0  0  0  0  0  0  0  0  0  0  0  0
   -1.4086    1.2875   -0.0455 H   0  0  0  0  0  0  0  0  0  0  0  0
   -0.4559    0.4577    1.1860 H   0  0  0  0  0  0  0  0  0  0  0  0
   -2.7414   -0.7744   -0.4352 H   0  0  0  0  0  0  0  0  0  0  0  0
   -1.7975   -1.6292    0.7930 H   0  0  0  0  0  0  0  0  0  0  0  0
    0.8862    1.8724   -2.1400 N   0  0  0  0  0  0  0  0  0  0  0  0
    1.7613    3.0212   -2.4022 C   0  0  2  0  0  0  0  0  0  0  0  0
    1.0615    4.0942   -3.2606 C   0  0  0  0  0  0  0  0  0  0  0  0
    0.1708    3.7804   -4.0425 O   0  0  0  0  0  0  0  0  0  0  0  0
    3.0265    2.5256   -3.1106 C   0  0  0  0  0  0  0  0  0  0  0  0
    0.0639    1.7649   -2.7338 H   0  0  0  0  0  0  0  0  0  0  0  0
    2.0390    3.4889   -1.4518 H   0  0  0  0  0  0  0  0  0  0  0  0
    2.7674    2.0365   -4.0552 H   0  0  0  0  0  0  0  0  0  0  0  0
    3.6994    3.3618   -3.3229 H   0  0  0  0  0  0  0  0  0  0  0  0
    3.5594    1.8061   -2.4809 H   0  0  0  0  0  0  0  0  0  0  0  0
    1.4508    5.4186   -3.1714 N   0  0  0  0  0  0  0  0  0  0  0  0
    0.8068    6.4921   -3.9172 C   0  0  0  0  0  0  0  0  0  0  0  0
    2.1393    5.6555   -2.4633 H   0  0  0  0  0  0  0  0  0  0  0  0
    0.8630    6.2987   -4.9936 H   0  0  0  0  0  0  0  0  0  0  0  0
   -0.2461    6.5808   -3.6295 H   0  0  0  0  0  0  0  0  0  0  0  0
    1.3045    7.4446   -3.7122 H   0  0  0  0  0  0  0  0  0  0  0  0
  1  2  2  0  0  0  0
  1  3  1  0  0  0  0
  1  7  1  0  0  0  0
  3  4  1  0  0  0  0
  3  5  1  0  0  0  0
  3  6  1  0  0  0  0
  7  8  1  0  0  0  0
  7 12  1  0  0  0  0
  8  9  1  0  0  0  0
  8 11  1  0  0  0  0
  8 13  1  0  0  0  0
  9 10  2  0  0  0  0
  9 17  1  0  0  0  0
 11 14  1  0  0  0  0
 11 15  1  0  0  0  0
 11 16  1  0  0  0  0
 17 18  1  0  0  0  0
 17 26  1  0  0  0  0
 18 19  1  0  0  0  0
 18 21  1  0  0  0  0
 18 27  1  0  0  0  0
 19 20  2  0  0  0  0
 19 32  1  0  0  0  0
 21 22  1  0  0  0  0
 21 28  1  0  0  0  0
 21 29  1  0  0  0  0
 22 23  1  0  0  0  0
 22 30  1  0  0  0  0
 22 31  1  0  0  0  0
 23 24  1  0  0  0  0
 23 25  2  0  0  0  0
 32 33  1  0  0  0  0
 32 37  1  0  0  0  0
 33 34  1  0  0  0  0
 33 36  1  0  0  0  0
 33 38  1  0  0  0  0
 34 35  2  0  0  0  0
 34 42  1  0  0  0  0
 36 39  1  0  0  0  0
 36 40  1  0  0  0  0
 36 41  1  0  0  0  0
 42 43  1  0  0  0  0
 42 44  1  0  0  0  0
 43 45  1  0  0  0  0
 43 46  1  0  0  0  0
 43 47  1  0  0  0  0
M  CHG  1  24  -1
M  END
$$$$

  -OEChem-05262216243D

 47 46  0     1  0  0  0  0  0999 V2000
   -0.0608   -5.5717    1.7619 C   0  0  0  0  0  0  0  0  0  0  0  0
    0.9557   -5.6364    2.4377 O   0  0  0  0  0  0  0  0  0  0  0  0
   -1.2697   -6.4133    2.1264 C   0  0  0  0  0  0  0  0  0  0  0  0
   -1.5055   -7.1007    1.3105 H   0  0  0  0  0  0  0  0  0  0  0  0
   -1.0679   -6.9931    3.0313 H   0  0  0  0  0  0  0  0  0  0  0  0
   -2.1316   -5.7658    2.3089 H   0  0  0  0  0  0  0  0  0  0  0  0
   -0.1107   -4.7540    0.6540 N   0  0  0  0  0  0  0  0  0  0  0  0
    0.8871   -3.7258    0.3374 C   0  0  2  0  0  0  0  0  0  0  0  0
    0.2573   -2.6061   -0.5148 C   0  0  0  0  0  0  0  0  0  0  0  0
   -0.6769   -2.8650   -1.2674 O   0  0  0  0  0  0  0  0  0  0  0  0
    2.0614   -4.3664   -0.4097 C   0  0  0  0  0  0  0  0  0  0  0  0
   -1.0116   -4.6630    0.1839 H   0  0  0  0  0  0  0  0  0  0  0  0
    1.2492   -3.2735    1.2667 H   0  0  0  0  0  0  0  0  0  0  0  0
    1.7147   -4.8294   -1.3390 H   0  0  0  0  0  0  0  0  0  0  0  0
    2.8152   -3.6121   -0.6551 H   0  0  0  0  0  0  0  0  0  0  0  0
    2.5331   -5.1360    0.2092 H   0  0  0  0  0  0  0  0  0  0  0  0
    0.7700   -1.3249   -0.4797 N   0  0  0  0  0  0  0  0  0  0  0  0
    0.0267   -0.1142   -0.8663 C   0  0  2  0  0  0  0  0  0  0  0  0
    1.0106    1.0570   -1.0640 C   0  0  0  0  0  0  0  0  0  0  0  0
    2.0737    1.0897   -0.4482 O   0  0  0  0  0  0  0  0  0  0  0  0
   -0.9654    0.3423    0.2301 C   0  0  0  0  0  0  0  0  0  0  0  0
   -2.1475   -0.6066    0.4860 C   0  0  0  0  0  0  0  0  0  0  0  0
   -3.0384   -0.0599    1.6004 C   0  0  0  0  0  0  0  0  0  0  0  0
   -3.6970    0.9817    1.3557 O   0  5  0  0  0  0  0  0  0  0  0  0
   -3.0288   -0.6596    2.7040 O   0  0  0  0  0  0  0  0  0  0  0  0
    1.5514   -1.1694    0.1539 H   0  0  0  0  0  0  0  0  0  0  0  0
   -0.5113   -0.2900   -1.8035 H   0  0  0  0  0  0  0  0  0  0  0  0
   -1.3767    1.3194   -0.0476 H   0  0  0  0  0  0  0  0  0  0  0  0
   -0.4186    0.4753    1.1704 H   0  0  0  0  0  0  0  0  0  0  0  0
   -2.7367   -0.7244   -0.4278 H   0  0  0  0  0  0  0  0  0  0  0  0
   -1.7917   -1.5923    0.7907 H   0  0  0  0  0  0  0  0  0  0  0  0
    0.7309    2.0651   -1.9675 N   0  0  0  0  0  0  0  0  0  0  0  0
    1.5607    3.2608   -2.1573 C   0  0  2  0  0  0  0  0  0  0  0  0
    0.7420    4.4537   -2.6912 C   0  0  0  0  0  0  0  0  0  0  0  0
   -0.2283    4.2649   -3.4160 O   0  0  0  0  0  0  0  0  0  0  0  0
    2.6928    2.9263   -3.1337 C   0  0  0  0  0  0  0  0  0  0  0  0
   -0.1848    2.0538   -2.4171 H   0  0  0  0  0  0  0  0  0  0  0  0
    1.9889    3.5588   -1.1945 H   0  0  0  0  0  0  0  0  0  0  0  0
    2.2834    2.6183   -4.1012 H   0  0  0  0  0  0  0  0  0  0  0  0
    3.3348    3.7985   -3.2875 H   0  0  0  0  0  0  0  0  0  0  0  0
    3.3076    2.1108   -2.7406 H   0  0  0  0  0  0  0  0  0  0  0  0
    1.1162    5.7489   -2.3812 N   0  0  0  0  0  0  0  0  0  0  0  0
    0.3651    6.9208   -2.8126 C   0  0  0  0  0  0  0  0  0  0  0  0
    1.8784    5.8688   -1.7206 H   0  0  0  0  0  0  0  0  0  0  0  0
    0.3362    6.9759   -3.9058 H   0  0  0  0  0  0  0  0  0  0  0  0
   -0.6616    6.8783   -2.4342 H   0  0  0  0  0  0  0  0  0  0  0  0
    0.8370    7.8322   -2.4333 H   0  0  0  0  0  0  0  0  0  0  0  0
  1  2  2  0  0  0  0
  1  3  1  0  0  0  0
  1  7  1  0  0  0  0
  3  4  1  0  0  0  0
  3  5  1  0  0  0  0
  3  6  1  0  0  0  0
  7  8  1  0  0  0  0
  7 12  1  0  0  0  0
  8  9  1  0  0  0  0
  8 11  1  0  0  0  0
  8 13  1  0  0  0  0
  9 10  2  0  0  0  0
  9 17  1  0  0  0  0
 11 14  1  0  0  0  0
 11 15  1  0  0  0  0
 11 16  1  0  0  0  0
 17 18  1  0  0  0  0
 17 26  1  0  0  0  0
 18 19  1  0  0  0  0
 18 21  1  0  0  0  0
 18 27  1  0  0  0  0
 19 20  2  0  0  0  0
 19 32  1  0  0  0  0
 21 22  1  0  0  0  0
 21 28  1  0  0  0  0
 21 29  1  0  0  0  0
 22 23  1  0  0  0  0
 22 30  1  0  0  0  0
 22 31  1  0  0  0  0
 23 24  1  0  0  0  0
 23 25  2  0  0  0  0
 32 33  1  0  0  0  0
 32 37  1  0  0  0  0
 33 34  1  0  0  0  0
 33 36  1  0  0  0  0
 33 38  1  0  0  0  0
 34 35  2  0  0  0  0
 34 42  1  0  0  0  0
 36 39  1  0  0  0  0
 36 40  1  0  0  0  0
 36 41  1  0  0  0  0
 42 43  1  0  0  0  0
 42 44  1  0  0  0  0
 43 45  1  0  0  0  0
 43 46  1  0  0  0  0
 43 47  1  0  0  0  0
M  CHG  1  24  -1
M  END
$$$$

  -OEChem-05262216243D

 47 46  0     1  0  0  0  0  0999 V2000
   -0.0328   -5.5670    1.7284 C   0  0  0  0  0  0  0  0  0  0  0  0
    0.9929   -5.6328    2.3903 O   0  0  0  0  0  0  0  0  0  0  0  0
   -1.2367   -6.4112    2.1041 C   0  0  0  0  0  0  0  0  0  0  0  0
   -1.4923   -7.0833    1.2816 H   0  0  0  0  0  0  0  0  0  0  0  0
   -1.0181   -7.0078    2.9940 H   0  0  0  0  0  0  0  0  0  0  0  0
   -2.0925   -5.7642    2.3152 H   0  0  0  0  0  0  0  0  0  0  0  0
   -0.1009   -4.7393    0.6291 N   0  0  0  0  0  0  0  0  0  0  0  0
    0.8851   -3.7002    0.3113 C   0  0  2  0  0  0  0  0  0  0  0  0
    0.2286   -2.5726   -0.5092 C   0  0  0  0  0  0  0  0  0  0  0  0
   -0.7243   -2.8275   -1.2396 O   0  0  0  0  0  0  0  0  0  0  0  0
    2.0479   -4.3188   -0.4713 C   0  0  0  0  0  0  0  0  0  0  0  0
   -1.0090   -4.6470    0.1727 H   0  0  0  0  0  0  0  0  0  0  0  0
    1.2633   -3.2612    1.2409 H   0  0  0  0  0  0  0  0  0  0  0  0
    1.6883   -4.7516   -1.4103 H   0  0  0  0  0  0  0  0  0  0  0  0
    2.7984   -3.5567   -0.7024 H   0  0  0  0  0  0  0  0  0  0  0  0
    2.5274   -5.1080    0.1160 H   0  0  0  0  0  0  0  0  0  0  0  0
    0.7415   -1.2916   -0.4785 N   0  0  0  0  0  0  0  0  0  0  0  0
    0.0032   -0.0783   -0.8668 C   0  0  2  0  0  0  0  0  0  0  0  0
    0.9908    1.0919   -1.0683 C   0  0  0  0  0  0  0  0  0  0  0  0
    2.1354    1.0295   -0.6240 O   0  0  0  0  0  0  0  0  0  0  0  0
   -0.9745    0.3765    0.2455 C   0  0  0  0  0  0  0  0  0  0  0  0
   -2.1564   -0.5683    0.5188 C   0  0  0  0  0  0  0  0  0  0  0  0
   -3.0273   -0.0187    1.6476 C   0  0  0  0  0  0  0  0  0  0  0  0
   -3.6588    1.0448    1.4266 O   0  5  0  0  0  0  0  0  0  0  0  0
   -3.0264   -0.6378    2.7403 O   0  0  0  0  0  0  0  0  0  0  0  0
    1.5545   -1.1392    0.1146 H   0  0  0  0  0  0  0  0  0  0  0  0
   -0.5425   -0.2505   -1.8003 H   0  0  0  0  0  0  0  0  0  0  0  0
   -1.3912    1.3536   -0.0232 H   0  0  0  0  0  0  0  0  0  0  0  0
   -0.4140    0.5084    1.1778 H   0  0  0  0  0  0  0  0  0  0  0  0
   -2.7602   -0.6837   -0.3857 H   0  0  0  0  0  0  0  0  0  0  0  0
   -1.7999   -1.5553    0.8185 H   0  0  0  0  0  0  0  0  0  0  0  0
    0.5965    2.2425   -1.7259 N   0  0  0  0  0  0  0  0  0  0  0  0
    1.4215    3.4495   -1.8525 C   0  0  2  0  0  0  0  0  0  0  0  0
    0.5614    4.7144   -2.0467 C   0  0  0  0  0  0  0  0  0  0  0  0
   -0.4925    4.6565   -2.6694 O   0  0  0  0  0  0  0  0  0  0  0  0
    2.3752    3.2774   -3.0392 C   0  0  0  0  0  0  0  0  0  0  0  0
   -0.3789    2.3081   -2.0185 H   0  0  0  0  0  0  0  0  0  0  0  0
    2.0061    3.5836   -0.9364 H   0  0  0  0  0  0  0  0  0  0  0  0
    1.8098    3.1383   -3.9663 H   0  0  0  0  0  0  0  0  0  0  0  0
    3.0124    4.1601   -3.1474 H   0  0  0  0  0  0  0  0  0  0  0  0
    3.0180    2.4045   -2.8894 H   0  0  0  0  0  0  0  0  0  0  0  0
    0.9836    5.9290   -1.5368 N   0  0  0  0  0  0  0  0  0  0  0  0
    0.1750    7.1398   -1.5994 C   0  0  0  0  0  0  0  0  0  0  0  0
    1.8123    5.9232   -0.9497 H   0  0  0  0  0  0  0  0  0  0  0  0
   -0.0283    7.4123   -2.6403 H   0  0  0  0  0  0  0  0  0  0  0  0
   -0.7779    6.9899   -1.0810 H   0  0  0  0  0  0  0  0  0  0  0  0
    0.7025    7.9710   -1.1219 H   0  0  0  0  0  0  0  0  0  0  0  0
  1  2  2  0  0  0  0
  1  3  1  0  0  0  0
  1  7  1  0  0  0  0
  3  4  1  0  0  0  0
  3  5  1  0  0  0  0
  3  6  1  0  0  0  0
  7  8  1  0  0  0  0
  7 12  1  0  0  0  0
  8  9  1  0  0  0  0
  8 11  1  0  0  0  0
  8 13  1  0  0  0  0
  9 10  2  0  0  0  0
  9 17  1  0  0  0  0
 11 14  1  0  0  0  0
 11 15  1  0  0  0  0
 11 16  1  0  0  0  0
 17 18  1  0  0  0  0
 17 26  1  0  0  0  0
 18 19  1  0  0  0  0
 18 21  1  0  0  0  0
 18 27  1  0  0  0  0
 19 20  2  0  0  0  0
 19 32  1  0  0  0  0
 21 22  1  0  0  0  0
 21 28  1  0  0  0  0
 21 29  1  0  0  0  0
 22 23  1  0  0  0  0
 22 30  1  0  0  0  0
 22 31  1  0  0  0  0
 23 24  1  0  0  0  0
 23 25  2  0  0  0  0
 32 33  1  0  0  0  0
 32 37  1  0  0  0  0
 33 34  1  0  0  0  0
 33 36  1  0  0  0  0
 33 38  1  0  0  0  0
 34 35  2  0  0  0  0
 34 42  1  0  0  0  0
 36 39  1  0  0  0  0
 36 40  1  0  0  0  0
 36 41  1  0  0  0  0
 42 43  1  0  0  0  0
 42 44  1  0  0  0  0
 43 45  1  0  0  0  0
 43 46  1  0  0  0  0
 43 47  1  0  0  0  0
M  CHG  1  24  -1
M  END
$$$$

  -OEChem-05262216243D

 47 46  0     1  0  0  0  0  0999 V2000
    0.1549   -5.6875    1.6630 C   0  0  0  0  0  0  0  0  0  0  0  0
    1.2222   -5.7304    2.2566 O   0  0  0  0  0  0  0  0  0  0  0  0
   -0.9633   -6.6419    2.0397 C   0  0  0  0  0  0  0  0  0  0  0  0
   -1.2197   -7.2730    1.1853 H   0  0  0  0  0  0  0  0  0  0  0  0
   -0.6514   -7.2802    2.8708 H   0  0  0  0  0  0  0  0  0  0  0  0
   -1.8478   -6.0762    2.3438 H   0  0  0  0  0  0  0  0  0  0  0  0
   -0.0405   -4.7797    0.6453 N   0  0  0  0  0  0  0  0  0  0  0  0
    0.8565   -3.6562    0.3514 C   0  0  2  0  0  0  0  0  0  0  0  0
    0.0756   -2.4975   -0.3011 C   0  0  0  0  0  0  0  0  0  0  0  0
   -0.9911   -2.7260   -0.8638 O   0  0  0  0  0  0  0  0  0  0  0  0
    1.9776   -4.1357   -0.5757 C   0  0  0  0  0  0  0  0  0  0  0  0
   -0.9824   -4.7080    0.2588 H   0  0  0  0  0  0  0  0  0  0  0  0
    1.2908   -3.2796    1.2838 H   0  0  0  0  0  0  0  0  0  0  0  0
    1.5611   -4.5108   -1.5158 H   0  0  0  0  0  0  0  0  0  0  0  0
    2.6652   -3.3148   -0.8013 H   0  0  0  0  0  0  0  0  0  0  0  0
    2.5462   -4.9405   -0.0997 H   0  0  0  0  0  0  0  0  0  0  0  0
    0.5925   -1.2176   -0.2931 N   0  0  0  0  0  0  0  0  0  0  0  0
   -0.1265   -0.0052   -0.7154 C   0  0  2  0  0  0  0  0  0  0  0  0
    0.8666    1.0342   -1.2856 C   0  0  0  0  0  0  0  0  0  0  0  0
    2.0760    0.8129   -1.2837 O   0  0  0  0  0  0  0  0  0  0  0  0
   -0.8349    0.6301    0.5038 C   0  0  0  0  0  0  0  0  0  0  0  0
   -1.9844   -0.2184    1.0843 C   0  0  0  0  0  0  0  0  0  0  0  0
   -2.6505    0.4285    2.3052 C   0  0  0  0  0  0  0  0  0  0  0  0
   -2.0719    1.3928    2.8698 O   0  5  0  0  0  0  0  0  0  0  0  0
   -3.7435   -0.0623    2.6794 O   0  0  0  0  0  0  0  0  0  0  0  0
    1.5178   -1.0851    0.1075 H   0  0  0  0  0  0  0  0  0  0  0  0
   -0.8607   -0.2416   -1.4921 H   0  0  0  0  0  0  0  0  0  0  0  0
   -1.2529    1.6027    0.2237 H   0  0  0  0  0  0  0  0  0  0  0  0
   -0.0917    0.8095    1.2890 H   0  0  0  0  0  0  0  0  0  0  0  0
   -2.7393   -0.3823    0.3099 H   0  0  0  0  0  0  0  0  0  0  0  0
   -1.6025   -1.1913    1.4001 H   0  0  0  0  0  0  0  0  0  0  0  0
    0.4256    2.2592   -1.7517 N   0  0  0  0  0  0  0  0  0  0  0  0
    1.3053    3.3581   -2.1682 C   0  0  2  0  0  0  0  0  0  0  0  0
    0.6049    4.7276   -2.0578 C   0  0  0  0  0  0  0  0  0  0  0  0
   -0.6079    4.8174   -2.2099 O   0  0  0  0  0  0  0  0  0  0  0  0
    1.7566    3.1174   -3.6125 C   0  0  0  0  0  0  0  0  0  0  0  0
   -0.5698    2.4656   -1.6618 H   0  0  0  0  0  0  0  0  0  0  0  0
    2.1836    3.3832   -1.5149 H   0  0  0  0  0  0  0  0  0  0  0  0
    0.8907    3.0765   -4.2810 H   0  0  0  0  0  0  0  0  0  0  0  0
    2.4176    3.9230   -3.9453 H   0  0  0  0  0  0  0  0  0  0  0  0
    2.3009    2.1712   -3.6894 H   0  0  0  0  0  0  0  0  0  0  0  0
    1.3448    5.8693   -1.8068 N   0  0  0  0  0  0  0  0  0  0  0  0
    0.7372    7.1765   -1.5947 C   0  0  0  0  0  0  0  0  0  0  0  0
    2.3318    5.7474   -1.6007 H   0  0  0  0  0  0  0  0  0  0  0  0
    0.1248    7.4598   -2.4571 H   0  0  0  0  0  0  0  0  0  0  0  0
    0.1038    7.1618   -0.7016 H   0  0  0  0  0  0  0  0  0  0  0  0
    1.5129    7.9359   -1.4593 H   0  0  0  0  0  0  0  0  0  0  0  0
  1  2  2  0  0  0  0
  1  3  1  0  0  0  0
  1  7  1  0  0  0  0
  3  4  1  0  0  0  0
  3  5  1  0  0  0  0
  3  6  1  0  0  0  0
  7  8  1  0  0  0  0
  7 12  1  0  0  0  0
  8  9  1  0  0  0  0
  8 11  1  0  0  0  0
  8 13  1  0  0  0  0
  9 10  2  0  0  0  0
  9 17  1  0  0  0  0
 11 14  1  0  0  0  0
 11 15  1  0  0  0  0
 11 16  1  0  0  0  0
 17 18  1  0  0  0  0
 17 26  1  0  0  0  0
 18 19  1  0  0  0  0
 18 21  1  0  0  0  0
 18 27  1  0  0  0  0
 19 20  2  0  0  0  0
 19 32  1  0  0  0  0
 21 22  1  0  0  0  0
 21 28  1  0  0  0  0
 21 29  1  0  0  0  0
 22 23  1  0  0  0  0
 22 30  1  0  0  0  0
 22 31  1  0  0  0  0
 23 24  1  0  0  0  0
 23 25  2  0  0  0  0
 32 33  1  0  0  0  0
 32 37  1  0  0  0  0
 33 34  1  0  0  0  0
 33 36  1  0  0  0  0
 33 38  1  0  0  0  0
 34 35  2  0  0  0  0
 34 42  1  0  0  0  0
 36 39  1  0  0  0  0
 36 40  1  0  0  0  0
 36 41  1  0  0  0  0
 42 43  1  0  0  0  0
 42 44  1  0  0  0  0
 43 45  1  0  0  0  0
 43 46  1  0  0  0  0
 43 47  1  0  0  0  0
M  CHG  1  24  -1
M  END
$$$$

  -OEChem-05262216243D

 47 46  0     1  0  0  0  0  0999 V2000
    0.3020   -5.7384    1.6094 C   0  0  0  0  0  0  0  0  0  0  0  0
    1.3841   -5.7598    2.1769 O   0  0  0  0  0  0  0  0  0  0  0  0
   -0.7468   -6.7858    1.9363 C   0  0  0  0  0  0  0  0  0  0  0  0
   -0.9568   -7.3921    1.0519 H   0  0  0  0  0  0  0  0  0  0  0  0
   -0.3913   -7.4392    2.7378 H   0  0  0  0  0  0  0  0  0  0  0  0
   -1.6695   -6.2994    2.2630 H   0  0  0  0  0  0  0  0  0  0  0  0
    0.0290   -4.7742    0.6638 N   0  0  0  0  0  0  0  0  0  0  0  0
    0.8637   -3.5942    0.4091 C   0  0  2  0  0  0  0  0  0  0  0  0
    0.0185   -2.4426   -0.1736 C   0  0  0  0  0  0  0  0  0  0  0  0
   -1.0700   -2.6876   -0.6849 O   0  0  0  0  0  0  0  0  0  0  0  0
    1.9872   -3.9720   -0.5623 C   0  0  0  0  0  0  0  0  0  0  0  0
   -0.9249   -4.7294    0.3036 H   0  0  0  0  0  0  0  0  0  0  0  0
    1.2980   -3.2427    1.3511 H   0  0  0  0  0  0  0  0  0  0  0  0
    1.5688   -4.3232   -1.5107 H   0  0  0  0  0  0  0  0  0  0  0  0
    2.6275   -3.1076   -0.7629 H   0  0  0  0  0  0  0  0  0  0  0  0
    2.6071   -4.7677   -0.1381 H   0  0  0  0  0  0  0  0  0  0  0  0
    0.5191   -1.1559   -0.1929 N   0  0  0  0  0  0  0  0  0  0  0  0
   -0.2119    0.0419   -0.6389 C   0  0  2  0  0  0  0  0  0  0  0  0
    0.7859    1.0712   -1.2289 C   0  0  0  0  0  0  0  0  0  0  0  0
    1.9540    0.7497   -1.4389 O   0  0  0  0  0  0  0  0  0  0  0  0
   -0.9340    0.6887    0.5685 C   0  0  0  0  0  0  0  0  0  0  0  0
   -2.0765   -0.1594    1.1614 C   0  0  0  0  0  0  0  0  0  0  0  0
   -2.7536    0.5020    2.3692 C   0  0  0  0  0  0  0  0  0  0  0  0
   -3.7270   -0.1073    2.8760 O   0  5  0  0  0  0  0  0  0  0  0  0
   -2.3048    1.6009    2.7876 O   0  0  0  0  0  0  0  0  0  0  0  0
    1.4830   -1.0233    0.1020 H   0  0  0  0  0  0  0  0  0  0  0  0
   -0.9413   -0.2139   -1.4139 H   0  0  0  0  0  0  0  0  0  0  0  0
   -1.3700    1.6466    0.2673 H   0  0  0  0  0  0  0  0  0  0  0  0
   -0.1987    0.8962    1.3542 H   0  0  0  0  0  0  0  0  0  0  0  0
   -2.8283   -0.3472    0.3895 H   0  0  0  0  0  0  0  0  0  0  0  0
   -1.6883   -1.1238    1.4951 H   0  0  0  0  0  0  0  0  0  0  0  0
    0.4332    2.3917   -1.4462 N   0  0  0  0  0  0  0  0  0  0  0  0
    1.3604    3.4436   -1.8815 C   0  0  2  0  0  0  0  0  0  0  0  0
    0.8808    4.8432   -1.4483 C   0  0  0  0  0  0  0  0  0  0  0  0
   -0.3019    5.1475   -1.5457 O   0  0  0  0  0  0  0  0  0  0  0  0
    1.4983    3.3855   -3.4065 C   0  0  0  0  0  0  0  0  0  0  0  0
   -0.5160    2.6731   -1.1987 H   0  0  0  0  0  0  0  0  0  0  0  0
    2.3412    3.2734   -1.4256 H   0  0  0  0  0  0  0  0  0  0  0  0
    0.5256    3.5410   -3.8842 H   0  0  0  0  0  0  0  0  0  0  0  0
    2.1867    4.1605   -3.7563 H   0  0  0  0  0  0  0  0  0  0  0  0
    1.8875    2.4114   -3.7186 H   0  0  0  0  0  0  0  0  0  0  0  0
    1.7863    5.7776   -0.9783 N   0  0  0  0  0  0  0  0  0  0  0  0
    1.3868    7.0867   -0.4775 C   0  0  0  0  0  0  0  0  0  0  0  0
    2.7399    5.4641   -0.8243 H   0  0  0  0  0  0  0  0  0  0  0  0
    0.9015    7.6678   -1.2687 H   0  0  0  0  0  0  0  0  0  0  0  0
    0.6894    6.9798    0.3602 H   0  0  0  0  0  0  0  0  0  0  0  0
    2.2635    7.6411   -0.1297 H   0  0  0  0  0  0  0  0  0  0  0  0
  1  2  2  0  0  0  0
  1  3  1  0  0  0  0
  1  7  1  0  0  0  0
  3  4  1  0  0  0  0
  3  5  1  0  0  0  0
  3  6  1  0  0  0  0
  7  8  1  0  0  0  0
  7 12  1  0  0  0  0
  8  9  1  0  0  0  0
  8 11  1  0  0  0  0
  8 13  1  0  0  0  0
  9 10  2  0  0  0  0
  9 17  1  0  0  0  0
 11 14  1  0  0  0  0
 11 15  1  0  0  0  0
 11 16  1  0  0  0  0
 17 18  1  0  0  0  0
 17 26  1  0  0  0  0
 18 19  1  0  0  0  0
 18 21  1  0  0  0  0
 18 27  1  0  0  0  0
 19 20  2  0  0  0  0
 19 32  1  0  0  0  0
 21 22  1  0  0  0  0
 21 28  1  0  0  0  0
 21 29  1  0  0  0  0
 22 23  1  0  0  0  0
 22 30  1  0  0  0  0
 22 31  1  0  0  0  0
 23 24  1  0  0  0  0
 23 25  2  0  0  0  0
 32 33  1  0  0  0  0
 32 37  1  0  0  0  0
 33 34  1  0  0  0  0
 33 36  1  0  0  0  0
 33 38  1  0  0  0  0
 34 35  2  0  0  0  0
 34 42  1  0  0  0  0
 36 39  1  0  0  0  0
 36 40  1  0  0  0  0
 36 41  1  0  0  0  0
 42 43  1  0  0  0  0
 42 44  1  0  0  0  0
 43 45  1  0  0  0  0
 43 46  1  0  0  0  0
 43 47  1  0  0  0  0
M  CHG  1  24  -1
M  END
$$$$

  -OEChem-05262216243D

 47 46  0     1  0  0  0  0  0999 V2000
    0.2880   -5.7282    1.5937 C   0  0  0  0  0  0  0  0  0  0  0  0
    1.3689   -5.7571    2.1633 O   0  0  0  0  0  0  0  0  0  0  0  0
   -0.7772   -6.7548    1.9324 C   0  0  0  0  0  0  0  0  0  0  0  0
   -0.9684   -7.3928    1.0666 H   0  0  0  0  0  0  0  0  0  0  0  0
   -0.4481   -7.3797    2.7669 H   0  0  0  0  0  0  0  0  0  0  0  0
   -1.7043   -6.2497    2.2155 H   0  0  0  0  0  0  0  0  0  0  0  0
    0.0319   -4.7759    0.6316 N   0  0  0  0  0  0  0  0  0  0  0  0
    0.8759   -3.6025    0.3761 C   0  0  2  0  0  0  0  0  0  0  0  0
    0.0395   -2.4474   -0.2124 C   0  0  0  0  0  0  0  0  0  0  0  0
   -1.0271   -2.6952   -0.7672 O   0  0  0  0  0  0  0  0  0  0  0  0
    2.0016   -3.9902   -0.5889 C   0  0  0  0  0  0  0  0  0  0  0  0
   -0.9196   -4.7255    0.2664 H   0  0  0  0  0  0  0  0  0  0  0  0
    1.3074   -3.2509    1.3194 H   0  0  0  0  0  0  0  0  0  0  0  0
    1.5851   -4.3470   -1.5362 H   0  0  0  0  0  0  0  0  0  0  0  0
    2.6446   -3.1287   -0.7935 H   0  0  0  0  0  0  0  0  0  0  0  0
    2.6177   -4.7847   -0.1568 H   0  0  0  0  0  0  0  0  0  0  0  0
    0.5192   -1.1528   -0.1688 N   0  0  0  0  0  0  0  0  0  0  0  0
   -0.2190    0.0492   -0.5939 C   0  0  2  0  0  0  0  0  0  0  0  0
    0.7848    1.1123   -1.1138 C   0  0  0  0  0  0  0  0  0  0  0  0
    1.8804    0.7570   -1.5427 O   0  0  0  0  0  0  0  0  0  0  0  0
   -1.0144    0.6215    0.6058 C   0  0  0  0  0  0  0  0  0  0  0  0
   -2.1580   -0.2810    1.0958 C   0  0  0  0  0  0  0  0  0  0  0  0
   -2.8641    0.3572    2.2907 C   0  0  0  0  0  0  0  0  0  0  0  0
   -2.6722   -0.1496    3.4238 O   0  5  0  0  0  0  0  0  0  0  0  0
   -3.5342    1.3976    2.0744 O   0  0  0  0  0  0  0  0  0  0  0  0
    1.4638   -1.0190    0.1803 H   0  0  0  0  0  0  0  0  0  0  0  0
   -0.9099   -0.1887   -1.4092 H   0  0  0  0  0  0  0  0  0  0  0  0
   -1.4643    1.5792    0.3253 H   0  0  0  0  0  0  0  0  0  0  0  0
   -0.3283    0.8092    1.4391 H   0  0  0  0  0  0  0  0  0  0  0  0
   -2.8794   -0.4486    0.2910 H   0  0  0  0  0  0  0  0  0  0  0  0
   -1.7696   -1.2532    1.4069 H   0  0  0  0  0  0  0  0  0  0  0  0
    0.5527    2.4747   -1.0207 N   0  0  0  0  0  0  0  0  0  0  0  0
    1.5163    3.5137   -1.4094 C   0  0  2  0  0  0  0  0  0  0  0  0
    1.2906    4.8372   -0.6518 C   0  0  0  0  0  0  0  0  0  0  0  0
    0.1611    5.1882   -0.3354 O   0  0  0  0  0  0  0  0  0  0  0  0
    1.4023    3.7497   -2.9186 C   0  0  0  0  0  0  0  0  0  0  0  0
   -0.3221    2.7796   -0.5912 H   0  0  0  0  0  0  0  0  0  0  0  0
    2.5301    3.1736   -1.1748 H   0  0  0  0  0  0  0  0  0  0  0  0
    0.3919    4.0830   -3.1767 H   0  0  0  0  0  0  0  0  0  0  0  0
    2.1155    4.5142   -3.2405 H   0  0  0  0  0  0  0  0  0  0  0  0
    1.6154    2.8266   -3.4664 H   0  0  0  0  0  0  0  0  0  0  0  0
    2.3644    5.6563   -0.3519 N   0  0  0  0  0  0  0  0  0  0  0  0
    2.2347    6.9012    0.3940 C   0  0  0  0  0  0  0  0  0  0  0  0
    3.2920    5.3155   -0.5847 H   0  0  0  0  0  0  0  0  0  0  0  0
    1.6001    7.6087   -0.1498 H   0  0  0  0  0  0  0  0  0  0  0  0
    1.7927    6.7146    1.3786 H   0  0  0  0  0  0  0  0  0  0  0  0
    3.2181    7.3585    0.5376 H   0  0  0  0  0  0  0  0  0  0  0  0
  1  2  2  0  0  0  0
  1  3  1  0  0  0  0
  1  7  1  0  0  0  0
  3  4  1  0  0  0  0
  3  5  1  0  0  0  0
  3  6  1  0  0  0  0
  7  8  1  0  0  0  0
  7 12  1  0  0  0  0
  8  9  1  0  0  0  0
  8 11  1  0  0  0  0
  8 13  1  0  0  0  0
  9 10  2  0  0  0  0
  9 17  1  0  0  0  0
 11 14  1  0  0  0  0
 11 15  1  0  0  0  0
 11 16  1  0  0  0  0
 17 18  1  0  0  0  0
 17 26  1  0  0  0  0
 18 19  1  0  0  0  0
 18 21  1  0  0  0  0
 18 27  1  0  0  0  0
 19 20  2  0  0  0  0
 19 32  1  0  0  0  0
 21 22  1  0  0  0  0
 21 28  1  0  0  0  0
 21 29  1  0  0  0  0
 22 23  1  0  0  0  0
 22 30  1  0  0  0  0
 22 31  1  0  0  0  0
 23 24  1  0  0  0  0
 23 25  2  0  0  0  0
 32 33  1  0  0  0  0
 32 37  1  0  0  0  0
 33 34  1  0  0  0  0
 33 36  1  0  0  0  0
 33 38  1  0  0  0  0
 34 35  2  0  0  0  0
 34 42  1  0  0  0  0
 36 39  1  0  0  0  0
 36 40  1  0  0  0  0
 36 41  1  0  0  0  0
 42 43  1  0  0  0  0
 42 44  1  0  0  0  0
 43 45  1  0  0  0  0
 43 46  1  0  0  0  0
 43 47  1  0  0  0  0
M  CHG  1  24  -1
M  END
$$$$

  -OEChem-05262216243D

 47 46  0     1  0  0  0  0  0999 V2000
    0.2345   -5.7072    1.6253 C   0  0  0  0  0  0  0  0  0  0  0  0
    1.2764   -5.7242    2.2644 O   0  0  0  0  0  0  0  0  0  0  0  0
   -0.8463   -6.7352    1.9067 C   0  0  0  0  0  0  0  0  0  0  0  0
   -1.0029   -7.3631    1.0262 H   0  0  0  0  0  0  0  0  0  0  0  0
   -0.5545   -7.3708    2.7473 H   0  0  0  0  0  0  0  0  0  0  0  0
   -1.7836   -6.2313    2.1568 H   0  0  0  0  0  0  0  0  0  0  0  0
    0.0384   -4.7674    0.6367 N   0  0  0  0  0  0  0  0  0  0  0  0
    0.9020   -3.6024    0.4110 C   0  0  2  0  0  0  0  0  0  0  0  0
    0.1071   -2.4483   -0.2329 C   0  0  0  0  0  0  0  0  0  0  0  0
   -0.9126   -2.6976   -0.8684 O   0  0  0  0  0  0  0  0  0  0  0  0
    2.0721   -4.0088   -0.4907 C   0  0  0  0  0  0  0  0  0  0  0  0
   -0.8873   -4.7252    0.2091 H   0  0  0  0  0  0  0  0  0  0  0  0
    1.2885   -3.2434    1.3706 H   0  0  0  0  0  0  0  0  0  0  0  0
    1.7028   -4.3764   -1.4535 H   0  0  0  0  0  0  0  0  0  0  0  0
    2.7294   -3.1533   -0.6738 H   0  0  0  0  0  0  0  0  0  0  0  0
    2.6605   -4.7999   -0.0161 H   0  0  0  0  0  0  0  0  0  0  0  0
    0.5732   -1.1507   -0.1420 N   0  0  0  0  0  0  0  0  0  0  0  0
   -0.1715    0.0505   -0.5590 C   0  0  2  0  0  0  0  0  0  0  0  0
    0.8318    1.1379   -1.0250 C   0  0  0  0  0  0  0  0  0  0  0  0
    1.7955    0.8115   -1.7122 O   0  0  0  0  0  0  0  0  0  0  0  0
   -1.0408    0.5804    0.6079 C   0  0  0  0  0  0  0  0  0  0  0  0
   -2.1971   -0.3543    1.0163 C   0  0  0  0  0  0  0  0  0  0  0  0
   -3.0243    0.1880    2.1882 C   0  0  0  0  0  0  0  0  0  0  0  0
   -3.8253   -0.6091    2.7350 O   0  5  0  0  0  0  0  0  0  0  0  0
   -2.8530    1.3825    2.5432 O   0  0  0  0  0  0  0  0  0  0  0  0
    1.4615   -1.0125    0.3290 H   0  0  0  0  0  0  0  0  0  0  0  0
   -0.8215   -0.1807   -1.4092 H   0  0  0  0  0  0  0  0  0  0  0  0
   -1.4906    1.5354    0.3158 H   0  0  0  0  0  0  0  0  0  0  0  0
   -0.4053    0.7642    1.4813 H   0  0  0  0  0  0  0  0  0  0  0  0
   -2.8576   -0.5190    0.1604 H   0  0  0  0  0  0  0  0  0  0  0  0
   -1.7962   -1.3221    1.3240 H   0  0  0  0  0  0  0  0  0  0  0  0
    0.7425    2.4689   -0.6509 N   0  0  0  0  0  0  0  0  0  0  0  0
    1.7110    3.5074   -1.0329 C   0  0  2  0  0  0  0  0  0  0  0  0
    1.8582    4.6152    0.0297 C   0  0  0  0  0  0  0  0  0  0  0  0
    0.9708    4.8229    0.8466 O   0  0  0  0  0  0  0  0  0  0  0  0
    1.2620    4.1108   -2.3668 C   0  0  0  0  0  0  0  0  0  0  0  0
    0.0173    2.7240    0.0223 H   0  0  0  0  0  0  0  0  0  0  0  0
    2.7007    3.0564   -1.1581 H   0  0  0  0  0  0  0  0  0  0  0  0
    0.2770    4.5769   -2.2615 H   0  0  0  0  0  0  0  0  0  0  0  0
    1.9737    4.8701   -2.7041 H   0  0  0  0  0  0  0  0  0  0  0  0
    1.1991    3.3320   -3.1334 H   0  0  0  0  0  0  0  0  0  0  0  0
    2.9979    5.3994    0.0568 N   0  0  0  0  0  0  0  0  0  0  0  0
    3.2213    6.4512    1.0401 C   0  0  0  0  0  0  0  0  0  0  0  0
    3.7294    5.1867   -0.6143 H   0  0  0  0  0  0  0  0  0  0  0  0
    2.4234    7.1995    0.9882 H   0  0  0  0  0  0  0  0  0  0  0  0
    3.2459    6.0305    2.0510 H   0  0  0  0  0  0  0  0  0  0  0  0
    4.1757    6.9508    0.8489 H   0  0  0  0  0  0  0  0  0  0  0  0
  1  2  2  0  0  0  0
  1  3  1  0  0  0  0
  1  7  1  0  0  0  0
  3  4  1  0  0  0  0
  3  5  1  0  0  0  0
  3  6  1  0  0  0  0
  7  8  1  0  0  0  0
  7 12  1  0  0  0  0
  8  9  1  0  0  0  0
  8 11  1  0  0  0  0
  8 13  1  0  0  0  0
  9 10  2  0  0  0  0
  9 17  1  0  0  0  0
 11 14  1  0  0  0  0
 11 15  1  0  0  0  0
 11 16  1  0  0  0  0
 17 18  1  0  0  0  0
 17 26  1  0  0  0  0
 18 19  1  0  0  0  0
 18 21  1  0  0  0  0
 18 27  1  0  0  0  0
 19 20  2  0  0  0  0
 19 32  1  0  0  0  0
 21 22  1  0  0  0  0
 21 28  1  0  0  0  0
 21 29  1  0  0  0  0
 22 23  1  0  0  0  0
 22 30  1  0  0  0  0
 22 31  1  0  0  0  0
 23 24  1  0  0  0  0
 23 25  2  0  0  0  0
 32 33  1  0  0  0  0
 32 37  1  0  0  0  0
 33 34  1  0  0  0  0
 33 36  1  0  0  0  0
 33 38  1  0  0  0  0
 34 35  2  0  0  0  0
 34 42  1  0  0  0  0
 36 39  1  0  0  0  0
 36 40  1  0  0  0  0
 36 41  1  0  0  0  0
 42 43  1  0  0  0  0
 42 44  1  0  0  0  0
 43 45  1  0  0  0  0
 43 46  1  0  0  0  0
 43 47  1  0  0  0  0
M  CHG  1  24  -1
M  END
$$$$

  -OEChem-05262216243D

 47 46  0     1  0  0  0  0  0999 V2000
    0.0712   -5.5986    1.6926 C   0  0  0  0  0  0  0  0  0  0  0  0
    1.0895   -5.6503    2.3668 O   0  0  0  0  0  0  0  0  0  0  0  0
   -1.0927   -6.5227    2.0001 C   0  0  0  0  0  0  0  0  0  0  0  0
   -1.2551   -7.2084    1.1652 H   0  0  0  0  0  0  0  0  0  0  0  0
   -0.8845   -7.1049    2.9019 H   0  0  0  0  0  0  0  0  0  0  0  0
   -2.0008   -5.9360    2.1622 H   0  0  0  0  0  0  0  0  0  0  0  0
   -0.0218   -4.7167    0.6381 N   0  0  0  0  0  0  0  0  0  0  0  0
    0.9242   -3.6245    0.3831 C   0  0  2  0  0  0  0  0  0  0  0  0
    0.2265   -2.4668   -0.3587 C   0  0  0  0  0  0  0  0  0  0  0  0
   -0.7352   -2.7084   -1.0818 O   0  0  0  0  0  0  0  0  0  0  0  0
    2.0978   -4.1568   -0.4444 C   0  0  0  0  0  0  0  0  0  0  0  0
   -0.9259   -4.6423    0.1709 H   0  0  0  0  0  0  0  0  0  0  0  0
    1.2963   -3.2343    1.3363 H   0  0  0  0  0  0  0  0  0  0  0  0
    1.7407   -4.5608   -1.3970 H   0  0  0  0  0  0  0  0  0  0  0  0
    2.8134   -3.3556   -0.6520 H   0  0  0  0  0  0  0  0  0  0  0  0
    2.6170   -4.9517    0.0995 H   0  0  0  0  0  0  0  0  0  0  0  0
    0.6908   -1.1718   -0.2209 N   0  0  0  0  0  0  0  0  0  0  0  0
   -0.0549    0.0291   -0.6396 C   0  0  2  0  0  0  0  0  0  0  0  0
    0.9300    1.1497   -1.0572 C   0  0  0  0  0  0  0  0  0  0  0  0
    1.7511    0.9350   -1.9423 O   0  0  0  0  0  0  0  0  0  0  0  0
   -0.9784    0.5146    0.5048 C   0  0  0  0  0  0  0  0  0  0  0  0
   -2.1319   -0.4457    0.8394 C   0  0  0  0  0  0  0  0  0  0  0  0
   -2.9735    0.1024    1.9916 C   0  0  0  0  0  0  0  0  0  0  0  0
   -3.5409    1.2102    1.8182 O   0  5  0  0  0  0  0  0  0  0  0  0
   -3.0172   -0.5670    3.0530 O   0  0  0  0  0  0  0  0  0  0  0  0
    1.4740   -1.0390    0.4104 H   0  0  0  0  0  0  0  0  0  0  0  0
   -0.6718   -0.1950   -1.5166 H   0  0  0  0  0  0  0  0  0  0  0  0
   -1.4265    1.4732    0.2198 H   0  0  0  0  0  0  0  0  0  0  0  0
   -0.3837    0.6786    1.4103 H   0  0  0  0  0  0  0  0  0  0  0  0
   -2.7680   -0.5837   -0.0394 H   0  0  0  0  0  0  0  0  0  0  0  0
   -1.7420   -1.4230    1.1321 H   0  0  0  0  0  0  0  0  0  0  0  0
    0.9686    2.3820   -0.4260 N   0  0  0  0  0  0  0  0  0  0  0  0
    1.9300    3.4532   -0.7241 C   0  0  2  0  0  0  0  0  0  0  0  0
    2.4955    4.1246    0.5453 C   0  0  0  0  0  0  0  0  0  0  0  0
    1.9689    3.9510    1.6374 O   0  0  0  0  0  0  0  0  0  0  0  0
    1.2159    4.4824   -1.6044 C   0  0  0  0  0  0  0  0  0  0  0  0
    0.3777    2.4986    0.3979 H   0  0  0  0  0  0  0  0  0  0  0  0
    2.7859    3.0484   -1.2732 H   0  0  0  0  0  0  0  0  0  0  0  0
    0.3660    4.9187   -1.0694 H   0  0  0  0  0  0  0  0  0  0  0  0
    1.9000    5.2873   -1.8889 H   0  0  0  0  0  0  0  0  0  0  0  0
    0.8451    4.0058   -2.5175 H   0  0  0  0  0  0  0  0  0  0  0  0
    3.6102    4.9405    0.4587 N   0  0  0  0  0  0  0  0  0  0  0  0
    4.1994    5.6163    1.6076 C   0  0  0  0  0  0  0  0  0  0  0  0
    4.0381    5.0545   -0.4551 H   0  0  0  0  0  0  0  0  0  0  0  0
    3.4619    6.2675    2.0886 H   0  0  0  0  0  0  0  0  0  0  0  0
    4.5556    4.8850    2.3406 H   0  0  0  0  0  0  0  0  0  0  0  0
    5.0473    6.2308    1.2907 H   0  0  0  0  0  0  0  0  0  0  0  0
  1  2  2  0  0  0  0
  1  3  1  0  0  0  0
  1  7  1  0  0  0  0
  3  4  1  0  0  0  0
  3  5  1  0  0  0  0
  3  6  1  0  0  0  0
  7  8  1  0  0  0  0
  7 12  1  0  0  0  0
  8  9  1  0  0  0  0
  8 11  1  0  0  0  0
  8 13  1  0  0  0  0
  9 10  2  0  0  0  0
  9 17  1  0  0  0  0
 11 14  1  0  0  0  0
 11 15  1  0  0  0  0
 11 16  1  0  0  0  0
 17 18  1  0  0  0  0
 17 26  1  0  0  0  0
 18 19  1  0  0  0  0
 18 21  1  0  0  0  0
 18 27  1  0  0  0  0
 19 20  2  0  0  0  0
 19 32  1  0  0  0  0
 21 22  1  0  0  0  0
 21 28  1  0  0  0  0
 21 29  1  0  0  0  0
 22 23  1  0  0  0  0
 22 30  1  0  0  0  0
 22 31  1  0  0  0  0
 23 24  1  0  0  0  0
 23 25  2  0  0  0  0
 32 33  1  0  0  0  0
 32 37  1  0  0  0  0
 33 34  1  0  0  0  0
 33 36  1  0  0  0  0
 33 38  1  0  0  0  0
 34 35  2  0  0  0  0
 34 42  1  0  0  0  0
 36 39  1  0  0  0  0
 36 40  1  0  0  0  0
 36 41  1  0  0  0  0
 42 43  1  0  0  0  0
 42 44  1  0  0  0  0
 43 45  1  0  0  0  0
 43 46  1  0  0  0  0
 43 47  1  0  0  0  0
M  CHG  1  24  -1
M  END
$$$$

  -OEChem-05262216243D

 47 46  0     1  0  0  0  0  0999 V2000
   -0.0068   -5.6307    1.6643 C   0  0  0  0  0  0  0  0  0  0  0  0
    1.0204   -5.7235    2.3204 O   0  0  0  0  0  0  0  0  0  0  0  0
   -1.1970   -6.5163    1.9847 C   0  0  0  0  0  0  0  0  0  0  0  0
   -1.5049   -7.0668    1.0924 H   0  0  0  0  0  0  0  0  0  0  0  0
   -0.9367   -7.2317    2.7697 H   0  0  0  0  0  0  0  0  0  0  0  0
   -2.0323   -5.9017    2.3306 H   0  0  0  0  0  0  0  0  0  0  0  0
   -0.0900   -4.7280    0.6266 N   0  0  0  0  0  0  0  0  0  0  0  0
    0.8906   -3.6684    0.3658 C   0  0  2  0  0  0  0  0  0  0  0  0
    0.2285   -2.4875   -0.3723 C   0  0  0  0  0  0  0  0  0  0  0  0
   -0.7303   -2.7002   -1.1079 O   0  0  0  0  0  0  0  0  0  0  0  0
    2.0412   -4.2379   -0.4700 C   0  0  0  0  0  0  0  0  0  0  0  0
   -0.9967   -4.6206    0.1710 H   0  0  0  0  0  0  0  0  0  0  0  0
    1.2807   -3.2924    1.3175 H   0  0  0  0  0  0  0  0  0  0  0  0
    1.6633   -4.6308   -1.4192 H   0  0  0  0  0  0  0  0  0  0  0  0
    2.7799   -3.4595   -0.6845 H   0  0  0  0  0  0  0  0  0  0  0  0
    2.5398   -5.0490    0.0697 H   0  0  0  0  0  0  0  0  0  0  0  0
    0.7233   -1.2053   -0.2189 N   0  0  0  0  0  0  0  0  0  0  0  0
   -0.0014    0.0137   -0.6214 C   0  0  2  0  0  0  0  0  0  0  0  0
    0.9950    1.1248   -1.0313 C   0  0  0  0  0  0  0  0  0  0  0  0
    1.6255    1.0235   -2.0774 O   0  0  0  0  0  0  0  0  0  0  0  0
   -0.9095    0.5089    0.5303 C   0  0  0  0  0  0  0  0  0  0  0  0
   -2.0832   -0.4277    0.8652 C   0  0  0  0  0  0  0  0  0  0  0  0
   -2.9112    0.1258    2.0261 C   0  0  0  0  0  0  0  0  0  0  0  0
   -3.3399    1.3033    1.9272 O   0  5  0  0  0  0  0  0  0  0  0  0
   -3.0893   -0.6195    3.0206 O   0  0  0  0  0  0  0  0  0  0  0  0
    1.4820   -1.0983    0.4465 H   0  0  0  0  0  0  0  0  0  0  0  0
   -0.6277   -0.1915   -1.4961 H   0  0  0  0  0  0  0  0  0  0  0  0
   -1.3286    1.4835    0.2546 H   0  0  0  0  0  0  0  0  0  0  0  0
   -0.3100    0.6473    1.4364 H   0  0  0  0  0  0  0  0  0  0  0  0
   -2.7265   -0.5419   -0.0117 H   0  0  0  0  0  0  0  0  0  0  0  0
   -1.7124   -1.4162    1.1459 H   0  0  0  0  0  0  0  0  0  0  0  0
    1.2630    2.2094   -0.2130 N   0  0  0  0  0  0  0  0  0  0  0  0
    2.2705    3.2452   -0.4828 C   0  0  2  0  0  0  0  0  0  0  0  0
    3.0759    3.6392    0.7745 C   0  0  0  0  0  0  0  0  0  0  0  0
    2.7776    3.1989    1.8784 O   0  0  0  0  0  0  0  0  0  0  0  0
    1.5408    4.4602   -1.0635 C   0  0  0  0  0  0  0  0  0  0  0  0
    0.8239    2.2120    0.7075 H   0  0  0  0  0  0  0  0  0  0  0  0
    2.9957    2.8816   -1.2179 H   0  0  0  0  0  0  0  0  0  0  0  0
    0.8205    4.8557   -0.3399 H   0  0  0  0  0  0  0  0  0  0  0  0
    2.2512    5.2520   -1.3182 H   0  0  0  0  0  0  0  0  0  0  0  0
    1.0012    4.1770   -1.9729 H   0  0  0  0  0  0  0  0  0  0  0  0
    4.1582    4.4947    0.6633 N   0  0  0  0  0  0  0  0  0  0  0  0
    4.9537    4.9336    1.8028 C   0  0  0  0  0  0  0  0  0  0  0  0
    4.3841    4.8459   -0.2623 H   0  0  0  0  0  0  0  0  0  0  0  0
    4.3186    5.4299    2.5442 H   0  0  0  0  0  0  0  0  0  0  0  0
    5.4483    4.0794    2.2768 H   0  0  0  0  0  0  0  0  0  0  0  0
    5.7218    5.6416    1.4772 H   0  0  0  0  0  0  0  0  0  0  0  0
  1  2  2  0  0  0  0
  1  3  1  0  0  0  0
  1  7  1  0  0  0  0
  3  4  1  0  0  0  0
  3  5  1  0  0  0  0
  3  6  1  0  0  0  0
  7  8  1  0  0  0  0
  7 12  1  0  0  0  0
  8  9  1  0  0  0  0
  8 11  1  0  0  0  0
  8 13  1  0  0  0  0
  9 10  2  0  0  0  0
  9 17  1  0  0  0  0
 11 14  1  0  0  0  0
 11 15  1  0  0  0  0
 11 16  1  0  0  0  0
 17 18  1  0  0  0  0
 17 26  1  0  0  0  0
 18 19  1  0  0  0  0
 18 21  1  0  0  0  0
 18 27  1  0  0  0  0
 19 20  2  0  0  0  0
 19 32  1  0  0  0  0
 21 22  1  0  0  0  0
 21 28  1  0  0  0  0
 21 29  1  0  0  0  0
 22 23  1  0  0  0  0
 22 30  1  0  0  0  0
 22 31  1  0  0  0  0
 23 24  1  0  0  0  0
 23 25  2  0  0  0  0
 32 33  1  0  0  0  0
 32 37  1  0  0  0  0
 33 34  1  0  0  0  0
 33 36  1  0  0  0  0
 33 38  1  0  0  0  0
 34 35  2  0  0  0  0
 34 42  1  0  0  0  0
 36 39  1  0  0  0  0
 36 40  1  0  0  0  0
 36 41  1  0  0  0  0
 42 43  1  0  0  0  0
 42 44  1  0  0  0  0
 43 45  1  0  0  0  0
 43 46  1  0  0  0  0
 43 47  1  0  0  0  0
M  CHG  1  24  -1
M  END
$$$$

  -OEChem-05262216243D

 47 46  0     1  0  0  0  0  0999 V2000
   -0.0429   -5.5811    1.6965 C   0  0  0  0  0  0  0  0  0  0  0  0
    0.9612   -5.6807    2.3864 O   0  0  0  0  0  0  0  0  0  0  0  0
   -1.2570   -6.4434    1.9887 C   0  0  0  0  0  0  0  0  0  0  0  0
   -1.5074   -7.0459    1.1122 H   0  0  0  0  0  0  0  0  0  0  0  0
   -1.0536   -7.1107    2.8307 H   0  0  0  0  0  0  0  0  0  0  0  0
   -2.1103   -5.8081    2.2405 H   0  0  0  0  0  0  0  0  0  0  0  0
   -0.0778   -4.6965    0.6409 N   0  0  0  0  0  0  0  0  0  0  0  0
    0.9216   -3.6504    0.3982 C   0  0  2  0  0  0  0  0  0  0  0  0
    0.2919   -2.4792   -0.3826 C   0  0  0  0  0  0  0  0  0  0  0  0
   -0.6342   -2.7042   -1.1553 O   0  0  0  0  0  0  0  0  0  0  0  0
    2.0959   -4.2429   -0.3869 C   0  0  0  0  0  0  0  0  0  0  0  0
   -0.9675   -4.5864    0.1536 H   0  0  0  0  0  0  0  0  0  0  0  0
    1.2817   -3.2624    1.3569 H   0  0  0  0  0  0  0  0  0  0  0  0
    1.7517   -4.6337   -1.3498 H   0  0  0  0  0  0  0  0  0  0  0  0
    2.8563   -3.4782   -0.5722 H   0  0  0  0  0  0  0  0  0  0  0  0
    2.5573   -5.0601    0.1762 H   0  0  0  0  0  0  0  0  0  0  0  0
    0.7643   -1.1902   -0.2147 N   0  0  0  0  0  0  0  0  0  0  0  0
    0.0267    0.0134   -0.6408 C   0  0  2  0  0  0  0  0  0  0  0  0
    1.0063    1.1444   -1.0258 C   0  0  0  0  0  0  0  0  0  0  0  0
    1.4669    1.2028   -2.1597 O   0  0  0  0  0  0  0  0  0  0  0  0
   -0.9117    0.4977    0.4901 C   0  0  0  0  0  0  0  0  0  0  0  0
   -2.0728   -0.4591    0.8057 C   0  0  0  0  0  0  0  0  0  0  0  0
   -2.9240    0.0945    1.9478 C   0  0  0  0  0  0  0  0  0  0  0  0
   -3.4989    1.1967    1.7649 O   0  5  0  0  0  0  0  0  0  0  0  0
   -2.9522   -0.5588    3.0197 O   0  0  0  0  0  0  0  0  0  0  0  0
    1.4801   -1.0703    0.4953 H   0  0  0  0  0  0  0  0  0  0  0  0
   -0.5768   -0.2049   -1.5288 H   0  0  0  0  0  0  0  0  0  0  0  0
   -1.3386    1.4658    0.2036 H   0  0  0  0  0  0  0  0  0  0  0  0
   -0.3355    0.6482    1.4091 H   0  0  0  0  0  0  0  0  0  0  0  0
   -2.6985   -0.5897   -0.0818 H   0  0  0  0  0  0  0  0  0  0  0  0
   -1.6930   -1.4402    1.0994 H   0  0  0  0  0  0  0  0  0  0  0  0
    1.4502    2.0584   -0.0860 N   0  0  0  0  0  0  0  0  0  0  0  0
    2.4855    3.0747   -0.3157 C   0  0  2  0  0  0  0  0  0  0  0  0
    3.5684    3.0764    0.7850 C   0  0  0  0  0  0  0  0  0  0  0  0
    3.3984    2.4681    1.8358 O   0  0  0  0  0  0  0  0  0  0  0  0
    1.7838    4.4330   -0.3910 C   0  0  0  0  0  0  0  0  0  0  0  0
    1.1510    1.9074    0.8761 H   0  0  0  0  0  0  0  0  0  0  0  0
    2.9973    2.8883   -1.2650 H   0  0  0  0  0  0  0  0  0  0  0  0
    1.2798    4.6565    0.5550 H   0  0  0  0  0  0  0  0  0  0  0  0
    2.5044    5.2293   -0.5996 H   0  0  0  0  0  0  0  0  0  0  0  0
    1.0359    4.4259   -1.1905 H   0  0  0  0  0  0  0  0  0  0  0  0
    4.7488    3.7736    0.5951 N   0  0  0  0  0  0  0  0  0  0  0  0
    5.8102    3.8410    1.5918 C   0  0  0  0  0  0  0  0  0  0  0  0
    4.8682    4.2609   -0.2881 H   0  0  0  0  0  0  0  0  0  0  0  0
    5.4441    4.3148    2.5086 H   0  0  0  0  0  0  0  0  0  0  0  0
    6.1736    2.8368    1.8340 H   0  0  0  0  0  0  0  0  0  0  0  0
    6.6498    4.4292    1.2099 H   0  0  0  0  0  0  0  0  0  0  0  0
  1  2  2  0  0  0  0
  1  3  1  0  0  0  0
  1  7  1  0  0  0  0
  3  4  1  0  0  0  0
  3  5  1  0  0  0  0
  3  6  1  0  0  0  0
  7  8  1  0  0  0  0
  7 12  1  0  0  0  0
  8  9  1  0  0  0  0
  8 11  1  0  0  0  0
  8 13  1  0  0  0  0
  9 10  2  0  0  0  0
  9 17  1  0  0  0  0
 11 14  1  0  0  0  0
 11 15  1  0  0  0  0
 11 16  1  0  0  0  0
 17 18  1  0  0  0  0
 17 26  1  0  0  0  0
 18 19  1  0  0  0  0
 18 21  1  0  0  0  0
 18 27  1  0  0  0  0
 19 20  2  0  0  0  0
 19 32  1  0  0  0  0
 21 22  1  0  0  0  0
 21 28  1  0  0  0  0
 21 29  1  0  0  0  0
 22 23  1  0  0  0  0
 22 30  1  0  0  0  0
 22 31  1  0  0  0  0
 23 24  1  0  0  0  0
 23 25  2  0  0  0  0
 32 33  1  0  0  0  0
 32 37  1  0  0  0  0
 33 34  1  0  0  0  0
 33 36  1  0  0  0  0
 33 38  1  0  0  0  0
 34 35  2  0  0  0  0
 34 42  1  0  0  0  0
 36 39  1  0  0  0  0
 36 40  1  0  0  0  0
 36 41  1  0  0  0  0
 42 43  1  0  0  0  0
 42 44  1  0  0  0  0
 43 45  1  0  0  0  0
 43 46  1  0  0  0  0
 43 47  1  0  0  0  0
M  CHG  1  24  -1
M  END
$$$$

  -OEChem-05262216243D

 47 46  0     1  0  0  0  0  0999 V2000
    0.0667   -5.3740    1.7493 C   0  0  0  0  0  0  0  0  0  0  0  0
    0.7470   -5.3124    2.7629 O   0  0  0  0  0  0  0  0  0  0  0  0
   -1.0294   -6.4170    1.6301 C   0  0  0  0  0  0  0  0  0  0  0  0
   -0.9049   -6.9874    0.7064 H   0  0  0  0  0  0  0  0  0  0  0  0
   -0.9893   -7.1060    2.4782 H   0  0  0  0  0  0  0  0  0  0  0  0
   -2.0069   -5.9279    1.6185 H   0  0  0  0  0  0  0  0  0  0  0  0
    0.2942   -4.5006    0.7078 N   0  0  0  0  0  0  0  0  0  0  0  0
    1.1615   -3.3199    0.7904 C   0  0  2  0  0  0  0  0  0  0  0  0
    0.6944   -2.2294   -0.1941 C   0  0  0  0  0  0  0  0  0  0  0  0
    0.0875   -2.5501   -1.2099 O   0  0  0  0  0  0  0  0  0  0  0  0
    2.6061   -3.7286    0.4853 C   0  0  0  0  0  0  0  0  0  0  0  0
   -0.3641   -4.5213   -0.0719 H   0  0  0  0  0  0  0  0  0  0  0  0
    1.1084   -2.9008    1.8009 H   0  0  0  0  0  0  0  0  0  0  0  0
    2.6783   -4.1562   -0.5199 H   0  0  0  0  0  0  0  0  0  0  0  0
    3.2689   -2.8599    0.5433 H   0  0  0  0  0  0  0  0  0  0  0  0
    2.9516   -4.4749    1.2075 H   0  0  0  0  0  0  0  0  0  0  0  0
    0.9729   -0.8999    0.0633 N   0  0  0  0  0  0  0  0  0  0  0  0
    0.3176    0.2263   -0.6261 C   0  0  2  0  0  0  0  0  0  0  0  0
    1.2825    1.4258   -0.7068 C   0  0  0  0  0  0  0  0  0  0  0  0
    1.9800    1.5988   -1.6997 O   0  0  0  0  0  0  0  0  0  0  0  0
   -0.9470    0.6603    0.1450 C   0  0  0  0  0  0  0  0  0  0  0  0
   -2.0843   -0.3779    0.1516 C   0  0  0  0  0  0  0  0  0  0  0  0
   -3.3063    0.0927    0.9506 C   0  0  0  0  0  0  0  0  0  0  0  0
   -4.3198   -0.6458    0.9263 O   0  5  0  0  0  0  0  0  0  0  0  0
   -3.2204    1.1665    1.6023 O   0  0  0  0  0  0  0  0  0  0  0  0
    1.4245   -0.7076    0.9517 H   0  0  0  0  0  0  0  0  0  0  0  0
    0.0404   -0.0516   -1.6492 H   0  0  0  0  0  0  0  0  0  0  0  0
   -1.3343    1.5832   -0.3017 H   0  0  0  0  0  0  0  0  0  0  0  0
   -0.6811    0.8816    1.1837 H   0  0  0  0  0  0  0  0  0  0  0  0
   -2.3906   -0.5885   -0.8773 H   0  0  0  0  0  0  0  0  0  0  0  0
   -1.7383   -1.3125    0.5980 H   0  0  0  0  0  0  0  0  0  0  0  0
    1.5417    2.1969    0.4142 N   0  0  0  0  0  0  0  0  0  0  0  0
    2.5275    3.2874    0.4681 C   0  0  2  0  0  0  0  0  0  0  0  0
    3.9809    2.7712    0.6248 C   0  0  0  0  0  0  0  0  0  0  0  0
    4.7082    3.1436    1.5395 O   0  0  0  0  0  0  0  0  0  0  0  0
    2.1013    4.2236    1.6054 C   0  0  0  0  0  0  0  0  0  0  0  0
    0.9267    2.0608    1.2134 H   0  0  0  0  0  0  0  0  0  0  0  0
    2.4871    3.8568   -0.4664 H   0  0  0  0  0  0  0  0  0  0  0  0
    2.1362    3.7025    2.5677 H   0  0  0  0  0  0  0  0  0  0  0  0
    2.7699    5.0888    1.6551 H   0  0  0  0  0  0  0  0  0  0  0  0
    1.0817    4.5853    1.4398 H   0  0  0  0  0  0  0  0  0  0  0  0
    4.4758    1.8641   -0.2916 N   0  0  0  0  0  0  0  0  0  0  0  0
    5.8102    1.2860   -0.2415 C   0  0  0  0  0  0  0  0  0  0  0  0
    3.8313    1.5837   -1.0373 H   0  0  0  0  0  0  0  0  0  0  0  0
    6.5706    2.0719   -0.2964 H   0  0  0  0  0  0  0  0  0  0  0  0
    5.9482    0.7232    0.6874 H   0  0  0  0  0  0  0  0  0  0  0  0
    5.9551    0.6040   -1.0849 H   0  0  0  0  0  0  0  0  0  0  0  0
  1  2  2  0  0  0  0
  1  3  1  0  0  0  0
  1  7  1  0  0  0  0
  3  4  1  0  0  0  0
  3  5  1  0  0  0  0
  3  6  1  0  0  0  0
  7  8  1  0  0  0  0
  7 12  1  0  0  0  0
  8  9  1  0  0  0  0
  8 11  1  0  0  0  0
  8 13  1  0  0  0  0
  9 10  2  0  0  0  0
  9 17  1  0  0  0  0
 11 14  1  0  0  0  0
 11 15  1  0  0  0  0
 11 16  1  0  0  0  0
 17 18  1  0  0  0  0
 17 26  1  0  0  0  0
 18 19  1  0  0  0  0
 18 21  1  0  0  0  0
 18 27  1  0  0  0  0
 19 20  2  0  0  0  0
 19 32  1  0  0  0  0
 21 22  1  0  0  0  0
 21 28  1  0  0  0  0
 21 29  1  0  0  0  0
 22 23  1  0  0  0  0
 22 30  1  0  0  0  0
 22 31  1  0  0  0  0
 23 24  1  0  0  0  0
 23 25  2  0  0  0  0
 32 33  1  0  0  0  0
 32 37  1  0  0  0  0
 33 34  1  0  0  0  0
 33 36  1  0  0  0  0
 33 38  1  0  0  0  0
 34 35  2  0  0  0  0
 34 42  1  0  0  0  0
 36 39  1  0  0  0  0
 36 40  1  0  0  0  0
 36 41  1  0  0  0  0
 42 43  1  0  0  0  0
 42 44  1  0  0  0  0
 43 45  1  0  0  0  0
 43 46  1  0  0  0  0
 43 47  1  0  0  0  0
M  CHG  1  24  -1
M  END
$$$$

  -OEChem-05262216243D

 47 46  0     1  0  0  0  0  0999 V2000
    0.8152   -5.2415    1.7870 C   0  0  0  0  0  0  0  0  0  0  0  0
    1.7043   -5.0899    2.6114 O   0  0  0  0  0  0  0  0  0  0  0  0
   -0.1072   -6.4433    1.8793 C   0  0  0  0  0  0  0  0  0  0  0  0
   -0.0219   -7.0497    0.9744 H   0  0  0  0  0  0  0  0  0  0  0  0
    0.1581   -7.0584    2.7437 H   0  0  0  0  0  0  0  0  0  0  0  0
   -1.1422   -6.1090    1.9885 H   0  0  0  0  0  0  0  0  0  0  0  0
    0.6444   -4.3350    0.7640 N   0  0  0  0  0  0  0  0  0  0  0  0
    1.3188   -3.0345    0.6732 C   0  0  2  0  0  0  0  0  0  0  0  0
    0.4579   -2.0352   -0.1270 C   0  0  0  0  0  0  0  0  0  0  0  0
   -0.3831   -2.4600   -0.9134 O   0  0  0  0  0  0  0  0  0  0  0  0
    2.6817   -3.2240    0.0001 C   0  0  0  0  0  0  0  0  0  0  0  0
   -0.1757   -4.4508    0.1680 H   0  0  0  0  0  0  0  0  0  0  0  0
    1.4638   -2.6207    1.6771 H   0  0  0  0  0  0  0  0  0  0  0  0
    2.5572   -3.6397   -1.0048 H   0  0  0  0  0  0  0  0  0  0  0  0
    3.2044   -2.2666   -0.0812 H   0  0  0  0  0  0  0  0  0  0  0  0
    3.3035   -3.9067    0.5874 H   0  0  0  0  0  0  0  0  0  0  0  0
    0.6750   -0.6783    0.0041 N   0  0  0  0  0  0  0  0  0  0  0  0
   -0.0837    0.3795   -0.6908 C   0  0  2  0  0  0  0  0  0  0  0  0
    0.8518    1.5832   -0.9043 C   0  0  0  0  0  0  0  0  0  0  0  0
    1.3869    1.7747   -1.9905 O   0  0  0  0  0  0  0  0  0  0  0  0
   -1.2893    0.8544    0.1501 C   0  0  0  0  0  0  0  0  0  0  0  0
   -2.3921   -0.1982    0.3358 C   0  0  0  0  0  0  0  0  0  0  0  0
   -3.5186    0.3696    1.1995 C   0  0  0  0  0  0  0  0  0  0  0  0
   -3.2352    0.6725    2.3867 O   0  5  0  0  0  0  0  0  0  0  0  0
   -4.6399    0.5496    0.6642 O   0  0  0  0  0  0  0  0  0  0  0  0
    1.4970   -0.4070    0.5497 H   0  0  0  0  0  0  0  0  0  0  0  0
   -0.4328    0.0287   -1.6682 H   0  0  0  0  0  0  0  0  0  0  0  0
   -1.7364    1.7301   -0.3336 H   0  0  0  0  0  0  0  0  0  0  0  0
   -0.9429    1.1662    1.1411 H   0  0  0  0  0  0  0  0  0  0  0  0
   -2.7837   -0.5061   -0.6385 H   0  0  0  0  0  0  0  0  0  0  0  0
   -1.9925   -1.0839    0.8351 H   0  0  0  0  0  0  0  0  0  0  0  0
    1.3999    2.1872    0.2144 N   0  0  0  0  0  0  0  0  0  0  0  0
    2.8233    2.5368    0.2429 C   0  0  2  0  0  0  0  0  0  0  0  0
    3.7000    1.2683    0.3468 C   0  0  0  0  0  0  0  0  0  0  0  0
    3.2959    0.2893    0.9712 O   0  0  0  0  0  0  0  0  0  0  0  0
    3.0638    3.4553    1.4418 C   0  0  0  0  0  0  0  0  0  0  0  0
    1.0051    1.8485    1.0893 H   0  0  0  0  0  0  0  0  0  0  0  0
    3.0930    3.0792   -0.6693 H   0  0  0  0  0  0  0  0  0  0  0  0
    2.8111    2.9427    2.3758 H   0  0  0  0  0  0  0  0  0  0  0  0
    4.1144    3.7585    1.4850 H   0  0  0  0  0  0  0  0  0  0  0  0
    2.4461    4.3550    1.3591 H   0  0  0  0  0  0  0  0  0  0  0  0
    4.9328    1.2157   -0.2763 N   0  0  0  0  0  0  0  0  0  0  0  0
    5.7302   -0.0021   -0.3465 C   0  0  0  0  0  0  0  0  0  0  0  0
    5.1563    1.9784   -0.9090 H   0  0  0  0  0  0  0  0  0  0  0  0
    5.9382   -0.3839    0.6586 H   0  0  0  0  0  0  0  0  0  0  0  0
    5.2008   -0.7739   -0.9147 H   0  0  0  0  0  0  0  0  0  0  0  0
    6.6845    0.2002   -0.8419 H   0  0  0  0  0  0  0  0  0  0  0  0
  1  2  2  0  0  0  0
  1  3  1  0  0  0  0
  1  7  1  0  0  0  0
  3  4  1  0  0  0  0
  3  5  1  0  0  0  0
  3  6  1  0  0  0  0
  7  8  1  0  0  0  0
  7 12  1  0  0  0  0
  8  9  1  0  0  0  0
  8 11  1  0  0  0  0
  8 13  1  0  0  0  0
  9 10  2  0  0  0  0
  9 17  1  0  0  0  0
 11 14  1  0  0  0  0
 11 15  1  0  0  0  0
 11 16  1  0  0  0  0
 17 18  1  0  0  0  0
 17 26  1  0  0  0  0
 18 19  1  0  0  0  0
 18 21  1  0  0  0  0
 18 27  1  0  0  0  0
 19 20  2  0  0  0  0
 19 32  1  0  0  0  0
 21 22  1  0  0  0  0
 21 28  1  0  0  0  0
 21 29  1  0  0  0  0
 22 23  1  0  0  0  0
 22 30  1  0  0  0  0
 22 31  1  0  0  0  0
 23 24  1  0  0  0  0
 23 25  2  0  0  0  0
 32 33  1  0  0  0  0
 32 37  1  0  0  0  0
 33 34  1  0  0  0  0
 33 36  1  0  0  0  0
 33 38  1  0  0  0  0
 34 35  2  0  0  0  0
 34 42  1  0  0  0  0
 36 39  1  0  0  0  0
 36 40  1  0  0  0  0
 36 41  1  0  0  0  0
 42 43  1  0  0  0  0
 42 44  1  0  0  0  0
 43 45  1  0  0  0  0
 43 46  1  0  0  0  0
 43 47  1  0  0  0  0
M  CHG  1  24  -1
M  END
$$$$

  -OEChem-05262216243D

 47 46  0     1  0  0  0  0  0999 V2000
   -0.1491   -5.7629    1.6384 C   0  0  0  0  0  0  0  0  0  0  0  0
    0.7835   -5.8492    2.4231 O   0  0  0  0  0  0  0  0  0  0  0  0
   -1.3228   -6.7190    1.7467 C   0  0  0  0  0  0  0  0  0  0  0  0
   -1.4233   -7.2924    0.8223 H   0  0  0  0  0  0  0  0  0  0  0  0
   -1.1707   -7.4124    2.5784 H   0  0  0  0  0  0  0  0  0  0  0  0
   -2.2443   -6.1575    1.9213 H   0  0  0  0  0  0  0  0  0  0  0  0
   -0.1424   -4.8051    0.6476 N   0  0  0  0  0  0  0  0  0  0  0  0
    0.8109   -3.6920    0.5665 C   0  0  2  0  0  0  0  0  0  0  0  0
    0.2134   -2.5207   -0.2413 C   0  0  0  0  0  0  0  0  0  0  0  0
   -0.6986   -2.7377   -1.0325 O   0  0  0  0  0  0  0  0  0  0  0  0
    2.1060   -4.1793   -0.0920 C   0  0  0  0  0  0  0  0  0  0  0  0
   -0.9839   -4.7146    0.0774 H   0  0  0  0  0  0  0  0  0  0  0  0
    1.0282   -3.3268    1.5761 H   0  0  0  0  0  0  0  0  0  0  0  0
    1.9045   -4.5447   -1.1039 H   0  0  0  0  0  0  0  0  0  0  0  0
    2.8333   -3.3641   -0.1532 H   0  0  0  0  0  0  0  0  0  0  0  0
    2.5490   -4.9926    0.4907 H   0  0  0  0  0  0  0  0  0  0  0  0
    0.7292   -1.2448   -0.1016 N   0  0  0  0  0  0  0  0  0  0  0  0
    0.0344   -0.0278   -0.5711 C   0  0  2  0  0  0  0  0  0  0  0  0
    1.0435    1.0649   -0.9780 C   0  0  0  0  0  0  0  0  0  0  0  0
    0.9501    1.6409   -2.0549 O   0  0  0  0  0  0  0  0  0  0  0  0
   -0.8316    0.5477    0.5687 C   0  0  0  0  0  0  0  0  0  0  0  0
   -2.0172   -0.3462    0.9692 C   0  0  0  0  0  0  0  0  0  0  0  0
   -2.7967    0.2932    2.1168 C   0  0  0  0  0  0  0  0  0  0  0  0
   -2.2053    0.3841    3.2224 O   0  5  0  0  0  0  0  0  0  0  0  0
   -3.9573    0.7120    1.8883 O   0  0  0  0  0  0  0  0  0  0  0  0
    1.4072   -1.1384    0.6457 H   0  0  0  0  0  0  0  0  0  0  0  0
   -0.5972   -0.2469   -1.4390 H   0  0  0  0  0  0  0  0  0  0  0  0
   -1.2338    1.5177    0.2541 H   0  0  0  0  0  0  0  0  0  0  0  0
   -0.2052    0.7241    1.4501 H   0  0  0  0  0  0  0  0  0  0  0  0
   -2.6761   -0.4982    0.1089 H   0  0  0  0  0  0  0  0  0  0  0  0
   -1.6665   -1.3250    1.3033 H   0  0  0  0  0  0  0  0  0  0  0  0
    2.1303    1.3430   -0.1679 N   0  0  0  0  0  0  0  0  0  0  0  0
    3.2930    2.1420   -0.5699 C   0  0  2  0  0  0  0  0  0  0  0  0
    4.6171    1.4741   -0.1429 C   0  0  0  0  0  0  0  0  0  0  0  0
    4.6178    0.5499    0.6650 O   0  0  0  0  0  0  0  0  0  0  0  0
    3.1531    3.5285    0.0619 C   0  0  0  0  0  0  0  0  0  0  0  0
    2.2277    0.7867    0.6777 H   0  0  0  0  0  0  0  0  0  0  0  0
    3.3206    2.2466   -1.6593 H   0  0  0  0  0  0  0  0  0  0  0  0
    3.1308    3.4512    1.1538 H   0  0  0  0  0  0  0  0  0  0  0  0
    3.9912    4.1693   -0.2266 H   0  0  0  0  0  0  0  0  0  0  0  0
    2.2247    4.0025   -0.2726 H   0  0  0  0  0  0  0  0  0  0  0  0
    5.8175    1.9079   -0.6766 N   0  0  0  0  0  0  0  0  0  0  0  0
    7.1047    1.3092   -0.3482 C   0  0  0  0  0  0  0  0  0  0  0  0
    5.7806    2.6515   -1.3676 H   0  0  0  0  0  0  0  0  0  0  0  0
    7.3059    1.3975    0.7246 H   0  0  0  0  0  0  0  0  0  0  0  0
    7.1153    0.2496   -0.6238 H   0  0  0  0  0  0  0  0  0  0  0  0
    7.9068    1.8163   -0.8929 H   0  0  0  0  0  0  0  0  0  0  0  0
  1  2  2  0  0  0  0
  1  3  1  0  0  0  0
  1  7  1  0  0  0  0
  3  4  1  0  0  0  0
  3  5  1  0  0  0  0
  3  6  1  0  0  0  0
  7  8  1  0  0  0  0
  7 12  1  0  0  0  0
  8  9  1  0  0  0  0
  8 11  1  0  0  0  0
  8 13  1  0  0  0  0
  9 10  2  0  0  0  0
  9 17  1  0  0  0  0
 11 14  1  0  0  0  0
 11 15  1  0  0  0  0
 11 16  1  0  0  0  0
 17 18  1  0  0  0  0
 17 26  1  0  0  0  0
 18 19  1  0  0  0  0
 18 21  1  0  0  0  0
 18 27  1  0  0  0  0
 19 20  2  0  0  0  0
 19 32  1  0  0  0  0
 21 22  1  0  0  0  0
 21 28  1  0  0  0  0
 21 29  1  0  0  0  0
 22 23  1  0  0  0  0
 22 30  1  0  0  0  0
 22 31  1  0  0  0  0
 23 24  1  0  0  0  0
 23 25  2  0  0  0  0
 32 33  1  0  0  0  0
 32 37  1  0  0  0  0
 33 34  1  0  0  0  0
 33 36  1  0  0  0  0
 33 38  1  0  0  0  0
 34 35  2  0  0  0  0
 34 42  1  0  0  0  0
 36 39  1  0  0  0  0
 36 40  1  0  0  0  0
 36 41  1  0  0  0  0
 42 43  1  0  0  0  0
 42 44  1  0  0  0  0
 43 45  1  0  0  0  0
 43 46  1  0  0  0  0
 43 47  1  0  0  0  0
M  CHG  1  24  -1
M  END
$$$$

  -OEChem-05262216243D

 47 46  0     1  0  0  0  0  0999 V2000
   -0.4207   -5.8072    1.6643 C   0  0  0  0  0  0  0  0  0  0  0  0
    0.4603   -5.9165    2.5037 O   0  0  0  0  0  0  0  0  0  0  0  0
   -1.6431   -6.7046    1.7253 C   0  0  0  0  0  0  0  0  0  0  0  0
   -1.7433   -7.2636    0.7918 H   0  0  0  0  0  0  0  0  0  0  0  0
   -1.5514   -7.4132    2.5533 H   0  0  0  0  0  0  0  0  0  0  0  0
   -2.5407   -6.0995    1.8775 H   0  0  0  0  0  0  0  0  0  0  0  0
   -0.3103   -4.8763    0.6546 N   0  0  0  0  0  0  0  0  0  0  0  0
    0.6923   -3.8055    0.6157 C   0  0  2  0  0  0  0  0  0  0  0  0
    0.1977   -2.6261   -0.2469 C   0  0  0  0  0  0  0  0  0  0  0  0
   -0.6880   -2.8122   -1.0751 O   0  0  0  0  0  0  0  0  0  0  0  0
    2.0063   -4.3556    0.0496 C   0  0  0  0  0  0  0  0  0  0  0  0
   -1.1159   -4.7552    0.0401 H   0  0  0  0  0  0  0  0  0  0  0  0
    0.8602   -3.4303    1.6311 H   0  0  0  0  0  0  0  0  0  0  0  0
    1.8553   -4.7344   -0.9663 H   0  0  0  0  0  0  0  0  0  0  0  0
    2.7685   -3.5707    0.0193 H   0  0  0  0  0  0  0  0  0  0  0  0
    2.3796   -5.1728    0.6744 H   0  0  0  0  0  0  0  0  0  0  0  0
    0.7863   -1.3804   -0.1206 N   0  0  0  0  0  0  0  0  0  0  0  0
    0.1279   -0.1382   -0.5776 C   0  0  2  0  0  0  0  0  0  0  0  0
    1.1579    0.9208   -1.0254 C   0  0  0  0  0  0  0  0  0  0  0  0
    0.8794    1.7423   -1.8899 O   0  0  0  0  0  0  0  0  0  0  0  0
   -0.6753    0.4723    0.5892 C   0  0  0  0  0  0  0  0  0  0  0  0
   -1.8805   -0.3763    1.0296 C   0  0  0  0  0  0  0  0  0  0  0  0
   -2.6016    0.2875    2.2015 C   0  0  0  0  0  0  0  0  0  0  0  0
   -1.9585    0.3952    3.2763 O   0  5  0  0  0  0  0  0  0  0  0  0
   -3.7769    0.6908    2.0255 O   0  0  0  0  0  0  0  0  0  0  0  0
    1.3794   -1.2966    0.6987 H   0  0  0  0  0  0  0  0  0  0  0  0
   -0.5406   -0.3356   -1.4230 H   0  0  0  0  0  0  0  0  0  0  0  0
   -1.0510    1.4563    0.2860 H   0  0  0  0  0  0  0  0  0  0  0  0
   -0.0115    0.6273    1.4468 H   0  0  0  0  0  0  0  0  0  0  0  0
   -2.5707   -0.5044    0.1903 H   0  0  0  0  0  0  0  0  0  0  0  0
   -1.5557   -1.3667    1.3553 H   0  0  0  0  0  0  0  0  0  0  0  0
    2.4161    0.9683   -0.4520 N   0  0  0  0  0  0  0  0  0  0  0  0
    3.5037    1.8479   -0.8925 C   0  0  2  0  0  0  0  0  0  0  0  0
    4.8774    1.1551   -0.7703 C   0  0  0  0  0  0  0  0  0  0  0  0
    5.0005    0.1296   -0.1070 O   0  0  0  0  0  0  0  0  0  0  0  0
    3.4585    3.1206   -0.0425 C   0  0  0  0  0  0  0  0  0  0  0  0
    2.6753    0.1925    0.1513 H   0  0  0  0  0  0  0  0  0  0  0  0
    3.3656    2.1128   -1.9461 H   0  0  0  0  0  0  0  0  0  0  0  0
    3.5968    2.8788    1.0163 H   0  0  0  0  0  0  0  0  0  0  0  0
    4.2449    3.8166   -0.3484 H   0  0  0  0  0  0  0  0  0  0  0  0
    2.4911    3.6193   -0.1614 H   0  0  0  0  0  0  0  0  0  0  0  0
    5.9811    1.6763   -1.4217 N   0  0  0  0  0  0  0  0  0  0  0  0
    7.3025    1.0631   -1.3790 C   0  0  0  0  0  0  0  0  0  0  0  0
    5.8406    2.5084   -1.9873 H   0  0  0  0  0  0  0  0  0  0  0  0
    7.6756    1.0271   -0.3501 H   0  0  0  0  0  0  0  0  0  0  0  0
    7.2653    0.0435   -1.7767 H   0  0  0  0  0  0  0  0  0  0  0  0
    8.0069    1.6438   -1.9821 H   0  0  0  0  0  0  0  0  0  0  0  0
  1  2  2  0  0  0  0
  1  3  1  0  0  0  0
  1  7  1  0  0  0  0
  3  4  1  0  0  0  0
  3  5  1  0  0  0  0
  3  6  1  0  0  0  0
  7  8  1  0  0  0  0
  7 12  1  0  0  0  0
  8  9  1  0  0  0  0
  8 11  1  0  0  0  0
  8 13  1  0  0  0  0
  9 10  2  0  0  0  0
  9 17  1  0  0  0  0
 11 14  1  0  0  0  0
 11 15  1  0  0  0  0
 11 16  1  0  0  0  0
 17 18  1  0  0  0  0
 17 26  1  0  0  0  0
 18 19  1  0  0  0  0
 18 21  1  0  0  0  0
 18 27  1  0  0  0  0
 19 20  2  0  0  0  0
 19 32  1  0  0  0  0
 21 22  1  0  0  0  0
 21 28  1  0  0  0  0
 21 29  1  0  0  0  0
 22 23  1  0  0  0  0
 22 30  1  0  0  0  0
 22 31  1  0  0  0  0
 23 24  1  0  0  0  0
 23 25  2  0  0  0  0
 32 33  1  0  0  0  0
 32 37  1  0  0  0  0
 33 34  1  0  0  0  0
 33 36  1  0  0  0  0
 33 38  1  0  0  0  0
 34 35  2  0  0  0  0
 34 42  1  0  0  0  0
 36 39  1  0  0  0  0
 36 40  1  0  0  0  0
 36 41  1  0  0  0  0
 42 43  1  0  0  0  0
 42 44  1  0  0  0  0
 43 45  1  0  0  0  0
 43 46  1  0  0  0  0
 43 47  1  0  0  0  0
M  CHG  1  24  -1
M  END
$$$$

  -OEChem-05262216243D

 47 46  0     1  0  0  0  0  0999 V2000
   -0.4737   -5.7767    1.7464 C   0  0  0  0  0  0  0  0  0  0  0  0
    0.4139   -5.8820    2.5794 O   0  0  0  0  0  0  0  0  0  0  0  0
   -1.7060   -6.6578    1.8338 C   0  0  0  0  0  0  0  0  0  0  0  0
   -1.8339   -7.2140    0.9019 H   0  0  0  0  0  0  0  0  0  0  0  0
   -1.6055   -7.3683    2.6589 H   0  0  0  0  0  0  0  0  0  0  0  0
   -2.5912   -6.0401    2.0059 H   0  0  0  0  0  0  0  0  0  0  0  0
   -0.3601   -4.8691    0.7157 N   0  0  0  0  0  0  0  0  0  0  0  0
    0.6696   -3.8271    0.6285 C   0  0  2  0  0  0  0  0  0  0  0  0
    0.1901   -2.6590   -0.2576 C   0  0  0  0  0  0  0  0  0  0  0  0
   -0.6944   -2.8506   -1.0857 O   0  0  0  0  0  0  0  0  0  0  0  0
    1.9548   -4.4314    0.0518 C   0  0  0  0  0  0  0  0  0  0  0  0
   -1.1666   -4.7540    0.1013 H   0  0  0  0  0  0  0  0  0  0  0  0
    0.8687   -3.4290    1.6295 H   0  0  0  0  0  0  0  0  0  0  0  0
    1.7690   -4.8405   -0.9464 H   0  0  0  0  0  0  0  0  0  0  0  0
    2.7368   -3.6696   -0.0236 H   0  0  0  0  0  0  0  0  0  0  0  0
    2.3207   -5.2368    0.6959 H   0  0  0  0  0  0  0  0  0  0  0  0
    0.7926   -1.4178   -0.1572 N   0  0  0  0  0  0  0  0  0  0  0  0
    0.1328   -0.1750   -0.6118 C   0  0  2  0  0  0  0  0  0  0  0  0
    1.1650    0.8679   -1.0942 C   0  0  0  0  0  0  0  0  0  0  0  0
    0.8219    1.8510   -1.7391 O   0  0  0  0  0  0  0  0  0  0  0  0
   -0.6388    0.4442    0.5735 C   0  0  0  0  0  0  0  0  0  0  0  0
   -1.8376   -0.3966    1.0480 C   0  0  0  0  0  0  0  0  0  0  0  0
   -2.5275    0.2733    2.2356 C   0  0  0  0  0  0  0  0  0  0  0  0
   -1.8607    0.3738    3.2966 O   0  5  0  0  0  0  0  0  0  0  0  0
   -3.7067    0.6773    2.0887 O   0  0  0  0  0  0  0  0  0  0  0  0
    1.3805   -1.3237    0.6658 H   0  0  0  0  0  0  0  0  0  0  0  0
   -0.5562   -0.3719   -1.4403 H   0  0  0  0  0  0  0  0  0  0  0  0
   -1.0176    1.4294    0.2776 H   0  0  0  0  0  0  0  0  0  0  0  0
    0.0476    0.5985    1.4133 H   0  0  0  0  0  0  0  0  0  0  0  0
   -2.5492   -0.5249    0.2267 H   0  0  0  0  0  0  0  0  0  0  0  0
   -1.5109   -1.3877    1.3692 H   0  0  0  0  0  0  0  0  0  0  0  0
    2.5052    0.7180   -0.7869 N   0  0  0  0  0  0  0  0  0  0  0  0
    3.5780    1.5871   -1.2803 C   0  0  2  0  0  0  0  0  0  0  0  0
    4.8946    0.8062   -1.4769 C   0  0  0  0  0  0  0  0  0  0  0  0
    5.0239   -0.3229   -1.0130 O   0  0  0  0  0  0  0  0  0  0  0  0
    3.7690    2.7265   -0.2751 C   0  0  0  0  0  0  0  0  0  0  0  0
    2.7857   -0.1925   -0.4297 H   0  0  0  0  0  0  0  0  0  0  0  0
    3.2977    2.0055   -2.2527 H   0  0  0  0  0  0  0  0  0  0  0  0
    4.0617    2.3291    0.7021 H   0  0  0  0  0  0  0  0  0  0  0  0
    4.5440    3.4176   -0.6184 H   0  0  0  0  0  0  0  0  0  0  0  0
    2.8356    3.2865   -0.1568 H   0  0  0  0  0  0  0  0  0  0  0  0
    5.9388    1.3677   -2.1898 N   0  0  0  0  0  0  0  0  0  0  0  0
    7.2051    0.6865   -2.4277 C   0  0  0  0  0  0  0  0  0  0  0  0
    5.7952    2.2952   -2.5786 H   0  0  0  0  0  0  0  0  0  0  0  0
    7.6992    0.4554   -1.4781 H   0  0  0  0  0  0  0  0  0  0  0  0
    7.0411   -0.2467   -2.9769 H   0  0  0  0  0  0  0  0  0  0  0  0
    7.8714    1.3227   -3.0181 H   0  0  0  0  0  0  0  0  0  0  0  0
  1  2  2  0  0  0  0
  1  3  1  0  0  0  0
  1  7  1  0  0  0  0
  3  4  1  0  0  0  0
  3  5  1  0  0  0  0
  3  6  1  0  0  0  0
  7  8  1  0  0  0  0
  7 12  1  0  0  0  0
  8  9  1  0  0  0  0
  8 11  1  0  0  0  0
  8 13  1  0  0  0  0
  9 10  2  0  0  0  0
  9 17  1  0  0  0  0
 11 14  1  0  0  0  0
 11 15  1  0  0  0  0
 11 16  1  0  0  0  0
 17 18  1  0  0  0  0
 17 26  1  0  0  0  0
 18 19  1  0  0  0  0
 18 21  1  0  0  0  0
 18 27  1  0  0  0  0
 19 20  2  0  0  0  0
 19 32  1  0  0  0  0
 21 22  1  0  0  0  0
 21 28  1  0  0  0  0
 21 29  1  0  0  0  0
 22 23  1  0  0  0  0
 22 30  1  0  0  0  0
 22 31  1  0  0  0  0
 23 24  1  0  0  0  0
 23 25  2  0  0  0  0
 32 33  1  0  0  0  0
 32 37  1  0  0  0  0
 33 34  1  0  0  0  0
 33 36  1  0  0  0  0
 33 38  1  0  0  0  0
 34 35  2  0  0  0  0
 34 42  1  0  0  0  0
 36 39  1  0  0  0  0
 36 40  1  0  0  0  0
 36 41  1  0  0  0  0
 42 43  1  0  0  0  0
 42 44  1  0  0  0  0
 43 45  1  0  0  0  0
 43 46  1  0  0  0  0
 43 47  1  0  0  0  0
M  CHG  1  24  -1
M  END
$$$$

  -OEChem-05262216243D

 47 46  0     1  0  0  0  0  0999 V2000
   -0.4481   -5.7750    1.7929 C   0  0  0  0  0  0  0  0  0  0  0  0
    0.4552   -5.8702    2.6100 O   0  0  0  0  0  0  0  0  0  0  0  0
   -1.6728   -6.6638    1.9089 C   0  0  0  0  0  0  0  0  0  0  0  0
   -1.8461   -7.1879    0.9659 H   0  0  0  0  0  0  0  0  0  0  0  0
   -1.5287   -7.4030    2.7017 H   0  0  0  0  0  0  0  0  0  0  0  0
   -2.5508   -6.0575    2.1469 H   0  0  0  0  0  0  0  0  0  0  0  0
   -0.3595   -4.8719    0.7558 N   0  0  0  0  0  0  0  0  0  0  0  0
    0.6598   -3.8218    0.6465 C   0  0  2  0  0  0  0  0  0  0  0  0
    0.1624   -2.6668   -0.2472 C   0  0  0  0  0  0  0  0  0  0  0  0
   -0.7413   -2.8678   -1.0524 O   0  0  0  0  0  0  0  0  0  0  0  0
    1.9462   -4.4183    0.0640 C   0  0  0  0  0  0  0  0  0  0  0  0
   -1.1779   -4.7656    0.1560 H   0  0  0  0  0  0  0  0  0  0  0  0
    0.8643   -3.4109    1.6412 H   0  0  0  0  0  0  0  0  0  0  0  0
    1.7544   -4.8427   -0.9265 H   0  0  0  0  0  0  0  0  0  0  0  0
    2.7179   -3.6482   -0.0302 H   0  0  0  0  0  0  0  0  0  0  0  0
    2.3296   -5.2102    0.7146 H   0  0  0  0  0  0  0  0  0  0  0  0
    0.7717   -1.4262   -0.1832 N   0  0  0  0  0  0  0  0  0  0  0  0
    0.1047   -0.1878   -0.6393 C   0  0  2  0  0  0  0  0  0  0  0  0
    1.1354    0.8382   -1.1646 C   0  0  0  0  0  0  0  0  0  0  0  0
    0.7921    1.9296   -1.6015 O   0  0  0  0  0  0  0  0  0  0  0  0
   -0.6335    0.4426    0.5631 C   0  0  0  0  0  0  0  0  0  0  0  0
   -1.8192   -0.3925    1.0779 C   0  0  0  0  0  0  0  0  0  0  0  0
   -2.4726    0.2897    2.2783 C   0  0  0  0  0  0  0  0  0  0  0  0
   -1.7934    0.3495    3.3346 O   0  5  0  0  0  0  0  0  0  0  0  0
   -3.6341    0.7462    2.1453 O   0  0  0  0  0  0  0  0  0  0  0  0
    1.3875   -1.3191    0.6183 H   0  0  0  0  0  0  0  0  0  0  0  0
   -0.6058   -0.3926   -1.4472 H   0  0  0  0  0  0  0  0  0  0  0  0
   -1.0225    1.4246    0.2706 H   0  0  0  0  0  0  0  0  0  0  0  0
    0.0761    0.6053    1.3819 H   0  0  0  0  0  0  0  0  0  0  0  0
   -2.5545   -0.5248    0.2786 H   0  0  0  0  0  0  0  0  0  0  0  0
   -1.4863   -1.3815    1.3984 H   0  0  0  0  0  0  0  0  0  0  0  0
    2.4841    0.5301   -1.1611 N   0  0  0  0  0  0  0  0  0  0  0  0
    3.5421    1.3806   -1.7169 C   0  0  2  0  0  0  0  0  0  0  0  0
    4.7451    0.5485   -2.2091 C   0  0  0  0  0  0  0  0  0  0  0  0
    4.8531   -0.6348   -1.9018 O   0  0  0  0  0  0  0  0  0  0  0  0
    3.9838    2.3718   -0.6351 C   0  0  0  0  0  0  0  0  0  0  0  0
    2.7218   -0.4440   -0.9817 H   0  0  0  0  0  0  0  0  0  0  0  0
    3.1522    1.9344   -2.5775 H   0  0  0  0  0  0  0  0  0  0  0  0
    4.3816    1.8377    0.2337 H   0  0  0  0  0  0  0  0  0  0  0  0
    4.7591    3.0414   -1.0186 H   0  0  0  0  0  0  0  0  0  0  0  0
    3.1342    2.9808   -0.3099 H   0  0  0  0  0  0  0  0  0  0  0  0
    5.7152    1.1321   -3.0041 N   0  0  0  0  0  0  0  0  0  0  0  0
    6.8815    0.4163   -3.5045 C   0  0  0  0  0  0  0  0  0  0  0  0
    5.5920    2.1099   -3.2504 H   0  0  0  0  0  0  0  0  0  0  0  0
    7.4808    0.0317   -2.6727 H   0  0  0  0  0  0  0  0  0  0  0  0
    6.5743   -0.4235   -4.1364 H   0  0  0  0  0  0  0  0  0  0  0  0
    7.5082    1.0865   -4.1005 H   0  0  0  0  0  0  0  0  0  0  0  0
  1  2  2  0  0  0  0
  1  3  1  0  0  0  0
  1  7  1  0  0  0  0
  3  4  1  0  0  0  0
  3  5  1  0  0  0  0
  3  6  1  0  0  0  0
  7  8  1  0  0  0  0
  7 12  1  0  0  0  0
  8  9  1  0  0  0  0
  8 11  1  0  0  0  0
  8 13  1  0  0  0  0
  9 10  2  0  0  0  0
  9 17  1  0  0  0  0
 11 14  1  0  0  0  0
 11 15  1  0  0  0  0
 11 16  1  0  0  0  0
 17 18  1  0  0  0  0
 17 26  1  0  0  0  0
 18 19  1  0  0  0  0
 18 21  1  0  0  0  0
 18 27  1  0  0  0  0
 19 20  2  0  0  0  0
 19 32  1  0  0  0  0
 21 22  1  0  0  0  0
 21 28  1  0  0  0  0
 21 29  1  0  0  0  0
 22 23  1  0  0  0  0
 22 30  1  0  0  0  0
 22 31  1  0  0  0  0
 23 24  1  0  0  0  0
 23 25  2  0  0  0  0
 32 33  1  0  0  0  0
 32 37  1  0  0  0  0
 33 34  1  0  0  0  0
 33 36  1  0  0  0  0
 33 38  1  0  0  0  0
 34 35  2  0  0  0  0
 34 42  1  0  0  0  0
 36 39  1  0  0  0  0
 36 40  1  0  0  0  0
 36 41  1  0  0  0  0
 42 43  1  0  0  0  0
 42 44  1  0  0  0  0
 43 45  1  0  0  0  0
 43 46  1  0  0  0  0
 43 47  1  0  0  0  0
M  CHG  1  24  -1
M  END
$$$$

  -OEChem-05262216243D

 47 46  0     1  0  0  0  0  0999 V2000
   -0.3307   -5.7518    1.8128 C   0  0  0  0  0  0  0  0  0  0  0  0
    0.6199   -5.8402    2.5754 O   0  0  0  0  0  0  0  0  0  0  0  0
   -1.5445   -6.6417    2.0076 C   0  0  0  0  0  0  0  0  0  0  0  0
   -1.7226   -7.2354    1.1076 H   0  0  0  0  0  0  0  0  0  0  0  0
   -1.3847   -7.3186    2.8513 H   0  0  0  0  0  0  0  0  0  0  0  0
   -2.4257   -6.0277    2.2110 H   0  0  0  0  0  0  0  0  0  0  0  0
   -0.3071   -4.8508    0.7704 N   0  0  0  0  0  0  0  0  0  0  0  0
    0.6992   -3.7962    0.6035 C   0  0  2  0  0  0  0  0  0  0  0  0
    0.1438   -2.6409   -0.2542 C   0  0  0  0  0  0  0  0  0  0  0  0
   -0.7898   -2.8488   -1.0224 O   0  0  0  0  0  0  0  0  0  0  0  0
    1.9494   -4.3868   -0.0584 C   0  0  0  0  0  0  0  0  0  0  0  0
   -1.1594   -4.7482    0.2191 H   0  0  0  0  0  0  0  0  0  0  0  0
    0.9620   -3.3881    1.5855 H   0  0  0  0  0  0  0  0  0  0  0  0
    1.6997   -4.8063   -1.0382 H   0  0  0  0  0  0  0  0  0  0  0  0
    2.7130   -3.6148   -0.1941 H   0  0  0  0  0  0  0  0  0  0  0  0
    2.3720   -5.1819    0.5634 H   0  0  0  0  0  0  0  0  0  0  0  0
    0.7412   -1.3939   -0.2138 N   0  0  0  0  0  0  0  0  0  0  0  0
    0.0566   -0.1603   -0.6562 C   0  0  2  0  0  0  0  0  0  0  0  0
    1.0854    0.8557   -1.2084 C   0  0  0  0  0  0  0  0  0  0  0  0
    0.8037    2.0283   -1.4218 O   0  0  0  0  0  0  0  0  0  0  0  0
   -0.6673    0.4635    0.5598 C   0  0  0  0  0  0  0  0  0  0  0  0
   -1.8376   -0.3827    1.0919 C   0  0  0  0  0  0  0  0  0  0  0  0
   -2.4785    0.2910    2.3036 C   0  0  0  0  0  0  0  0  0  0  0  0
   -1.7904    0.3423    3.3544 O   0  5  0  0  0  0  0  0  0  0  0  0
   -3.6411    0.7486    2.1844 O   0  0  0  0  0  0  0  0  0  0  0  0
    1.4018   -1.2781    0.5501 H   0  0  0  0  0  0  0  0  0  0  0  0
   -0.6676   -0.3709   -1.4501 H   0  0  0  0  0  0  0  0  0  0  0  0
   -1.0703    1.4426    0.2775 H   0  0  0  0  0  0  0  0  0  0  0  0
    0.0545    0.6301    1.3669 H   0  0  0  0  0  0  0  0  0  0  0  0
   -2.5838   -0.5211    0.3038 H   0  0  0  0  0  0  0  0  0  0  0  0
   -1.4910   -1.3693    1.4054 H   0  0  0  0  0  0  0  0  0  0  0  0
    2.3642    0.4293   -1.5180 N   0  0  0  0  0  0  0  0  0  0  0  0
    3.4108    1.2585   -2.1250 C   0  0  2  0  0  0  0  0  0  0  0  0
    4.4488    0.4025   -2.8810 C   0  0  0  0  0  0  0  0  0  0  0  0
    4.5031   -0.8111   -2.7065 O   0  0  0  0  0  0  0  0  0  0  0  0
    4.0964    2.0703   -1.0203 C   0  0  0  0  0  0  0  0  0  0  0  0
    2.5241   -0.5769   -1.4884 H   0  0  0  0  0  0  0  0  0  0  0  0
    2.9564    1.9432   -2.8489 H   0  0  0  0  0  0  0  0  0  0  0  0
    4.5608    1.4030   -0.2873 H   0  0  0  0  0  0  0  0  0  0  0  0
    4.8701    2.7177   -1.4431 H   0  0  0  0  0  0  0  0  0  0  0  0
    3.3666    2.7009   -0.5027 H   0  0  0  0  0  0  0  0  0  0  0  0
    5.3330    0.9982   -3.7625 N   0  0  0  0  0  0  0  0  0  0  0  0
    6.3359    0.2572   -4.5165 C   0  0  0  0  0  0  0  0  0  0  0  0
    5.2545    2.0020   -3.8975 H   0  0  0  0  0  0  0  0  0  0  0  0
    7.0169   -0.2659   -3.8370 H   0  0  0  0  0  0  0  0  0  0  0  0
    5.8569   -0.4782   -5.1713 H   0  0  0  0  0  0  0  0  0  0  0  0
    6.9238    0.9411   -5.1358 H   0  0  0  0  0  0  0  0  0  0  0  0
  1  2  2  0  0  0  0
  1  3  1  0  0  0  0
  1  7  1  0  0  0  0
  3  4  1  0  0  0  0
  3  5  1  0  0  0  0
  3  6  1  0  0  0  0
  7  8  1  0  0  0  0
  7 12  1  0  0  0  0
  8  9  1  0  0  0  0
  8 11  1  0  0  0  0
  8 13  1  0  0  0  0
  9 10  2  0  0  0  0
  9 17  1  0  0  0  0
 11 14  1  0  0  0  0
 11 15  1  0  0  0  0
 11 16  1  0  0  0  0
 17 18  1  0  0  0  0
 17 26  1  0  0  0  0
 18 19  1  0  0  0  0
 18 21  1  0  0  0  0
 18 27  1  0  0  0  0
 19 20  2  0  0  0  0
 19 32  1  0  0  0  0
 21 22  1  0  0  0  0
 21 28  1  0  0  0  0
 21 29  1  0  0  0  0
 22 23  1  0  0  0  0
 22 30  1  0  0  0  0
 22 31  1  0  0  0  0
 23 24  1  0  0  0  0
 23 25  2  0  0  0  0
 32 33  1  0  0  0  0
 32 37  1  0  0  0  0
 33 34  1  0  0  0  0
 33 36  1  0  0  0  0
 33 38  1  0  0  0  0
 34 35  2  0  0  0  0
 34 42  1  0  0  0  0
 36 39  1  0  0  0  0
 36 40  1  0  0  0  0
 36 41  1  0  0  0  0
 42 43  1  0  0  0  0
 42 44  1  0  0  0  0
 43 45  1  0  0  0  0
 43 46  1  0  0  0  0
 43 47  1  0  0  0  0
M  CHG  1  24  -1
M  END
$$$$

  -OEChem-05262216243D

 47 46  0     1  0  0  0  0  0999 V2000
   -0.2505   -5.7217    1.8383 C   0  0  0  0  0  0  0  0  0  0  0  0
    0.7134   -5.7948    2.5856 O   0  0  0  0  0  0  0  0  0  0  0  0
   -1.4500   -6.6259    2.0554 C   0  0  0  0  0  0  0  0  0  0  0  0
   -1.6703   -7.1825    1.1413 H   0  0  0  0  0  0  0  0  0  0  0  0
   -1.2469   -7.3370    2.8610 H   0  0  0  0  0  0  0  0  0  0  0  0
   -2.3221   -6.0251    2.3266 H   0  0  0  0  0  0  0  0  0  0  0  0
   -0.2530   -4.8278    0.7895 N   0  0  0  0  0  0  0  0  0  0  0  0
    0.7382   -3.7627    0.5978 C   0  0  2  0  0  0  0  0  0  0  0  0
    0.1508   -2.6181   -0.2532 C   0  0  0  0  0  0  0  0  0  0  0  0
   -0.7972   -2.8408   -0.9993 O   0  0  0  0  0  0  0  0  0  0  0  0
    1.9796   -4.3434   -0.0888 C   0  0  0  0  0  0  0  0  0  0  0  0
   -1.1160   -4.7374    0.2529 H   0  0  0  0  0  0  0  0  0  0  0  0
    1.0175   -3.3460    1.5718 H   0  0  0  0  0  0  0  0  0  0  0  0
    1.7115   -4.7715   -1.0600 H   0  0  0  0  0  0  0  0  0  0  0  0
    2.7308   -3.5636   -0.2470 H   0  0  0  0  0  0  0  0  0  0  0  0
    2.4256   -5.1298    0.5277 H   0  0  0  0  0  0  0  0  0  0  0  0
    0.7352   -1.3647   -0.2374 N   0  0  0  0  0  0  0  0  0  0  0  0
    0.0291   -0.1412   -0.6709 C   0  0  2  0  0  0  0  0  0  0  0  0
    1.0498    0.8676   -1.2523 C   0  0  0  0  0  0  0  0  0  0  0  0
    0.8849    2.0809   -1.2203 O   0  0  0  0  0  0  0  0  0  0  0  0
   -0.6982    0.4774    0.5481 C   0  0  0  0  0  0  0  0  0  0  0  0
   -1.8547   -0.3826    1.0890 C   0  0  0  0  0  0  0  0  0  0  0  0
   -2.5017    0.2834    2.3019 C   0  0  0  0  0  0  0  0  0  0  0  0
   -1.8171    0.3345    3.3550 O   0  5  0  0  0  0  0  0  0  0  0  0
   -3.6683    0.7312    2.1819 O   0  0  0  0  0  0  0  0  0  0  0  0
    1.4257   -1.2364    0.4971 H   0  0  0  0  0  0  0  0  0  0  0  0
   -0.7006   -0.3642   -1.4563 H   0  0  0  0  0  0  0  0  0  0  0  0
   -1.1172    1.4494    0.2645 H   0  0  0  0  0  0  0  0  0  0  0  0
    0.0252    0.6574    1.3508 H   0  0  0  0  0  0  0  0  0  0  0  0
   -2.6018   -0.5349    0.3043 H   0  0  0  0  0  0  0  0  0  0  0  0
   -1.4921   -1.3628    1.4040 H   0  0  0  0  0  0  0  0  0  0  0  0
    2.1921    0.3881   -1.8672 N   0  0  0  0  0  0  0  0  0  0  0  0
    3.2253    1.2155   -2.5001 C   0  0  2  0  0  0  0  0  0  0  0  0
    4.0446    0.4199   -3.5379 C   0  0  0  0  0  0  0  0  0  0  0  0
    4.0359   -0.8069   -3.5332 O   0  0  0  0  0  0  0  0  0  0  0  0
    4.1502    1.7665   -1.4087 C   0  0  0  0  0  0  0  0  0  0  0  0
    2.2578   -0.6227   -1.9851 H   0  0  0  0  0  0  0  0  0  0  0  0
    2.7473    2.0489   -3.0256 H   0  0  0  0  0  0  0  0  0  0  0  0
    4.6348    0.9465   -0.8694 H   0  0  0  0  0  0  0  0  0  0  0  0
    4.9242    2.4034   -1.8465 H   0  0  0  0  0  0  0  0  0  0  0  0
    3.5800    2.3650   -0.6913 H   0  0  0  0  0  0  0  0  0  0  0  0
    4.8052    1.0855   -4.4827 N   0  0  0  0  0  0  0  0  0  0  0  0
    5.5917    0.4036   -5.5026 C   0  0  0  0  0  0  0  0  0  0  0  0
    4.7798    2.1011   -4.4740 H   0  0  0  0  0  0  0  0  0  0  0  0
    6.3354   -0.2517   -5.0374 H   0  0  0  0  0  0  0  0  0  0  0  0
    4.9433   -0.1999   -6.1462 H   0  0  0  0  0  0  0  0  0  0  0  0
    6.1162    1.1333   -6.1266 H   0  0  0  0  0  0  0  0  0  0  0  0
  1  2  2  0  0  0  0
  1  3  1  0  0  0  0
  1  7  1  0  0  0  0
  3  4  1  0  0  0  0
  3  5  1  0  0  0  0
  3  6  1  0  0  0  0
  7  8  1  0  0  0  0
  7 12  1  0  0  0  0
  8  9  1  0  0  0  0
  8 11  1  0  0  0  0
  8 13  1  0  0  0  0
  9 10  2  0  0  0  0
  9 17  1  0  0  0  0
 11 14  1  0  0  0  0
 11 15  1  0  0  0  0
 11 16  1  0  0  0  0
 17 18  1  0  0  0  0
 17 26  1  0  0  0  0
 18 19  1  0  0  0  0
 18 21  1  0  0  0  0
 18 27  1  0  0  0  0
 19 20  2  0  0  0  0
 19 32  1  0  0  0  0
 21 22  1  0  0  0  0
 21 28  1  0  0  0  0
 21 29  1  0  0  0  0
 22 23  1  0  0  0  0
 22 30  1  0  0  0  0
 22 31  1  0  0  0  0
 23 24  1  0  0  0  0
 23 25  2  0  0  0  0
 32 33  1  0  0  0  0
 32 37  1  0  0  0  0
 33 34  1  0  0  0  0
 33 36  1  0  0  0  0
 33 38  1  0  0  0  0
 34 35  2  0  0  0  0
 34 42  1  0  0  0  0
 36 39  1  0  0  0  0
 36 40  1  0  0  0  0
 36 41  1  0  0  0  0
 42 43  1  0  0  0  0
 42 44  1  0  0  0  0
 43 45  1  0  0  0  0
 43 46  1  0  0  0  0
 43 47  1  0  0  0  0
M  CHG  1  24  -1
M  END
$$$$

  -OEChem-05262216243D

 47 46  0     1  0  0  0  0  0999 V2000
   -0.1608   -5.7024    1.8449 C   0  0  0  0  0  0  0  0  0  0  0  0
    0.8242   -5.7783    2.5640 O   0  0  0  0  0  0  0  0  0  0  0  0
   -1.3519   -6.6103    2.0897 C   0  0  0  0  0  0  0  0  0  0  0  0
   -1.5903   -7.1684    1.1810 H   0  0  0  0  0  0  0  0  0  0  0  0
   -1.1286   -7.3196    2.8914 H   0  0  0  0  0  0  0  0  0  0  0  0
   -2.2196   -6.0120    2.3797 H   0  0  0  0  0  0  0  0  0  0  0  0
   -0.1979   -4.7993    0.8048 N   0  0  0  0  0  0  0  0  0  0  0  0
    0.7798   -3.7256    0.5946 C   0  0  2  0  0  0  0  0  0  0  0  0
    0.1671   -2.5934   -0.2549 C   0  0  0  0  0  0  0  0  0  0  0  0
   -0.7833   -2.8325   -0.9930 O   0  0  0  0  0  0  0  0  0  0  0  0
    2.0197   -4.2934   -0.1059 C   0  0  0  0  0  0  0  0  0  0  0  0
   -1.0744   -4.7135    0.2894 H   0  0  0  0  0  0  0  0  0  0  0  0
    1.0670   -3.3020    1.5631 H   0  0  0  0  0  0  0  0  0  0  0  0
    1.7459   -4.7223   -1.0751 H   0  0  0  0  0  0  0  0  0  0  0  0
    2.7616   -3.5062   -0.2698 H   0  0  0  0  0  0  0  0  0  0  0  0
    2.4799   -5.0766    0.5042 H   0  0  0  0  0  0  0  0  0  0  0  0
    0.7324   -1.3318   -0.2512 N   0  0  0  0  0  0  0  0  0  0  0  0
    0.0070   -0.1221   -0.6859 C   0  0  2  0  0  0  0  0  0  0  0  0
    1.0215    0.8855   -1.2772 C   0  0  0  0  0  0  0  0  0  0  0  0
    1.0250    2.0811   -1.0100 O   0  0  0  0  0  0  0  0  0  0  0  0
   -0.7385    0.4918    0.5239 C   0  0  0  0  0  0  0  0  0  0  0  0
   -1.8847   -0.3836    1.0609 C   0  0  0  0  0  0  0  0  0  0  0  0
   -2.5495    0.2801    2.2647 C   0  0  0  0  0  0  0  0  0  0  0  0
   -1.9087    0.2714    3.3458 O   0  5  0  0  0  0  0  0  0  0  0  0
   -3.6842    0.7931    2.1071 O   0  0  0  0  0  0  0  0  0  0  0  0
    1.4333   -1.1882    0.4707 H   0  0  0  0  0  0  0  0  0  0  0  0
   -0.7187   -0.3599   -1.4708 H   0  0  0  0  0  0  0  0  0  0  0  0
   -1.1684    1.4561    0.2299 H   0  0  0  0  0  0  0  0  0  0  0  0
   -0.0242    0.6857    1.3315 H   0  0  0  0  0  0  0  0  0  0  0  0
   -2.6250   -0.5516    0.2729 H   0  0  0  0  0  0  0  0  0  0  0  0
   -1.5101   -1.3565    1.3841 H   0  0  0  0  0  0  0  0  0  0  0  0
    1.9839    0.4169   -2.1524 N   0  0  0  0  0  0  0  0  0  0  0  0
    3.0036    1.2432   -2.8091 C   0  0  2  0  0  0  0  0  0  0  0  0
    3.5346    0.5923   -4.1032 C   0  0  0  0  0  0  0  0  0  0  0  0
    3.4069   -0.6123   -4.2959 O   0  0  0  0  0  0  0  0  0  0  0  0
    4.1577    1.4751   -1.8275 C   0  0  0  0  0  0  0  0  0  0  0  0
    1.9271   -0.5669   -2.4152 H   0  0  0  0  0  0  0  0  0  0  0  0
    2.5628    2.2075   -3.0827 H   0  0  0  0  0  0  0  0  0  0  0  0
    4.6068    0.5212   -1.5334 H   0  0  0  0  0  0  0  0  0  0  0  0
    4.9306    2.0992   -2.2854 H   0  0  0  0  0  0  0  0  0  0  0  0
    3.7966    1.9821   -0.9271 H   0  0  0  0  0  0  0  0  0  0  0  0
    4.1756    1.3649   -5.0551 N   0  0  0  0  0  0  0  0  0  0  0  0
    4.6860    0.8297   -6.3105 C   0  0  0  0  0  0  0  0  0  0  0  0
    4.2425    2.3633   -4.8800 H   0  0  0  0  0  0  0  0  0  0  0  0
    5.4222    0.0419   -6.1197 H   0  0  0  0  0  0  0  0  0  0  0  0
    3.8689    0.4127   -6.9083 H   0  0  0  0  0  0  0  0  0  0  0  0
    5.1699    1.6218   -6.8897 H   0  0  0  0  0  0  0  0  0  0  0  0
  1  2  2  0  0  0  0
  1  3  1  0  0  0  0
  1  7  1  0  0  0  0
  3  4  1  0  0  0  0
  3  5  1  0  0  0  0
  3  6  1  0  0  0  0
  7  8  1  0  0  0  0
  7 12  1  0  0  0  0
  8  9  1  0  0  0  0
  8 11  1  0  0  0  0
  8 13  1  0  0  0  0
  9 10  2  0  0  0  0
  9 17  1  0  0  0  0
 11 14  1  0  0  0  0
 11 15  1  0  0  0  0
 11 16  1  0  0  0  0
 17 18  1  0  0  0  0
 17 26  1  0  0  0  0
 18 19  1  0  0  0  0
 18 21  1  0  0  0  0
 18 27  1  0  0  0  0
 19 20  2  0  0  0  0
 19 32  1  0  0  0  0
 21 22  1  0  0  0  0
 21 28  1  0  0  0  0
 21 29  1  0  0  0  0
 22 23  1  0  0  0  0
 22 30  1  0  0  0  0
 22 31  1  0  0  0  0
 23 24  1  0  0  0  0
 23 25  2  0  0  0  0
 32 33  1  0  0  0  0
 32 37  1  0  0  0  0
 33 34  1  0  0  0  0
 33 36  1  0  0  0  0
 33 38  1  0  0  0  0
 34 35  2  0  0  0  0
 34 42  1  0  0  0  0
 36 39  1  0  0  0  0
 36 40  1  0  0  0  0
 36 41  1  0  0  0  0
 42 43  1  0  0  0  0
 42 44  1  0  0  0  0
 43 45  1  0  0  0  0
 43 46  1  0  0  0  0
 43 47  1  0  0  0  0
M  CHG  1  24  -1
M  END
$$$$

  -OEChem-05262216243D

 47 46  0     1  0  0  0  0  0999 V2000
   -0.1080   -5.6886    1.8730 C   0  0  0  0  0  0  0  0  0  0  0  0
    0.8716   -5.7407    2.6015 O   0  0  0  0  0  0  0  0  0  0  0  0
   -1.2808   -6.6224    2.1100 C   0  0  0  0  0  0  0  0  0  0  0  0
   -1.4977   -7.1894    1.2015 H   0  0  0  0  0  0  0  0  0  0  0  0
   -1.0492   -7.3234    2.9166 H   0  0  0  0  0  0  0  0  0  0  0  0
   -2.1650   -6.0436    2.3892 H   0  0  0  0  0  0  0  0  0  0  0  0
   -0.1522   -4.7941    0.8255 N   0  0  0  0  0  0  0  0  0  0  0  0
    0.8099   -3.7062    0.6137 C   0  0  2  0  0  0  0  0  0  0  0  0
    0.1859   -2.5857   -0.2437 C   0  0  0  0  0  0  0  0  0  0  0  0
   -0.7614   -2.8403   -0.9810 O   0  0  0  0  0  0  0  0  0  0  0  0
    2.0606   -4.2602   -0.0781 C   0  0  0  0  0  0  0  0  0  0  0  0
   -1.0259   -4.7279    0.3025 H   0  0  0  0  0  0  0  0  0  0  0  0
    1.0864   -3.2735    1.5814 H   0  0  0  0  0  0  0  0  0  0  0  0
    1.7973   -4.7025   -1.0441 H   0  0  0  0  0  0  0  0  0  0  0  0
    2.7897   -3.4622   -0.2466 H   0  0  0  0  0  0  0  0  0  0  0  0
    2.5312   -5.0301    0.5407 H   0  0  0  0  0  0  0  0  0  0  0  0
    0.7402   -1.3191   -0.2525 N   0  0  0  0  0  0  0  0  0  0  0  0
    0.0075   -0.1195   -0.6980 C   0  0  2  0  0  0  0  0  0  0  0  0
    1.0165    0.8868   -1.2971 C   0  0  0  0  0  0  0  0  0  0  0  0
    1.2231    1.9986   -0.8253 O   0  0  0  0  0  0  0  0  0  0  0  0
   -0.7599    0.5038    0.4928 C   0  0  0  0  0  0  0  0  0  0  0  0
   -1.9064   -0.3756    1.0205 C   0  0  0  0  0  0  0  0  0  0  0  0
   -2.5958    0.2958    2.2058 C   0  0  0  0  0  0  0  0  0  0  0  0
   -2.0612    0.1546    3.3341 O   0  5  0  0  0  0  0  0  0  0  0  0
   -3.6358    0.9629    1.9824 O   0  0  0  0  0  0  0  0  0  0  0  0
    1.4480   -1.1622    0.4598 H   0  0  0  0  0  0  0  0  0  0  0  0
   -0.7120   -0.3713   -1.4838 H   0  0  0  0  0  0  0  0  0  0  0  0
   -1.1880    1.4632    0.1811 H   0  0  0  0  0  0  0  0  0  0  0  0
   -0.0609    0.7092    1.3112 H   0  0  0  0  0  0  0  0  0  0  0  0
   -2.6345   -0.5577    0.2243 H   0  0  0  0  0  0  0  0  0  0  0  0
   -1.5275   -1.3428    1.3565 H   0  0  0  0  0  0  0  0  0  0  0  0
    1.7701    0.4968   -2.3888 N   0  0  0  0  0  0  0  0  0  0  0  0
    2.7590    1.3406   -3.0712 C   0  0  2  0  0  0  0  0  0  0  0  0
    2.9590    0.9354   -4.5464 C   0  0  0  0  0  0  0  0  0  0  0  0
    2.6604   -0.1894   -4.9328 O   0  0  0  0  0  0  0  0  0  0  0  0
    4.0883    1.2451   -2.3153 C   0  0  0  0  0  0  0  0  0  0  0  0
    1.5653   -0.4174   -2.7919 H   0  0  0  0  0  0  0  0  0  0  0  0
    2.4129    2.3796   -3.0618 H   0  0  0  0  0  0  0  0  0  0  0  0
    4.4520    0.2128   -2.3118 H   0  0  0  0  0  0  0  0  0  0  0  0
    4.8440    1.8804   -2.7866 H   0  0  0  0  0  0  0  0  0  0  0  0
    3.9613    1.5734   -1.2789 H   0  0  0  0  0  0  0  0  0  0  0  0
    3.4967    1.8390   -5.4459 N   0  0  0  0  0  0  0  0  0  0  0  0
    3.6939    1.5447   -6.8595 C   0  0  0  0  0  0  0  0  0  0  0  0
    3.6960    2.7749   -5.1050 H   0  0  0  0  0  0  0  0  0  0  0  0
    4.3519    0.6780   -6.9829 H   0  0  0  0  0  0  0  0  0  0  0  0
    2.7352    1.3326   -7.3443 H   0  0  0  0  0  0  0  0  0  0  0  0
    4.1543    2.4008   -7.3619 H   0  0  0  0  0  0  0  0  0  0  0  0
  1  2  2  0  0  0  0
  1  3  1  0  0  0  0
  1  7  1  0  0  0  0
  3  4  1  0  0  0  0
  3  5  1  0  0  0  0
  3  6  1  0  0  0  0
  7  8  1  0  0  0  0
  7 12  1  0  0  0  0
  8  9  1  0  0  0  0
  8 11  1  0  0  0  0
  8 13  1  0  0  0  0
  9 10  2  0  0  0  0
  9 17  1  0  0  0  0
 11 14  1  0  0  0  0
 11 15  1  0  0  0  0
 11 16  1  0  0  0  0
 17 18  1  0  0  0  0
 17 26  1  0  0  0  0
 18 19  1  0  0  0  0
 18 21  1  0  0  0  0
 18 27  1  0  0  0  0
 19 20  2  0  0  0  0
 19 32  1  0  0  0  0
 21 22  1  0  0  0  0
 21 28  1  0  0  0  0
 21 29  1  0  0  0  0
 22 23  1  0  0  0  0
 22 30  1  0  0  0  0
 22 31  1  0  0  0  0
 23 24  1  0  0  0  0
 23 25  2  0  0  0  0
 32 33  1  0  0  0  0
 32 37  1  0  0  0  0
 33 34  1  0  0  0  0
 33 36  1  0  0  0  0
 33 38  1  0  0  0  0
 34 35  2  0  0  0  0
 34 42  1  0  0  0  0
 36 39  1  0  0  0  0
 36 40  1  0  0  0  0
 36 41  1  0  0  0  0
 42 43  1  0  0  0  0
 42 44  1  0  0  0  0
 43 45  1  0  0  0  0
 43 46  1  0  0  0  0
 43 47  1  0  0  0  0
M  CHG  1  24  -1
M  END
$$$$

  -OEChem-05262216243D

 47 46  0     1  0  0  0  0  0999 V2000
   -0.0330   -5.6757    1.8721 C   0  0  0  0  0  0  0  0  0  0  0  0
    0.9716   -5.7356    2.5653 O   0  0  0  0  0  0  0  0  0  0  0  0
   -1.2025   -6.6022    2.1492 C   0  0  0  0  0  0  0  0  0  0  0  0
   -1.4095   -7.2163    1.2695 H   0  0  0  0  0  0  0  0  0  0  0  0
   -0.9732   -7.2584    2.9932 H   0  0  0  0  0  0  0  0  0  0  0  0
   -2.0914   -6.0142    2.3918 H   0  0  0  0  0  0  0  0  0  0  0  0
   -0.1095   -4.7789    0.8283 N   0  0  0  0  0  0  0  0  0  0  0  0
    0.8451   -3.6901    0.5887 C   0  0  2  0  0  0  0  0  0  0  0  0
    0.1990   -2.5776   -0.2631 C   0  0  0  0  0  0  0  0  0  0  0  0
   -0.7526   -2.8444   -0.9907 O   0  0  0  0  0  0  0  0  0  0  0  0
    2.0829   -4.2445   -0.1259 C   0  0  0  0  0  0  0  0  0  0  0  0
   -0.9999   -4.7102    0.3349 H   0  0  0  0  0  0  0  0  0  0  0  0
    1.1402   -3.2510    1.5480 H   0  0  0  0  0  0  0  0  0  0  0  0
    1.8012   -4.6893   -1.0855 H   0  0  0  0  0  0  0  0  0  0  0  0
    2.8077   -3.4462   -0.3105 H   0  0  0  0  0  0  0  0  0  0  0  0
    2.5670   -5.0123    0.4851 H   0  0  0  0  0  0  0  0  0  0  0  0
    0.7338   -1.3031   -0.2767 N   0  0  0  0  0  0  0  0  0  0  0  0
   -0.0161   -0.1146   -0.7180 C   0  0  2  0  0  0  0  0  0  0  0  0
    0.9762    0.9022   -1.3220 C   0  0  0  0  0  0  0  0  0  0  0  0
    1.4121    1.8600   -0.6934 O   0  0  0  0  0  0  0  0  0  0  0  0
   -0.7882    0.5107    0.4679 C   0  0  0  0  0  0  0  0  0  0  0  0
   -1.9246   -0.3771    1.0033 C   0  0  0  0  0  0  0  0  0  0  0  0
   -2.6217    0.2956    2.1839 C   0  0  0  0  0  0  0  0  0  0  0  0
   -2.2997   -0.0831    3.3377 O   0  5  0  0  0  0  0  0  0  0  0  0
   -3.4430    1.2118    1.9320 O   0  0  0  0  0  0  0  0  0  0  0  0
    1.4548   -1.1336    0.4191 H   0  0  0  0  0  0  0  0  0  0  0  0
   -0.7368   -0.3774   -1.4996 H   0  0  0  0  0  0  0  0  0  0  0  0
   -1.2219    1.4653    0.1487 H   0  0  0  0  0  0  0  0  0  0  0  0
   -0.0919    0.7265    1.2858 H   0  0  0  0  0  0  0  0  0  0  0  0
   -2.6542   -0.5709    0.2117 H   0  0  0  0  0  0  0  0  0  0  0  0
   -1.5336   -1.3395    1.3403 H   0  0  0  0  0  0  0  0  0  0  0  0
    1.4944    0.6596   -2.5805 N   0  0  0  0  0  0  0  0  0  0  0  0
    2.4671    1.5185   -3.2670 C   0  0  2  0  0  0  0  0  0  0  0  0
    2.3721    1.3990   -4.8022 C   0  0  0  0  0  0  0  0  0  0  0  0
    1.8766    0.4056   -5.3233 O   0  0  0  0  0  0  0  0  0  0  0  0
    3.8741    1.1364   -2.7949 C   0  0  0  0  0  0  0  0  0  0  0  0
    1.1237   -0.1407   -3.0926 H   0  0  0  0  0  0  0  0  0  0  0  0
    2.2706    2.5643   -3.0078 H   0  0  0  0  0  0  0  0  0  0  0  0
    4.0870    0.0901   -3.0369 H   0  0  0  0  0  0  0  0  0  0  0  0
    4.6254    1.7676   -3.2787 H   0  0  0  0  0  0  0  0  0  0  0  0
    3.9605    1.2681   -1.7115 H   0  0  0  0  0  0  0  0  0  0  0  0
    2.8629    2.4116   -5.6071 N   0  0  0  0  0  0  0  0  0  0  0  0
    2.7806    2.3898   -7.0617 C   0  0  0  0  0  0  0  0  0  0  0  0
    3.2237    3.2415   -5.1456 H   0  0  0  0  0  0  0  0  0  0  0  0
    3.2941    1.5092   -7.4618 H   0  0  0  0  0  0  0  0  0  0  0  0
    1.7348    2.3662   -7.3850 H   0  0  0  0  0  0  0  0  0  0  0  0
    3.2528    3.2841   -7.4795 H   0  0  0  0  0  0  0  0  0  0  0  0
  1  2  2  0  0  0  0
  1  3  1  0  0  0  0
  1  7  1  0  0  0  0
  3  4  1  0  0  0  0
  3  5  1  0  0  0  0
  3  6  1  0  0  0  0
  7  8  1  0  0  0  0
  7 12  1  0  0  0  0
  8  9  1  0  0  0  0
  8 11  1  0  0  0  0
  8 13  1  0  0  0  0
  9 10  2  0  0  0  0
  9 17  1  0  0  0  0
 11 14  1  0  0  0  0
 11 15  1  0  0  0  0
 11 16  1  0  0  0  0
 17 18  1  0  0  0  0
 17 26  1  0  0  0  0
 18 19  1  0  0  0  0
 18 21  1  0  0  0  0
 18 27  1  0  0  0  0
 19 20  2  0  0  0  0
 19 32  1  0  0  0  0
 21 22  1  0  0  0  0
 21 28  1  0  0  0  0
 21 29  1  0  0  0  0
 22 23  1  0  0  0  0
 22 30  1  0  0  0  0
 22 31  1  0  0  0  0
 23 24  1  0  0  0  0
 23 25  2  0  0  0  0
 32 33  1  0  0  0  0
 32 37  1  0  0  0  0
 33 34  1  0  0  0  0
 33 36  1  0  0  0  0
 33 38  1  0  0  0  0
 34 35  2  0  0  0  0
 34 42  1  0  0  0  0
 36 39  1  0  0  0  0
 36 40  1  0  0  0  0
 36 41  1  0  0  0  0
 42 43  1  0  0  0  0
 42 44  1  0  0  0  0
 43 45  1  0  0  0  0
 43 46  1  0  0  0  0
 43 47  1  0  0  0  0
M  CHG  1  24  -1
M  END
$$$$

  -OEChem-05262216243D

 47 46  0     1  0  0  0  0  0999 V2000
   -0.0100   -5.6500    1.9120 C   0  0  0  0  0  0  0  0  0  0  0  0
    0.9830   -5.6808    2.6238 O   0  0  0  0  0  0  0  0  0  0  0  0
   -1.1784   -6.5758    2.1967 C   0  0  0  0  0  0  0  0  0  0  0  0
   -1.3728   -7.2102    1.3286 H   0  0  0  0  0  0  0  0  0  0  0  0
   -0.9560   -7.2127    3.0572 H   0  0  0  0  0  0  0  0  0  0  0  0
   -2.0729   -5.9870    2.4161 H   0  0  0  0  0  0  0  0  0  0  0  0
   -0.0728   -4.7888    0.8379 N   0  0  0  0  0  0  0  0  0  0  0  0
    0.8726   -3.6938    0.5912 C   0  0  2  0  0  0  0  0  0  0  0  0
    0.2208   -2.5947   -0.2731 C   0  0  0  0  0  0  0  0  0  0  0  0
   -0.7367   -2.8709   -0.9897 O   0  0  0  0  0  0  0  0  0  0  0  0
    2.1180   -4.2461   -0.1105 C   0  0  0  0  0  0  0  0  0  0  0  0
   -0.9588   -4.7354    0.3348 H   0  0  0  0  0  0  0  0  0  0  0  0
    1.1605   -3.2410    1.5463 H   0  0  0  0  0  0  0  0  0  0  0  0
    1.8444   -4.7085   -1.0642 H   0  0  0  0  0  0  0  0  0  0  0  0
    2.8353   -3.4432   -0.3048 H   0  0  0  0  0  0  0  0  0  0  0  0
    2.6069   -4.9992    0.5150 H   0  0  0  0  0  0  0  0  0  0  0  0
    0.7476   -1.3173   -0.2950 N   0  0  0  0  0  0  0  0  0  0  0  0
   -0.0017   -0.1355   -0.7507 C   0  0  2  0  0  0  0  0  0  0  0  0
    0.9853    0.8834   -1.3556 C   0  0  0  0  0  0  0  0  0  0  0  0
    1.6407    1.6446   -0.6524 O   0  0  0  0  0  0  0  0  0  0  0  0
   -0.7828    0.5086    0.4172 C   0  0  0  0  0  0  0  0  0  0  0  0
   -1.9241   -0.3742    0.9552 C   0  0  0  0  0  0  0  0  0  0  0  0
   -2.6496    0.2964    2.1225 C   0  0  0  0  0  0  0  0  0  0  0  0
   -2.6705   -0.3152    3.2197 O   0  5  0  0  0  0  0  0  0  0  0  0
   -3.1567    1.4289    1.9235 O   0  0  0  0  0  0  0  0  0  0  0  0
    1.4837   -1.1374    0.3825 H   0  0  0  0  0  0  0  0  0  0  0  0
   -0.7174   -0.4114   -1.5319 H   0  0  0  0  0  0  0  0  0  0  0  0
   -1.2107    1.4584    0.0773 H   0  0  0  0  0  0  0  0  0  0  0  0
   -0.0943    0.7375    1.2381 H   0  0  0  0  0  0  0  0  0  0  0  0
   -2.6439   -0.5812    0.1583 H   0  0  0  0  0  0  0  0  0  0  0  0
   -1.5275   -1.3304    1.3036 H   0  0  0  0  0  0  0  0  0  0  0  0
    1.2785    0.8268   -2.7054 N   0  0  0  0  0  0  0  0  0  0  0  0
    2.2036    1.7335   -3.3959 C   0  0  2  0  0  0  0  0  0  0  0  0
    1.8045    1.9647   -4.8680 C   0  0  0  0  0  0  0  0  0  0  0  0
    1.1175    1.1431   -5.4653 O   0  0  0  0  0  0  0  0  0  0  0  0
    3.6140    1.1420   -3.3168 C   0  0  0  0  0  0  0  0  0  0  0  0
    0.7265    0.1892   -3.2787 H   0  0  0  0  0  0  0  0  0  0  0  0
    2.1934    2.7091   -2.8984 H   0  0  0  0  0  0  0  0  0  0  0  0
    3.6485    0.1688   -3.8165 H   0  0  0  0  0  0  0  0  0  0  0  0
    4.3364    1.8079   -3.7978 H   0  0  0  0  0  0  0  0  0  0  0  0
    3.9111    1.0084   -2.2720 H   0  0  0  0  0  0  0  0  0  0  0  0
    2.2349    3.0990   -5.5332 N   0  0  0  0  0  0  0  0  0  0  0  0
    1.8674    3.4081   -6.9090 C   0  0  0  0  0  0  0  0  0  0  0  0
    2.7547    3.7866   -4.9957 H   0  0  0  0  0  0  0  0  0  0  0  0
    2.2040    2.6136   -7.5831 H   0  0  0  0  0  0  0  0  0  0  0  0
    0.7814    3.5130   -7.0007 H   0  0  0  0  0  0  0  0  0  0  0  0
    2.3335    4.3470   -7.2224 H   0  0  0  0  0  0  0  0  0  0  0  0
  1  2  2  0  0  0  0
  1  3  1  0  0  0  0
  1  7  1  0  0  0  0
  3  4  1  0  0  0  0
  3  5  1  0  0  0  0
  3  6  1  0  0  0  0
  7  8  1  0  0  0  0
  7 12  1  0  0  0  0
  8  9  1  0  0  0  0
  8 11  1  0  0  0  0
  8 13  1  0  0  0  0
  9 10  2  0  0  0  0
  9 17  1  0  0  0  0
 11 14  1  0  0  0  0
 11 15  1  0  0  0  0
 11 16  1  0  0  0  0
 17 18  1  0  0  0  0
 17 26  1  0  0  0  0
 18 19  1  0  0  0  0
 18 21  1  0  0  0  0
 18 27  1  0  0  0  0
 19 20  2  0  0  0  0
 19 32  1  0  0  0  0
 21 22  1  0  0  0  0
 21 28  1  0  0  0  0
 21 29  1  0  0  0  0
 22 23  1  0  0  0  0
 22 30  1  0  0  0  0
 22 31  1  0  0  0  0
 23 24  1  0  0  0  0
 23 25  2  0  0  0  0
 32 33  1  0  0  0  0
 32 37  1  0  0  0  0
 33 34  1  0  0  0  0
 33 36  1  0  0  0  0
 33 38  1  0  0  0  0
 34 35  2  0  0  0  0
 34 42  1  0  0  0  0
 36 39  1  0  0  0  0
 36 40  1  0  0  0  0
 36 41  1  0  0  0  0
 42 43  1  0  0  0  0
 42 44  1  0  0  0  0
 43 45  1  0  0  0  0
 43 46  1  0  0  0  0
 43 47  1  0  0  0  0
M  CHG  1  24  -1
M  END
$$$$

  -OEChem-05262216243D

 47 46  0     1  0  0  0  0  0999 V2000
   -0.0031   -5.6498    1.8702 C   0  0  0  0  0  0  0  0  0  0  0  0
    1.0178   -5.7038    2.5395 O   0  0  0  0  0  0  0  0  0  0  0  0
   -1.1760   -6.5542    2.2017 C   0  0  0  0  0  0  0  0  0  0  0  0
   -1.4653   -7.1303    1.3195 H   0  0  0  0  0  0  0  0  0  0  0  0
   -0.9052   -7.2474    3.0030 H   0  0  0  0  0  0  0  0  0  0  0  0
   -2.0272   -5.9516    2.5297 H   0  0  0  0  0  0  0  0  0  0  0  0
   -0.0968   -4.7780    0.8070 N   0  0  0  0  0  0  0  0  0  0  0  0
    0.8618   -3.7047    0.5197 C   0  0  2  0  0  0  0  0  0  0  0  0
    0.2004   -2.5983   -0.3270 C   0  0  0  0  0  0  0  0  0  0  0  0
   -0.7703   -2.8670   -1.0289 O   0  0  0  0  0  0  0  0  0  0  0  0
    2.0713   -4.2837   -0.2224 C   0  0  0  0  0  0  0  0  0  0  0  0
   -1.0003   -4.7077    0.3385 H   0  0  0  0  0  0  0  0  0  0  0  0
    1.1925   -3.2521    1.4608 H   0  0  0  0  0  0  0  0  0  0  0  0
    1.7564   -4.7448   -1.1639 H   0  0  0  0  0  0  0  0  0  0  0  0
    2.7961   -3.4949   -0.4451 H   0  0  0  0  0  0  0  0  0  0  0  0
    2.5672   -5.0437    0.3891 H   0  0  0  0  0  0  0  0  0  0  0  0
    0.7210   -1.3185   -0.3328 N   0  0  0  0  0  0  0  0  0  0  0  0
   -0.0294   -0.1318   -0.7710 C   0  0  2  0  0  0  0  0  0  0  0  0
    0.9495    0.9013   -1.3621 C   0  0  0  0  0  0  0  0  0  0  0  0
    1.7881    1.4514   -0.6555 O   0  0  0  0  0  0  0  0  0  0  0  0
   -0.7941    0.5023    0.4103 C   0  0  0  0  0  0  0  0  0  0  0  0
   -1.9294   -0.3816    0.9525 C   0  0  0  0  0  0  0  0  0  0  0  0
   -2.6193    0.3030    2.1299 C   0  0  0  0  0  0  0  0  0  0  0  0
   -3.4794    1.1805    1.8697 O   0  5  0  0  0  0  0  0  0  0  0  0
   -2.2551   -0.0249    3.2864 O   0  0  0  0  0  0  0  0  0  0  0  0
    1.4700   -1.1433    0.3324 H   0  0  0  0  0  0  0  0  0  0  0  0
   -0.7506   -0.4004   -1.5496 H   0  0  0  0  0  0  0  0  0  0  0  0
   -1.2261    1.4559    0.0871 H   0  0  0  0  0  0  0  0  0  0  0  0
   -0.0945    0.7201    1.2249 H   0  0  0  0  0  0  0  0  0  0  0  0
   -2.6608   -0.5771    0.1629 H   0  0  0  0  0  0  0  0  0  0  0  0
   -1.5399   -1.3433    1.2942 H   0  0  0  0  0  0  0  0  0  0  0  0
    1.0182    1.0888   -2.7301 N   0  0  0  0  0  0  0  0  0  0  0  0
    1.9281    2.0287   -3.3962 C   0  0  2  0  0  0  0  0  0  0  0  0
    1.3421    2.5756   -4.7144 C   0  0  0  0  0  0  0  0  0  0  0  0
    0.4742    1.9539   -5.3175 O   0  0  0  0  0  0  0  0  0  0  0  0
    3.2547    1.3110   -3.6645 C   0  0  0  0  0  0  0  0  0  0  0  0
    0.3083    0.6345   -3.3037 H   0  0  0  0  0  0  0  0  0  0  0  0
    2.1081    2.8863   -2.7393 H   0  0  0  0  0  0  0  0  0  0  0  0
    3.0961    0.4488   -4.3202 H   0  0  0  0  0  0  0  0  0  0  0  0
    3.9675    1.9885   -4.1440 H   0  0  0  0  0  0  0  0  0  0  0  0
    3.6928    0.9584   -2.7254 H   0  0  0  0  0  0  0  0  0  0  0  0
    1.8058    3.7702   -5.2363 N   0  0  0  0  0  0  0  0  0  0  0  0
    1.2699    4.3764   -6.4484 C   0  0  0  0  0  0  0  0  0  0  0  0
    2.4805    4.2901   -4.6828 H   0  0  0  0  0  0  0  0  0  0  0  0
    1.3398    3.6787   -7.2894 H   0  0  0  0  0  0  0  0  0  0  0  0
    0.2203    4.6544   -6.3067 H   0  0  0  0  0  0  0  0  0  0  0  0
    1.8363    5.2777   -6.7013 H   0  0  0  0  0  0  0  0  0  0  0  0
  1  2  2  0  0  0  0
  1  3  1  0  0  0  0
  1  7  1  0  0  0  0
  3  4  1  0  0  0  0
  3  5  1  0  0  0  0
  3  6  1  0  0  0  0
  7  8  1  0  0  0  0
  7 12  1  0  0  0  0
  8  9  1  0  0  0  0
  8 11  1  0  0  0  0
  8 13  1  0  0  0  0
  9 10  2  0  0  0  0
  9 17  1  0  0  0  0
 11 14  1  0  0  0  0
 11 15  1  0  0  0  0
 11 16  1  0  0  0  0
 17 18  1  0  0  0  0
 17 26  1  0  0  0  0
 18 19  1  0  0  0  0
 18 21  1  0  0  0  0
 18 27  1  0  0  0  0
 19 20  2  0  0  0  0
 19 32  1  0  0  0  0
 21 22  1  0  0  0  0
 21 28  1  0  0  0  0
 21 29  1  0  0  0  0
 22 23  1  0  0  0  0
 22 30  1  0  0  0  0
 22 31  1  0  0  0  0
 23 24  1  0  0  0  0
 23 25  2  0  0  0  0
 32 33  1  0  0  0  0
 32 37  1  0  0  0  0
 33 34  1  0  0  0  0
 33 36  1  0  0  0  0
 33 38  1  0  0  0  0
 34 35  2  0  0  0  0
 34 42  1  0  0  0  0
 36 39  1  0  0  0  0
 36 40  1  0  0  0  0
 36 41  1  0  0  0  0
 42 43  1  0  0  0  0
 42 44  1  0  0  0  0
 43 45  1  0  0  0  0
 43 46  1  0  0  0  0
 43 47  1  0  0  0  0
M  CHG  1  24  -1
M  END
$$$$

  -OEChem-05262216243D

 47 46  0     1  0  0  0  0  0999 V2000
    0.0410   -5.6698    1.8222 C   0  0  0  0  0  0  0  0  0  0  0  0
    1.0691   -5.7208    2.4806 O   0  0  0  0  0  0  0  0  0  0  0  0
   -1.1176   -6.5934    2.1512 C   0  0  0  0  0  0  0  0  0  0  0  0
   -1.3905   -7.1791    1.2703 H   0  0  0  0  0  0  0  0  0  0  0  0
   -0.8395   -7.2776    2.9574 H   0  0  0  0  0  0  0  0  0  0  0  0
   -1.9818   -6.0052    2.4707 H   0  0  0  0  0  0  0  0  0  0  0  0
   -0.0726   -4.7863    0.7708 N   0  0  0  0  0  0  0  0  0  0  0  0
    0.8713   -3.6996    0.4844 C   0  0  2  0  0  0  0  0  0  0  0  0
    0.1800   -2.5817   -0.3233 C   0  0  0  0  0  0  0  0  0  0  0  0
   -0.8086   -2.8462   -1.0014 O   0  0  0  0  0  0  0  0  0  0  0  0
    2.0644   -4.2559   -0.2997 C   0  0  0  0  0  0  0  0  0  0  0  0
   -0.9821   -4.7187    0.3135 H   0  0  0  0  0  0  0  0  0  0  0  0
    1.2232   -3.2646    1.4262 H   0  0  0  0  0  0  0  0  0  0  0  0
    1.7268   -4.7036   -1.2396 H   0  0  0  0  0  0  0  0  0  0  0  0
    2.7763   -3.4573   -0.5287 H   0  0  0  0  0  0  0  0  0  0  0  0
    2.5830   -5.0220    0.2846 H   0  0  0  0  0  0  0  0  0  0  0  0
    0.6938   -1.2994   -0.3280 N   0  0  0  0  0  0  0  0  0  0  0  0
   -0.0523   -0.1105   -0.7678 C   0  0  2  0  0  0  0  0  0  0  0  0
    0.9243    0.9270   -1.3530 C   0  0  0  0  0  0  0  0  0  0  0  0
    1.9042    1.2926   -0.7105 O   0  0  0  0  0  0  0  0  0  0  0  0
   -0.8090    0.5360    0.4104 C   0  0  0  0  0  0  0  0  0  0  0  0
   -1.9477   -0.3359    0.9629 C   0  0  0  0  0  0  0  0  0  0  0  0
   -2.6282    0.3636    2.1374 C   0  0  0  0  0  0  0  0  0  0  0  0
   -3.4383    1.2862    1.8719 O   0  5  0  0  0  0  0  0  0  0  0  0
   -2.3031    0.0052    3.2964 O   0  0  0  0  0  0  0  0  0  0  0  0
    1.4790   -1.1248    0.2945 H   0  0  0  0  0  0  0  0  0  0  0  0
   -0.7723   -0.3803   -1.5471 H   0  0  0  0  0  0  0  0  0  0  0  0
   -1.2365    1.4900    0.0819 H   0  0  0  0  0  0  0  0  0  0  0  0
   -0.1040    0.7556    1.2201 H   0  0  0  0  0  0  0  0  0  0  0  0
   -2.6836   -0.5316    0.1778 H   0  0  0  0  0  0  0  0  0  0  0  0
   -1.5616   -1.2978    1.3079 H   0  0  0  0  0  0  0  0  0  0  0  0
    0.7963    1.3502   -2.6626 N   0  0  0  0  0  0  0  0  0  0  0  0
    1.6746    2.3351   -3.3044 C   0  0  2  0  0  0  0  0  0  0  0  0
    0.9508    3.1298   -4.4099 C   0  0  0  0  0  0  0  0  0  0  0  0
   -0.0268    2.6575   -4.9797 O   0  0  0  0  0  0  0  0  0  0  0  0
    2.8830    1.5986   -3.8892 C   0  0  0  0  0  0  0  0  0  0  0  0
   -0.0388    1.0627   -3.1722 H   0  0  0  0  0  0  0  0  0  0  0  0
    2.0186    3.0568   -2.5560 H   0  0  0  0  0  0  0  0  0  0  0  0
    2.5573    0.8606   -4.6293 H   0  0  0  0  0  0  0  0  0  0  0  0
    3.5646    2.3035   -4.3744 H   0  0  0  0  0  0  0  0  0  0  0  0
    3.4307    1.0791   -3.0966 H   0  0  0  0  0  0  0  0  0  0  0  0
    1.4132    4.3803   -4.7787 N   0  0  0  0  0  0  0  0  0  0  0  0
    0.7489    5.2178   -5.7689 C   0  0  0  0  0  0  0  0  0  0  0  0
    2.1806    4.7706   -4.2396 H   0  0  0  0  0  0  0  0  0  0  0  0
    0.6666    4.6910   -6.7254 H   0  0  0  0  0  0  0  0  0  0  0  0
   -0.2559    5.4890   -5.4284 H   0  0  0  0  0  0  0  0  0  0  0  0
    1.3210    6.1363   -5.9302 H   0  0  0  0  0  0  0  0  0  0  0  0
  1  2  2  0  0  0  0
  1  3  1  0  0  0  0
  1  7  1  0  0  0  0
  3  4  1  0  0  0  0
  3  5  1  0  0  0  0
  3  6  1  0  0  0  0
  7  8  1  0  0  0  0
  7 12  1  0  0  0  0
  8  9  1  0  0  0  0
  8 11  1  0  0  0  0
  8 13  1  0  0  0  0
  9 10  2  0  0  0  0
  9 17  1  0  0  0  0
 11 14  1  0  0  0  0
 11 15  1  0  0  0  0
 11 16  1  0  0  0  0
 17 18  1  0  0  0  0
 17 26  1  0  0  0  0
 18 19  1  0  0  0  0
 18 21  1  0  0  0  0
 18 27  1  0  0  0  0
 19 20  2  0  0  0  0
 19 32  1  0  0  0  0
 21 22  1  0  0  0  0
 21 28  1  0  0  0  0
 21 29  1  0  0  0  0
 22 23  1  0  0  0  0
 22 30  1  0  0  0  0
 22 31  1  0  0  0  0
 23 24  1  0  0  0  0
 23 25  2  0  0  0  0
 32 33  1  0  0  0  0
 32 37  1  0  0  0  0
 33 34  1  0  0  0  0
 33 36  1  0  0  0  0
 33 38  1  0  0  0  0
 34 35  2  0  0  0  0
 34 42  1  0  0  0  0
 36 39  1  0  0  0  0
 36 40  1  0  0  0  0
 36 41  1  0  0  0  0
 42 43  1  0  0  0  0
 42 44  1  0  0  0  0
 43 45  1  0  0  0  0
 43 46  1  0  0  0  0
 43 47  1  0  0  0  0
M  CHG  1  24  -1
M  END
$$$$

  -OEChem-05262216243D

 47 46  0     1  0  0  0  0  0999 V2000
    0.0635   -5.6875    1.7792 C   0  0  0  0  0  0  0  0  0  0  0  0
    1.1003   -5.7441    2.4234 O   0  0  0  0  0  0  0  0  0  0  0  0
   -1.0945   -6.6076    2.1206 C   0  0  0  0  0  0  0  0  0  0  0  0
   -1.3815   -7.1913    1.2425 H   0  0  0  0  0  0  0  0  0  0  0  0
   -0.8085   -7.2935    2.9226 H   0  0  0  0  0  0  0  0  0  0  0  0
   -1.9518   -6.0159    2.4521 H   0  0  0  0  0  0  0  0  0  0  0  0
   -0.0632   -4.7968    0.7357 N   0  0  0  0  0  0  0  0  0  0  0  0
    0.8710   -3.7001    0.4544 C   0  0  2  0  0  0  0  0  0  0  0  0
    0.1614   -2.5735   -0.3253 C   0  0  0  0  0  0  0  0  0  0  0  0
   -0.8474   -2.8289   -0.9770 O   0  0  0  0  0  0  0  0  0  0  0  0
    2.0584   -4.2368   -0.3527 C   0  0  0  0  0  0  0  0  0  0  0  0
   -0.9813   -4.7211    0.2973 H   0  0  0  0  0  0  0  0  0  0  0  0
    1.2313   -3.2771    1.3987 H   0  0  0  0  0  0  0  0  0  0  0  0
    1.7128   -4.6749   -1.2943 H   0  0  0  0  0  0  0  0  0  0  0  0
    2.7621   -3.4304   -0.5805 H   0  0  0  0  0  0  0  0  0  0  0  0
    2.5900   -5.0063    0.2154 H   0  0  0  0  0  0  0  0  0  0  0  0
    0.6769   -1.2921   -0.3282 N   0  0  0  0  0  0  0  0  0  0  0  0
   -0.0559   -0.0961   -0.7714 C   0  0  2  0  0  0  0  0  0  0  0  0
    0.9252    0.9415   -1.3501 C   0  0  0  0  0  0  0  0  0  0  0  0
    2.0133    1.1363   -0.8148 O   0  0  0  0  0  0  0  0  0  0  0  0
   -0.8061    0.5616    0.4036 C   0  0  0  0  0  0  0  0  0  0  0  0
   -1.9555   -0.2931    0.9599 C   0  0  0  0  0  0  0  0  0  0  0  0
   -2.6260    0.4213    2.1314 C   0  0  0  0  0  0  0  0  0  0  0  0
   -3.3743    1.3941    1.8636 O   0  5  0  0  0  0  0  0  0  0  0  0
   -2.3553    0.0223    3.2909 O   0  0  0  0  0  0  0  0  0  0  0  0
    1.4977   -1.1254    0.2493 H   0  0  0  0  0  0  0  0  0  0  0  0
   -0.7749   -0.3621   -1.5529 H   0  0  0  0  0  0  0  0  0  0  0  0
   -1.2226    1.5197    0.0729 H   0  0  0  0  0  0  0  0  0  0  0  0
   -0.0979    0.7743    1.2122 H   0  0  0  0  0  0  0  0  0  0  0  0
   -2.6951   -0.4804    0.1763 H   0  0  0  0  0  0  0  0  0  0  0  0
   -1.5819   -1.2591    1.3080 H   0  0  0  0  0  0  0  0  0  0  0  0
    0.6378    1.5982   -2.5321 N   0  0  0  0  0  0  0  0  0  0  0  0
    1.4841    2.6390   -3.1275 C   0  0  2  0  0  0  0  0  0  0  0  0
    0.6649    3.6517   -3.9527 C   0  0  0  0  0  0  0  0  0  0  0  0
   -0.3928    3.3181   -4.4753 O   0  0  0  0  0  0  0  0  0  0  0  0
    2.5349    1.9652   -4.0146 C   0  0  0  0  0  0  0  0  0  0  0  0
   -0.2917    1.4653   -2.9301 H   0  0  0  0  0  0  0  0  0  0  0  0
    1.9877    3.1970   -2.3310 H   0  0  0  0  0  0  0  0  0  0  0  0
    2.0508    1.3955   -4.8143 H   0  0  0  0  0  0  0  0  0  0  0  0
    3.1911    2.7144   -4.4669 H   0  0  0  0  0  0  0  0  0  0  0  0
    3.1499    1.2806   -3.4222 H   0  0  0  0  0  0  0  0  0  0  0  0
    1.1336    4.9411   -4.1293 N   0  0  0  0  0  0  0  0  0  0  0  0
    0.3947    5.9672   -4.8532 C   0  0  0  0  0  0  0  0  0  0  0  0
    1.9750    5.2040   -3.6248 H   0  0  0  0  0  0  0  0  0  0  0  0
    0.1801    5.6365   -5.8750 H   0  0  0  0  0  0  0  0  0  0  0  0
   -0.5510    6.1866   -4.3466 H   0  0  0  0  0  0  0  0  0  0  0  0
    0.9825    6.8886   -4.9062 H   0  0  0  0  0  0  0  0  0  0  0  0
  1  2  2  0  0  0  0
  1  3  1  0  0  0  0
  1  7  1  0  0  0  0
  3  4  1  0  0  0  0
  3  5  1  0  0  0  0
  3  6  1  0  0  0  0
  7  8  1  0  0  0  0
  7 12  1  0  0  0  0
  8  9  1  0  0  0  0
  8 11  1  0  0  0  0
  8 13  1  0  0  0  0
  9 10  2  0  0  0  0
  9 17  1  0  0  0  0
 11 14  1  0  0  0  0
 11 15  1  0  0  0  0
 11 16  1  0  0  0  0
 17 18  1  0  0  0  0
 17 26  1  0  0  0  0
 18 19  1  0  0  0  0
 18 21  1  0  0  0  0
 18 27  1  0  0  0  0
 19 20  2  0  0  0  0
 19 32  1  0  0  0  0
 21 22  1  0  0  0  0
 21 28  1  0  0  0  0
 21 29  1  0  0  0  0
 22 23  1  0  0  0  0
 22 30  1  0  0  0  0
 22 31  1  0  0  0  0
 23 24  1  0  0  0  0
 23 25  2  0  0  0  0
 32 33  1  0  0  0  0
 32 37  1  0  0  0  0
 33 34  1  0  0  0  0
 33 36  1  0  0  0  0
 33 38  1  0  0  0  0
 34 35  2  0  0  0  0
 34 42  1  0  0  0  0
 36 39  1  0  0  0  0
 36 40  1  0  0  0  0
 36 41  1  0  0  0  0
 42 43  1  0  0  0  0
 42 44  1  0  0  0  0
 43 45  1  0  0  0  0
 43 46  1  0  0  0  0
 43 47  1  0  0  0  0
M  CHG  1  24  -1
M  END
$$$$

  -OEChem-05262216243D

 47 46  0     1  0  0  0  0  0999 V2000
    0.0782   -5.6974    1.7391 C   0  0  0  0  0  0  0  0  0  0  0  0
    1.1301   -5.7650    2.3574 O   0  0  0  0  0  0  0  0  0  0  0  0
   -1.0699   -6.6249    2.0915 C   0  0  0  0  0  0  0  0  0  0  0  0
   -1.3770   -7.1912    1.2090 H   0  0  0  0  0  0  0  0  0  0  0  0
   -0.7640   -7.3258    2.8731 H   0  0  0  0  0  0  0  0  0  0  0  0
   -1.9196   -6.0409    2.4545 H   0  0  0  0  0  0  0  0  0  0  0  0
   -0.0748   -4.7884    0.7150 N   0  0  0  0  0  0  0  0  0  0  0  0
    0.8540   -3.6889    0.4290 C   0  0  2  0  0  0  0  0  0  0  0  0
    0.1333   -2.5528   -0.3256 C   0  0  0  0  0  0  0  0  0  0  0  0
   -0.8941   -2.7956   -0.9525 O   0  0  0  0  0  0  0  0  0  0  0  0
    2.0281   -4.2155   -0.4036 C   0  0  0  0  0  0  0  0  0  0  0  0
   -1.0025   -4.7061    0.2984 H   0  0  0  0  0  0  0  0  0  0  0  0
    1.2296   -3.2768    1.3719 H   0  0  0  0  0  0  0  0  0  0  0  0
    1.6684   -4.6279   -1.3516 H   0  0  0  0  0  0  0  0  0  0  0  0
    2.7353   -3.4089   -0.6196 H   0  0  0  0  0  0  0  0  0  0  0  0
    2.5602   -5.0025    0.1397 H   0  0  0  0  0  0  0  0  0  0  0  0
    0.6574   -1.2753   -0.3286 N   0  0  0  0  0  0  0  0  0  0  0  0
   -0.0596   -0.0711   -0.7751 C   0  0  2  0  0  0  0  0  0  0  0  0
    0.9275    0.9632   -1.3513 C   0  0  0  0  0  0  0  0  0  0  0  0
    2.0911    1.0047   -0.9585 O   0  0  0  0  0  0  0  0  0  0  0  0
   -0.7968    0.5922    0.4049 C   0  0  0  0  0  0  0  0  0  0  0  0
   -1.9535   -0.2501    0.9639 C   0  0  0  0  0  0  0  0  0  0  0  0
   -2.6081    0.4712    2.1397 C   0  0  0  0  0  0  0  0  0  0  0  0
   -3.3653    1.4382    1.8759 O   0  5  0  0  0  0  0  0  0  0  0  0
   -2.3060    0.0912    3.2981 O   0  0  0  0  0  0  0  0  0  0  0  0
    1.5088   -1.1210    0.2062 H   0  0  0  0  0  0  0  0  0  0  0  0
   -0.7804   -0.3295   -1.5574 H   0  0  0  0  0  0  0  0  0  0  0  0
   -1.2042    1.5565    0.0804 H   0  0  0  0  0  0  0  0  0  0  0  0
   -0.0823    0.7933    1.2108 H   0  0  0  0  0  0  0  0  0  0  0  0
   -2.6984   -0.4279    0.1828 H   0  0  0  0  0  0  0  0  0  0  0  0
   -1.5900   -1.2208    1.3094 H   0  0  0  0  0  0  0  0  0  0  0  0
    0.5272    1.8377   -2.3441 N   0  0  0  0  0  0  0  0  0  0  0  0
    1.3615    2.9205   -2.8782 C   0  0  2  0  0  0  0  0  0  0  0  0
    0.5149    4.1008   -3.3966 C   0  0  0  0  0  0  0  0  0  0  0  0
   -0.6046    3.9059   -3.8562 O   0  0  0  0  0  0  0  0  0  0  0  0
    2.2283    2.3581   -4.0088 C   0  0  0  0  0  0  0  0  0  0  0  0
   -0.4598    1.8369   -2.6014 H   0  0  0  0  0  0  0  0  0  0  0  0
    2.0097    3.3038   -2.0831 H   0  0  0  0  0  0  0  0  0  0  0  0
    1.5984    1.9666   -4.8141 H   0  0  0  0  0  0  0  0  0  0  0  0
    2.8751    3.1393   -4.4191 H   0  0  0  0  0  0  0  0  0  0  0  0
    2.8607    1.5465   -3.6355 H   0  0  0  0  0  0  0  0  0  0  0  0
    1.0220    5.3877   -3.3670 N   0  0  0  0  0  0  0  0  0  0  0  0
    0.2514    6.5567   -3.7708 C   0  0  0  0  0  0  0  0  0  0  0  0
    1.9161    5.5250   -2.9053 H   0  0  0  0  0  0  0  0  0  0  0  0
   -0.0659    6.4648   -4.8148 H   0  0  0  0  0  0  0  0  0  0  0  0
   -0.6371    6.6661   -3.1399 H   0  0  0  0  0  0  0  0  0  0  0  0
    0.8590    7.4614   -3.6735 H   0  0  0  0  0  0  0  0  0  0  0  0
  1  2  2  0  0  0  0
  1  3  1  0  0  0  0
  1  7  1  0  0  0  0
  3  4  1  0  0  0  0
  3  5  1  0  0  0  0
  3  6  1  0  0  0  0
  7  8  1  0  0  0  0
  7 12  1  0  0  0  0
  8  9  1  0  0  0  0
  8 11  1  0  0  0  0
  8 13  1  0  0  0  0
  9 10  2  0  0  0  0
  9 17  1  0  0  0  0
 11 14  1  0  0  0  0
 11 15  1  0  0  0  0
 11 16  1  0  0  0  0
 17 18  1  0  0  0  0
 17 26  1  0  0  0  0
 18 19  1  0  0  0  0
 18 21  1  0  0  0  0
 18 27  1  0  0  0  0
 19 20  2  0  0  0  0
 19 32  1  0  0  0  0
 21 22  1  0  0  0  0
 21 28  1  0  0  0  0
 21 29  1  0  0  0  0
 22 23  1  0  0  0  0
 22 30  1  0  0  0  0
 22 31  1  0  0  0  0
 23 24  1  0  0  0  0
 23 25  2  0  0  0  0
 32 33  1  0  0  0  0
 32 37  1  0  0  0  0
 33 34  1  0  0  0  0
 33 36  1  0  0  0  0
 33 38  1  0  0  0  0
 34 35  2  0  0  0  0
 34 42  1  0  0  0  0
 36 39  1  0  0  0  0
 36 40  1  0  0  0  0
 36 41  1  0  0  0  0
 42 43  1  0  0  0  0
 42 44  1  0  0  0  0
 43 45  1  0  0  0  0
 43 46  1  0  0  0  0
 43 47  1  0  0  0  0
M  CHG  1  24  -1
M  END
$$$$

  -OEChem-05262216243D

 47 46  0     1  0  0  0  0  0999 V2000
    0.1026   -5.7004    1.7030 C   0  0  0  0  0  0  0  0  0  0  0  0
    1.1684   -5.7754    2.2959 O   0  0  0  0  0  0  0  0  0  0  0  0
   -1.0349   -6.6382    2.0648 C   0  0  0  0  0  0  0  0  0  0  0  0
   -1.3707   -7.1785    1.1765 H   0  0  0  0  0  0  0  0  0  0  0  0
   -0.7044   -7.3625    2.8142 H   0  0  0  0  0  0  0  0  0  0  0  0
   -1.8726   -6.0661    2.4725 H   0  0  0  0  0  0  0  0  0  0  0  0
   -0.0755   -4.7733    0.6994 N   0  0  0  0  0  0  0  0  0  0  0  0
    0.8482   -3.6717    0.4028 C   0  0  2  0  0  0  0  0  0  0  0  0
    0.1047   -2.5220   -0.3078 C   0  0  0  0  0  0  0  0  0  0  0  0
   -0.9444   -2.7541   -0.9023 O   0  0  0  0  0  0  0  0  0  0  0  0
    1.9913   -4.1867   -0.4780 C   0  0  0  0  0  0  0  0  0  0  0  0
   -1.0130   -4.6842    0.3064 H   0  0  0  0  0  0  0  0  0  0  0  0
    1.2572   -3.2760    1.3388 H   0  0  0  0  0  0  0  0  0  0  0  0
    1.5977   -4.5841   -1.4187 H   0  0  0  0  0  0  0  0  0  0  0  0
    2.6915   -3.3774   -0.7060 H   0  0  0  0  0  0  0  0  0  0  0  0
    2.5404   -4.9823    0.0345 H   0  0  0  0  0  0  0  0  0  0  0  0
    0.6333   -1.2465   -0.3143 N   0  0  0  0  0  0  0  0  0  0  0  0
   -0.0759   -0.0384   -0.7641 C   0  0  2  0  0  0  0  0  0  0  0  0
    0.9165    0.9917   -1.3428 C   0  0  0  0  0  0  0  0  0  0  0  0
    2.1215    0.8976   -1.1203 O   0  0  0  0  0  0  0  0  0  0  0  0
   -0.8009    0.6271    0.4244 C   0  0  0  0  0  0  0  0  0  0  0  0
   -1.9593   -0.2053    0.9944 C   0  0  0  0  0  0  0  0  0  0  0  0
   -2.5947    0.5236    2.1760 C   0  0  0  0  0  0  0  0  0  0  0  0
   -3.3454    1.4973    1.9188 O   0  5  0  0  0  0  0  0  0  0  0  0
   -2.2790    0.1467    3.3317 O   0  0  0  0  0  0  0  0  0  0  0  0
    1.5226   -1.1039    0.1585 H   0  0  0  0  0  0  0  0  0  0  0  0
   -0.8010   -0.2901   -1.5447 H   0  0  0  0  0  0  0  0  0  0  0  0
   -1.2067    1.5941    0.1069 H   0  0  0  0  0  0  0  0  0  0  0  0
   -0.0780    0.8226    1.2244 H   0  0  0  0  0  0  0  0  0  0  0  0
   -2.7133   -0.3768    0.2208 H   0  0  0  0  0  0  0  0  0  0  0  0
   -1.6014   -1.1789    1.3373 H   0  0  0  0  0  0  0  0  0  0  0  0
    0.4614    2.0553   -2.0997 N   0  0  0  0  0  0  0  0  0  0  0  0
    1.3074    3.1557   -2.5764 C   0  0  2  0  0  0  0  0  0  0  0  0
    0.5010    4.4551   -2.7737 C   0  0  0  0  0  0  0  0  0  0  0  0
   -0.6536    4.4106   -3.1821 O   0  0  0  0  0  0  0  0  0  0  0  0
    1.9638    2.7395   -3.8960 C   0  0  0  0  0  0  0  0  0  0  0  0
   -0.5481    2.1579   -2.2074 H   0  0  0  0  0  0  0  0  0  0  0  0
    2.0873    3.3597   -1.8354 H   0  0  0  0  0  0  0  0  0  0  0  0
    1.2009    2.5206   -4.6501 H   0  0  0  0  0  0  0  0  0  0  0  0
    2.6064    3.5414   -4.2710 H   0  0  0  0  0  0  0  0  0  0  0  0
    2.5772    1.8449   -3.7511 H   0  0  0  0  0  0  0  0  0  0  0  0
    1.0824    5.6828   -2.5121 N   0  0  0  0  0  0  0  0  0  0  0  0
    0.3516    6.9409   -2.5954 C   0  0  0  0  0  0  0  0  0  0  0  0
    2.0065    5.6790   -2.0907 H   0  0  0  0  0  0  0  0  0  0  0  0
   -0.0103    7.1069   -3.6154 H   0  0  0  0  0  0  0  0  0  0  0  0
   -0.5056    6.9311   -1.9140 H   0  0  0  0  0  0  0  0  0  0  0  0
    1.0033    7.7753   -2.3200 H   0  0  0  0  0  0  0  0  0  0  0  0
  1  2  2  0  0  0  0
  1  3  1  0  0  0  0
  1  7  1  0  0  0  0
  3  4  1  0  0  0  0
  3  5  1  0  0  0  0
  3  6  1  0  0  0  0
  7  8  1  0  0  0  0
  7 12  1  0  0  0  0
  8  9  1  0  0  0  0
  8 11  1  0  0  0  0
  8 13  1  0  0  0  0
  9 10  2  0  0  0  0
  9 17  1  0  0  0  0
 11 14  1  0  0  0  0
 11 15  1  0  0  0  0
 11 16  1  0  0  0  0
 17 18  1  0  0  0  0
 17 26  1  0  0  0  0
 18 19  1  0  0  0  0
 18 21  1  0  0  0  0
 18 27  1  0  0  0  0
 19 20  2  0  0  0  0
 19 32  1  0  0  0  0
 21 22  1  0  0  0  0
 21 28  1  0  0  0  0
 21 29  1  0  0  0  0
 22 23  1  0  0  0  0
 22 30  1  0  0  0  0
 22 31  1  0  0  0  0
 23 24  1  0  0  0  0
 23 25  2  0  0  0  0
 32 33  1  0  0  0  0
 32 37  1  0  0  0  0
 33 34  1  0  0  0  0
 33 36  1  0  0  0  0
 33 38  1  0  0  0  0
 34 35  2  0  0  0  0
 34 42  1  0  0  0  0
 36 39  1  0  0  0  0
 36 40  1  0  0  0  0
 36 41  1  0  0  0  0
 42 43  1  0  0  0  0
 42 44  1  0  0  0  0
 43 45  1  0  0  0  0
 43 46  1  0  0  0  0
 43 47  1  0  0  0  0
M  CHG  1  24  -1
M  END
$$$$

  -OEChem-05262216243D

 47 46  0     1  0  0  0  0  0999 V2000
    0.3672   -5.8056    1.5535 C   0  0  0  0  0  0  0  0  0  0  0  0
    1.4792   -5.8536    2.0576 O   0  0  0  0  0  0  0  0  0  0  0  0
   -0.6533   -6.8852    1.8645 C   0  0  0  0  0  0  0  0  0  0  0  0
   -0.9120   -7.4277    0.9518 H   0  0  0  0  0  0  0  0  0  0  0  0
   -0.2450   -7.5915    2.5928 H   0  0  0  0  0  0  0  0  0  0  0  0
   -1.5581   -6.4343    2.2804 H   0  0  0  0  0  0  0  0  0  0  0  0
    0.0332   -4.7834    0.6920 N   0  0  0  0  0  0  0  0  0  0  0  0
    0.8485   -3.5855    0.4560 C   0  0  2  0  0  0  0  0  0  0  0  0
   -0.0280   -2.4110   -0.0282 C   0  0  0  0  0  0  0  0  0  0  0  0
   -1.1725   -2.6278   -0.4166 O   0  0  0  0  0  0  0  0  0  0  0  0
    1.9250   -3.9072   -0.5868 C   0  0  0  0  0  0  0  0  0  0  0  0
   -0.9389   -4.7256    0.3870 H   0  0  0  0  0  0  0  0  0  0  0  0
    1.3261   -3.2773    1.3923 H   0  0  0  0  0  0  0  0  0  0  0  0
    1.4618   -4.2088   -1.5316 H   0  0  0  0  0  0  0  0  0  0  0  0
    2.5547   -3.0314   -0.7715 H   0  0  0  0  0  0  0  0  0  0  0  0
    2.5655   -4.7220   -0.2359 H   0  0  0  0  0  0  0  0  0  0  0  0
    0.4978   -1.1358   -0.0873 N   0  0  0  0  0  0  0  0  0  0  0  0
   -0.2145    0.0555   -0.5750 C   0  0  2  0  0  0  0  0  0  0  0  0
    0.6891    0.8816   -1.5181 C   0  0  0  0  0  0  0  0  0  0  0  0
    1.8518    0.5420   -1.7283 O   0  0  0  0  0  0  0  0  0  0  0  0
   -0.6108    0.9303    0.6314 C   0  0  0  0  0  0  0  0  0  0  0  0
   -1.6647    0.2728    1.5440 C   0  0  0  0  0  0  0  0  0  0  0  0
   -2.0372    1.1379    2.7551 C   0  0  0  0  0  0  0  0  0  0  0  0
   -2.9150    0.6807    3.5268 O   0  5  0  0  0  0  0  0  0  0  0  0
   -1.4560    2.2429    2.9123 O   0  0  0  0  0  0  0  0  0  0  0  0
    1.4931   -1.0334    0.0939 H   0  0  0  0  0  0  0  0  0  0  0  0
   -1.1129   -0.2269   -1.1333 H   0  0  0  0  0  0  0  0  0  0  0  0
   -1.0207    1.8823    0.2789 H   0  0  0  0  0  0  0  0  0  0  0  0
    0.2846    1.1576    1.2209 H   0  0  0  0  0  0  0  0  0  0  0  0
   -2.5703    0.0724    0.9646 H   0  0  0  0  0  0  0  0  0  0  0  0
   -1.2888   -0.6829    1.9178 H   0  0  0  0  0  0  0  0  0  0  0  0
    0.2287    2.0482   -2.1010 N   0  0  0  0  0  0  0  0  0  0  0  0
    1.0531    2.9599   -2.9030 C   0  0  2  0  0  0  0  0  0  0  0  0
    0.5201    4.4057   -2.8538 C   0  0  0  0  0  0  0  0  0  0  0  0
   -0.6857    4.6205   -2.8929 O   0  0  0  0  0  0  0  0  0  0  0  0
    1.0822    2.4582   -4.3498 C   0  0  0  0  0  0  0  0  0  0  0  0
   -0.7135    2.3551   -1.8587 H   0  0  0  0  0  0  0  0  0  0  0  0
    2.0736    2.9695   -2.5066 H   0  0  0  0  0  0  0  0  0  0  0  0
    0.0690    2.4240   -4.7629 H   0  0  0  0  0  0  0  0  0  0  0  0
    1.6902    3.1218   -4.9716 H   0  0  0  0  0  0  0  0  0  0  0  0
    1.5112    1.4525   -4.3956 H   0  0  0  0  0  0  0  0  0  0  0  0
    1.3993    5.4718   -2.7889 N   0  0  0  0  0  0  0  0  0  0  0  0
    0.9599    6.8541   -2.6455 C   0  0  0  0  0  0  0  0  0  0  0  0
    2.3824    5.2540   -2.6559 H   0  0  0  0  0  0  0  0  0  0  0  0
    0.3327    7.1467   -3.4941 H   0  0  0  0  0  0  0  0  0  0  0  0
    0.3847    6.9797   -1.7220 H   0  0  0  0  0  0  0  0  0  0  0  0
    1.8245    7.5235   -2.6090 H   0  0  0  0  0  0  0  0  0  0  0  0
  1  2  2  0  0  0  0
  1  3  1  0  0  0  0
  1  7  1  0  0  0  0
  3  4  1  0  0  0  0
  3  5  1  0  0  0  0
  3  6  1  0  0  0  0
  7  8  1  0  0  0  0
  7 12  1  0  0  0  0
  8  9  1  0  0  0  0
  8 11  1  0  0  0  0
  8 13  1  0  0  0  0
  9 10  2  0  0  0  0
  9 17  1  0  0  0  0
 11 14  1  0  0  0  0
 11 15  1  0  0  0  0
 11 16  1  0  0  0  0
 17 18  1  0  0  0  0
 17 26  1  0  0  0  0
 18 19  1  0  0  0  0
 18 21  1  0  0  0  0
 18 27  1  0  0  0  0
 19 20  2  0  0  0  0
 19 32  1  0  0  0  0
 21 22  1  0  0  0  0
 21 28  1  0  0  0  0
 21 29  1  0  0  0  0
 22 23  1  0  0  0  0
 22 30  1  0  0  0  0
 22 31  1  0  0  0  0
 23 24  1  0  0  0  0
 23 25  2  0  0  0  0
 32 33  1  0  0  0  0
 32 37  1  0  0  0  0
 33 34  1  0  0  0  0
 33 36  1  0  0  0  0
 33 38  1  0  0  0  0
 34 35  2  0  0  0  0
 34 42  1  0  0  0  0
 36 39  1  0  0  0  0
 36 40  1  0  0  0  0
 36 41  1  0  0  0  0
 42 43  1  0  0  0  0
 42 44  1  0  0  0  0
 43 45  1  0  0  0  0
 43 46  1  0  0  0  0
 43 47  1  0  0  0  0
M  CHG  1  24  -1
M  END
$$$$

  -OEChem-05262216243D

 47 46  0     1  0  0  0  0  0999 V2000
    0.3610   -5.7849    1.5361 C   0  0  0  0  0  0  0  0  0  0  0  0
    1.4819   -5.8468    2.0184 O   0  0  0  0  0  0  0  0  0  0  0  0
   -0.6831   -6.8238    1.9020 C   0  0  0  0  0  0  0  0  0  0  0  0
   -1.0378   -7.3291    1.0004 H   0  0  0  0  0  0  0  0  0  0  0  0
   -0.2559   -7.5674    2.5803 H   0  0  0  0  0  0  0  0  0  0  0  0
   -1.5296   -6.3411    2.3969 H   0  0  0  0  0  0  0  0  0  0  0  0
    0.0329   -4.7773    0.6559 N   0  0  0  0  0  0  0  0  0  0  0  0
    0.8573   -3.5906    0.3981 C   0  0  2  0  0  0  0  0  0  0  0  0
   -0.0196   -2.4105   -0.0709 C   0  0  0  0  0  0  0  0  0  0  0  0
   -1.1583   -2.6265   -0.4774 O   0  0  0  0  0  0  0  0  0  0  0  0
    1.9078   -3.9270   -0.6657 C   0  0  0  0  0  0  0  0  0  0  0  0
   -0.9441   -4.7066    0.3704 H   0  0  0  0  0  0  0  0  0  0  0  0
    1.3589   -3.2846    1.3226 H   0  0  0  0  0  0  0  0  0  0  0  0
    1.4217   -4.2331   -1.5974 H   0  0  0  0  0  0  0  0  0  0  0  0
    2.5376   -3.0559   -0.8712 H   0  0  0  0  0  0  0  0  0  0  0  0
    2.5509   -4.7432   -0.3223 H   0  0  0  0  0  0  0  0  0  0  0  0
    0.4920   -1.1281   -0.0705 N   0  0  0  0  0  0  0  0  0  0  0  0
   -0.2241    0.0697   -0.5380 C   0  0  2  0  0  0  0  0  0  0  0  0
    0.7005    0.9370   -1.4271 C   0  0  0  0  0  0  0  0  0  0  0  0
    1.7866    0.5011   -1.8037 O   0  0  0  0  0  0  0  0  0  0  0  0
   -0.6790    0.8748    0.6982 C   0  0  0  0  0  0  0  0  0  0  0  0
   -1.7460    0.1482    1.5310 C   0  0  0  0  0  0  0  0  0  0  0  0
   -2.1229    0.9961    2.7432 C   0  0  0  0  0  0  0  0  0  0  0  0
   -1.4705    0.8183    3.8018 O   0  5  0  0  0  0  0  0  0  0  0  0
   -3.0036    1.8765    2.5824 O   0  0  0  0  0  0  0  0  0  0  0  0
    1.4830   -1.0254    0.1297 H   0  0  0  0  0  0  0  0  0  0  0  0
   -1.0994   -0.2023   -1.1366 H   0  0  0  0  0  0  0  0  0  0  0  0
   -1.1035    1.8343    0.3850 H   0  0  0  0  0  0  0  0  0  0  0  0
    0.1876    1.0891    1.3337 H   0  0  0  0  0  0  0  0  0  0  0  0
   -2.6354   -0.0405    0.9225 H   0  0  0  0  0  0  0  0  0  0  0  0
   -1.3700   -0.8170    1.8805 H   0  0  0  0  0  0  0  0  0  0  0  0
    0.3865    2.2470   -1.7444 N   0  0  0  0  0  0  0  0  0  0  0  0
    1.2613    3.1556   -2.4973 C   0  0  2  0  0  0  0  0  0  0  0  0
    0.9691    4.6366   -2.1834 C   0  0  0  0  0  0  0  0  0  0  0  0
   -0.1806    5.0137   -1.9932 O   0  0  0  0  0  0  0  0  0  0  0  0
    1.0747    2.8911   -3.9949 C   0  0  0  0  0  0  0  0  0  0  0  0
   -0.4877    2.6267   -1.3791 H   0  0  0  0  0  0  0  0  0  0  0  0
    2.3040    2.9620   -2.2253 H   0  0  0  0  0  0  0  0  0  0  0  0
    0.0369    3.0787   -4.2891 H   0  0  0  0  0  0  0  0  0  0  0  0
    1.7277    3.5434   -4.5822 H   0  0  0  0  0  0  0  0  0  0  0  0
    1.3215    1.8517   -4.2324 H   0  0  0  0  0  0  0  0  0  0  0  0
    2.0007    5.5577   -2.1433 N   0  0  0  0  0  0  0  0  0  0  0  0
    1.8024    6.9567   -1.7866 C   0  0  0  0  0  0  0  0  0  0  0  0
    2.9478    5.2007   -2.2254 H   0  0  0  0  0  0  0  0  0  0  0  0
    1.1044    7.4340   -2.4822 H   0  0  0  0  0  0  0  0  0  0  0  0
    1.4002    7.0391   -0.7714 H   0  0  0  0  0  0  0  0  0  0  0  0
    2.7535    7.4958   -1.8281 H   0  0  0  0  0  0  0  0  0  0  0  0
  1  2  2  0  0  0  0
  1  3  1  0  0  0  0
  1  7  1  0  0  0  0
  3  4  1  0  0  0  0
  3  5  1  0  0  0  0
  3  6  1  0  0  0  0
  7  8  1  0  0  0  0
  7 12  1  0  0  0  0
  8  9  1  0  0  0  0
  8 11  1  0  0  0  0
  8 13  1  0  0  0  0
  9 10  2  0  0  0  0
  9 17  1  0  0  0  0
 11 14  1  0  0  0  0
 11 15  1  0  0  0  0
 11 16  1  0  0  0  0
 17 18  1  0  0  0  0
 17 26  1  0  0  0  0
 18 19  1  0  0  0  0
 18 21  1  0  0  0  0
 18 27  1  0  0  0  0
 19 20  2  0  0  0  0
 19 32  1  0  0  0  0
 21 22  1  0  0  0  0
 21 28  1  0  0  0  0
 21 29  1  0  0  0  0
 22 23  1  0  0  0  0
 22 30  1  0  0  0  0
 22 31  1  0  0  0  0
 23 24  1  0  0  0  0
 23 25  2  0  0  0  0
 32 33  1  0  0  0  0
 32 37  1  0  0  0  0
 33 34  1  0  0  0  0
 33 36  1  0  0  0  0
 33 38  1  0  0  0  0
 34 35  2  0  0  0  0
 34 42  1  0  0  0  0
 36 39  1  0  0  0  0
 36 40  1  0  0  0  0
 36 41  1  0  0  0  0
 42 43  1  0  0  0  0
 42 44  1  0  0  0  0
 43 45  1  0  0  0  0
 43 46  1  0  0  0  0
 43 47  1  0  0  0  0
M  CHG  1  24  -1
M  END
$$$$

  -OEChem-05262216243D

 47 46  0     1  0  0  0  0  0999 V2000
    0.3273   -5.7452    1.5683 C   0  0  0  0  0  0  0  0  0  0  0  0
    1.4372   -5.8006    2.0761 O   0  0  0  0  0  0  0  0  0  0  0  0
   -0.7340   -6.7615    1.9469 C   0  0  0  0  0  0  0  0  0  0  0  0
   -1.1045   -7.2657    1.0511 H   0  0  0  0  0  0  0  0  0  0  0  0
   -0.3175   -7.5094    2.6271 H   0  0  0  0  0  0  0  0  0  0  0  0
   -1.5672   -6.2580    2.4435 H   0  0  0  0  0  0  0  0  0  0  0  0
    0.0266   -4.7649    0.6487 N   0  0  0  0  0  0  0  0  0  0  0  0
    0.8670   -3.5940    0.3730 C   0  0  2  0  0  0  0  0  0  0  0  0
    0.0081   -2.4142   -0.1264 C   0  0  0  0  0  0  0  0  0  0  0  0
   -1.1174   -2.6305   -0.5678 O   0  0  0  0  0  0  0  0  0  0  0  0
    1.9197   -3.9665   -0.6757 C   0  0  0  0  0  0  0  0  0  0  0  0
   -0.9437   -4.6958    0.3406 H   0  0  0  0  0  0  0  0  0  0  0  0
    1.3650   -3.2747    1.2951 H   0  0  0  0  0  0  0  0  0  0  0  0
    1.4363   -4.2853   -1.6046 H   0  0  0  0  0  0  0  0  0  0  0  0
    2.5626   -3.1084   -0.8948 H   0  0  0  0  0  0  0  0  0  0  0  0
    2.5483   -4.7842   -0.3101 H   0  0  0  0  0  0  0  0  0  0  0  0
    0.5147   -1.1298   -0.0948 N   0  0  0  0  0  0  0  0  0  0  0  0
   -0.2071    0.0739   -0.5397 C   0  0  2  0  0  0  0  0  0  0  0  0
    0.7194    0.9647   -1.4062 C   0  0  0  0  0  0  0  0  0  0  0  0
    1.6772    0.4679   -1.9938 O   0  0  0  0  0  0  0  0  0  0  0  0
   -0.6924    0.8328    0.7150 C   0  0  0  0  0  0  0  0  0  0  0  0
   -1.7641    0.0634    1.5021 C   0  0  0  0  0  0  0  0  0  0  0  0
   -2.1757    0.8610    2.7364 C   0  0  0  0  0  0  0  0  0  0  0  0
   -1.4619    0.7444    3.7637 O   0  5  0  0  0  0  0  0  0  0  0  0
   -3.1553    1.6385    2.6270 O   0  0  0  0  0  0  0  0  0  0  0  0
    1.4872   -1.0217    0.1761 H   0  0  0  0  0  0  0  0  0  0  0  0
   -1.0731   -0.1913   -1.1550 H   0  0  0  0  0  0  0  0  0  0  0  0
   -1.1323    1.7923    0.4250 H   0  0  0  0  0  0  0  0  0  0  0  0
    0.1595    1.0427    1.3717 H   0  0  0  0  0  0  0  0  0  0  0  0
   -2.6384   -0.1163    0.8693 H   0  0  0  0  0  0  0  0  0  0  0  0
   -1.3815   -0.9077    1.8267 H   0  0  0  0  0  0  0  0  0  0  0  0
    0.5844    2.3415   -1.4594 N   0  0  0  0  0  0  0  0  0  0  0  0
    1.5164    3.2481   -2.1432 C   0  0  2  0  0  0  0  0  0  0  0  0
    1.5065    4.6628   -1.5289 C   0  0  0  0  0  0  0  0  0  0  0  0
    0.5025    5.0921   -0.9742 O   0  0  0  0  0  0  0  0  0  0  0  0
    1.1378    3.3158   -3.6262 C   0  0  0  0  0  0  0  0  0  0  0  0
   -0.1544    2.7663   -0.8971 H   0  0  0  0  0  0  0  0  0  0  0  0
    2.5353    2.8588   -2.0483 H   0  0  0  0  0  0  0  0  0  0  0  0
    0.1143    3.6866   -3.7416 H   0  0  0  0  0  0  0  0  0  0  0  0
    1.8149    3.9856   -4.1644 H   0  0  0  0  0  0  0  0  0  0  0  0
    1.2019    2.3226   -4.0813 H   0  0  0  0  0  0  0  0  0  0  0  0
    2.6299    5.4665   -1.6116 N   0  0  0  0  0  0  0  0  0  0  0  0
    2.7130    6.7839   -0.9939 C   0  0  0  0  0  0  0  0  0  0  0  0
    3.4645    5.0630   -2.0259 H   0  0  0  0  0  0  0  0  0  0  0  0
    1.9212    7.4369   -1.3759 H   0  0  0  0  0  0  0  0  0  0  0  0
    2.6100    6.7029    0.0934 H   0  0  0  0  0  0  0  0  0  0  0  0
    3.6792    7.2461   -1.2176 H   0  0  0  0  0  0  0  0  0  0  0  0
  1  2  2  0  0  0  0
  1  3  1  0  0  0  0
  1  7  1  0  0  0  0
  3  4  1  0  0  0  0
  3  5  1  0  0  0  0
  3  6  1  0  0  0  0
  7  8  1  0  0  0  0
  7 12  1  0  0  0  0
  8  9  1  0  0  0  0
  8 11  1  0  0  0  0
  8 13  1  0  0  0  0
  9 10  2  0  0  0  0
  9 17  1  0  0  0  0
 11 14  1  0  0  0  0
 11 15  1  0  0  0  0
 11 16  1  0  0  0  0
 17 18  1  0  0  0  0
 17 26  1  0  0  0  0
 18 19  1  0  0  0  0
 18 21  1  0  0  0  0
 18 27  1  0  0  0  0
 19 20  2  0  0  0  0
 19 32  1  0  0  0  0
 21 22  1  0  0  0  0
 21 28  1  0  0  0  0
 21 29  1  0  0  0  0
 22 23  1  0  0  0  0
 22 30  1  0  0  0  0
 22 31  1  0  0  0  0
 23 24  1  0  0  0  0
 23 25  2  0  0  0  0
 32 33  1  0  0  0  0
 32 37  1  0  0  0  0
 33 34  1  0  0  0  0
 33 36  1  0  0  0  0
 33 38  1  0  0  0  0
 34 35  2  0  0  0  0
 34 42  1  0  0  0  0
 36 39  1  0  0  0  0
 36 40  1  0  0  0  0
 36 41  1  0  0  0  0
 42 43  1  0  0  0  0
 42 44  1  0  0  0  0
 43 45  1  0  0  0  0
 43 46  1  0  0  0  0
 43 47  1  0  0  0  0
M  CHG  1  24  -1
M  END
$$$$

  -OEChem-05262216243D

 47 46  0     1  0  0  0  0  0999 V2000
    0.3541   -5.8236    1.5020 C   0  0  0  0  0  0  0  0  0  0  0  0
    1.4270   -5.8667    2.0855 O   0  0  0  0  0  0  0  0  0  0  0  0
   -0.6627   -6.9320    1.7025 C   0  0  0  0  0  0  0  0  0  0  0  0
   -0.7997   -7.4844    0.7698 H   0  0  0  0  0  0  0  0  0  0  0  0
   -0.3200   -7.6234    2.4773 H   0  0  0  0  0  0  0  0  0  0  0  0
   -1.6215   -6.5067    2.0097 H   0  0  0  0  0  0  0  0  0  0  0  0
    0.0637   -4.7812    0.6493 N   0  0  0  0  0  0  0  0  0  0  0  0
    0.8756   -3.5675    0.5024 C   0  0  2  0  0  0  0  0  0  0  0  0
    0.0169   -2.3886   -0.0025 C   0  0  0  0  0  0  0  0  0  0  0  0
   -1.0839   -2.6120   -0.4976 O   0  0  0  0  0  0  0  0  0  0  0  0
    2.0188   -3.8479   -0.4794 C   0  0  0  0  0  0  0  0  0  0  0  0
   -0.8844   -4.7296    0.2753 H   0  0  0  0  0  0  0  0  0  0  0  0
    1.2895   -3.2841    1.4759 H   0  0  0  0  0  0  0  0  0  0  0  0
    1.6188   -4.1363   -1.4567 H   0  0  0  0  0  0  0  0  0  0  0  0
    2.6429   -2.9585   -0.6079 H   0  0  0  0  0  0  0  0  0  0  0  0
    2.6508   -4.6599   -0.1074 H   0  0  0  0  0  0  0  0  0  0  0  0
    0.5149   -1.1005    0.0526 N   0  0  0  0  0  0  0  0  0  0  0  0
   -0.1922    0.0996   -0.4268 C   0  0  2  0  0  0  0  0  0  0  0  0
    0.7748    0.9895   -1.2485 C   0  0  0  0  0  0  0  0  0  0  0  0
    1.5525    0.4647   -2.0403 O   0  0  0  0  0  0  0  0  0  0  0  0
   -0.7822    0.8635    0.7781 C   0  0  0  0  0  0  0  0  0  0  0  0
   -1.9083    0.0903    1.4935 C   0  0  0  0  0  0  0  0  0  0  0  0
   -2.4793    0.8379    2.7046 C   0  0  0  0  0  0  0  0  0  0  0  0
   -3.3228    0.2251    3.4032 O   0  5  0  0  0  0  0  0  0  0  0  0
   -2.0786    2.0078    2.9345 O   0  0  0  0  0  0  0  0  0  0  0  0
    1.4660   -0.9882    0.3877 H   0  0  0  0  0  0  0  0  0  0  0  0
   -1.0125   -0.1782   -1.0968 H   0  0  0  0  0  0  0  0  0  0  0  0
   -1.2059    1.8137    0.4367 H   0  0  0  0  0  0  0  0  0  0  0  0
    0.0149    1.0910    1.4943 H   0  0  0  0  0  0  0  0  0  0  0  0
   -2.7199   -0.1066    0.7874 H   0  0  0  0  0  0  0  0  0  0  0  0
   -1.5297   -0.8732    1.8443 H   0  0  0  0  0  0  0  0  0  0  0  0
    0.8548    2.3635   -1.0918 N   0  0  0  0  0  0  0  0  0  0  0  0
    1.7824    3.2346   -1.8289 C   0  0  2  0  0  0  0  0  0  0  0  0
    2.2324    4.4636   -1.0131 C   0  0  0  0  0  0  0  0  0  0  0  0
    1.5744    4.8586   -0.0597 O   0  0  0  0  0  0  0  0  0  0  0  0
    1.0893    3.6828   -3.1193 C   0  0  0  0  0  0  0  0  0  0  0  0
    0.3053    2.7863   -0.3415 H   0  0  0  0  0  0  0  0  0  0  0  0
    2.6884    2.6751   -2.0832 H   0  0  0  0  0  0  0  0  0  0  0  0
    0.1847    4.2546   -2.8876 H   0  0  0  0  0  0  0  0  0  0  0  0
    1.7568    4.3120   -3.7156 H   0  0  0  0  0  0  0  0  0  0  0  0
    0.8069    2.8124   -3.7200 H   0  0  0  0  0  0  0  0  0  0  0  0
    3.3846    5.1441   -1.3665 N   0  0  0  0  0  0  0  0  0  0  0  0
    3.8898    6.2962   -0.6308 C   0  0  0  0  0  0  0  0  0  0  0  0
    3.9292    4.7736   -2.1392 H   0  0  0  0  0  0  0  0  0  0  0  0
    3.1304    7.0837   -0.5829 H   0  0  0  0  0  0  0  0  0  0  0  0
    4.1638    6.0079    0.3894 H   0  0  0  0  0  0  0  0  0  0  0  0
    4.7764    6.7019   -1.1270 H   0  0  0  0  0  0  0  0  0  0  0  0
  1  2  2  0  0  0  0
  1  3  1  0  0  0  0
  1  7  1  0  0  0  0
  3  4  1  0  0  0  0
  3  5  1  0  0  0  0
  3  6  1  0  0  0  0
  7  8  1  0  0  0  0
  7 12  1  0  0  0  0
  8  9  1  0  0  0  0
  8 11  1  0  0  0  0
  8 13  1  0  0  0  0
  9 10  2  0  0  0  0
  9 17  1  0  0  0  0
 11 14  1  0  0  0  0
 11 15  1  0  0  0  0
 11 16  1  0  0  0  0
 17 18  1  0  0  0  0
 17 26  1  0  0  0  0
 18 19  1  0  0  0  0
 18 21  1  0  0  0  0
 18 27  1  0  0  0  0
 19 20  2  0  0  0  0
 19 32  1  0  0  0  0
 21 22  1  0  0  0  0
 21 28  1  0  0  0  0
 21 29  1  0  0  0  0
 22 23  1  0  0  0  0
 22 30  1  0  0  0  0
 22 31  1  0  0  0  0
 23 24  1  0  0  0  0
 23 25  2  0  0  0  0
 32 33  1  0  0  0  0
 32 37  1  0  0  0  0
 33 34  1  0  0  0  0
 33 36  1  0  0  0  0
 33 38  1  0  0  0  0
 34 35  2  0  0  0  0
 34 42  1  0  0  0  0
 36 39  1  0  0  0  0
 36 40  1  0  0  0  0
 36 41  1  0  0  0  0
 42 43  1  0  0  0  0
 42 44  1  0  0  0  0
 43 45  1  0  0  0  0
 43 46  1  0  0  0  0
 43 47  1  0  0  0  0
M  CHG  1  24  -1
M  END
$$$$

  -OEChem-05262216243D

 47 46  0     1  0  0  0  0  0999 V2000
    0.2249   -5.7471    1.6065 C   0  0  0  0  0  0  0  0  0  0  0  0
    1.2259   -5.7731    2.3070 O   0  0  0  0  0  0  0  0  0  0  0  0
   -0.8469   -6.8092    1.7707 C   0  0  0  0  0  0  0  0  0  0  0  0
   -0.9607   -7.3709    0.8404 H   0  0  0  0  0  0  0  0  0  0  0  0
   -0.5743   -7.5018    2.5716 H   0  0  0  0  0  0  0  0  0  0  0  0
   -1.8009   -6.3384    2.0217 H   0  0  0  0  0  0  0  0  0  0  0  0
    0.0630   -4.7638    0.6552 N   0  0  0  0  0  0  0  0  0  0  0  0
    0.9048   -3.5674    0.5359 C   0  0  2  0  0  0  0  0  0  0  0  0
    0.1249   -2.4159   -0.1333 C   0  0  0  0  0  0  0  0  0  0  0  0
   -0.9138   -2.6638   -0.7392 O   0  0  0  0  0  0  0  0  0  0  0  0
    2.1538   -3.9105   -0.2833 C   0  0  0  0  0  0  0  0  0  0  0  0
   -0.8382   -4.7193    0.1784 H   0  0  0  0  0  0  0  0  0  0  0  0
    1.2028   -3.2300    1.5344 H   0  0  0  0  0  0  0  0  0  0  0  0
    1.8709   -4.2487   -1.2854 H   0  0  0  0  0  0  0  0  0  0  0  0
    2.8010   -3.0338   -0.3817 H   0  0  0  0  0  0  0  0  0  0  0  0
    2.7241   -4.7062    0.2058 H   0  0  0  0  0  0  0  0  0  0  0  0
    0.6045   -1.1212   -0.0603 N   0  0  0  0  0  0  0  0  0  0  0  0
   -0.1285    0.0677   -0.5278 C   0  0  2  0  0  0  0  0  0  0  0  0
    0.8056    0.9967   -1.3415 C   0  0  0  0  0  0  0  0  0  0  0  0
    1.3836    0.5621   -2.3320 O   0  0  0  0  0  0  0  0  0  0  0  0
   -0.7354    0.7996    0.6882 C   0  0  0  0  0  0  0  0  0  0  0  0
   -1.8434   -0.0077    1.3934 C   0  0  0  0  0  0  0  0  0  0  0  0
   -2.4275    0.7132    2.6147 C   0  0  0  0  0  0  0  0  0  0  0  0
   -3.2566    0.0742    3.3069 O   0  5  0  0  0  0  0  0  0  0  0  0
   -2.0496    1.8881    2.8587 O   0  0  0  0  0  0  0  0  0  0  0  0
    1.4476   -0.9753    0.4849 H   0  0  0  0  0  0  0  0  0  0  0  0
   -0.9435   -0.2195   -1.2004 H   0  0  0  0  0  0  0  0  0  0  0  0
   -1.1771    1.7462    0.3579 H   0  0  0  0  0  0  0  0  0  0  0  0
    0.0553    1.0328    1.4100 H   0  0  0  0  0  0  0  0  0  0  0  0
   -2.6514   -0.2132    0.6853 H   0  0  0  0  0  0  0  0  0  0  0  0
   -1.4440   -0.9669    1.7326 H   0  0  0  0  0  0  0  0  0  0  0  0
    1.0622    2.3045   -0.9644 N   0  0  0  0  0  0  0  0  0  0  0  0
    2.0132    3.2015   -1.6375 C   0  0  2  0  0  0  0  0  0  0  0  0
    2.8815    4.0080   -0.6490 C   0  0  0  0  0  0  0  0  0  0  0  0
    2.6011    4.0571    0.5420 O   0  0  0  0  0  0  0  0  0  0  0  0
    1.2063    4.1400   -2.5388 C   0  0  0  0  0  0  0  0  0  0  0  0
    0.6970    2.6032   -0.0586 H   0  0  0  0  0  0  0  0  0  0  0  0
    2.7035    2.6206   -2.2573 H   0  0  0  0  0  0  0  0  0  0  0  0
    0.5207    4.7481   -1.9398 H   0  0  0  0  0  0  0  0  0  0  0  0
    1.8714    4.8076   -3.0943 H   0  0  0  0  0  0  0  0  0  0  0  0
    0.6199    3.5599   -3.2587 H   0  0  0  0  0  0  0  0  0  0  0  0
    3.9983    4.6868   -1.1040 N   0  0  0  0  0  0  0  0  0  0  0  0
    4.8660    5.4724   -0.2358 C   0  0  0  0  0  0  0  0  0  0  0  0
    4.2178    4.6191   -2.0930 H   0  0  0  0  0  0  0  0  0  0  0  0
    4.3010    6.2829    0.2365 H   0  0  0  0  0  0  0  0  0  0  0  0
    5.2978    4.8405    0.5474 H   0  0  0  0  0  0  0  0  0  0  0  0
    5.6834    5.9121   -0.8153 H   0  0  0  0  0  0  0  0  0  0  0  0
  1  2  2  0  0  0  0
  1  3  1  0  0  0  0
  1  7  1  0  0  0  0
  3  4  1  0  0  0  0
  3  5  1  0  0  0  0
  3  6  1  0  0  0  0
  7  8  1  0  0  0  0
  7 12  1  0  0  0  0
  8  9  1  0  0  0  0
  8 11  1  0  0  0  0
  8 13  1  0  0  0  0
  9 10  2  0  0  0  0
  9 17  1  0  0  0  0
 11 14  1  0  0  0  0
 11 15  1  0  0  0  0
 11 16  1  0  0  0  0
 17 18  1  0  0  0  0
 17 26  1  0  0  0  0
 18 19  1  0  0  0  0
 18 21  1  0  0  0  0
 18 27  1  0  0  0  0
 19 20  2  0  0  0  0
 19 32  1  0  0  0  0
 21 22  1  0  0  0  0
 21 28  1  0  0  0  0
 21 29  1  0  0  0  0
 22 23  1  0  0  0  0
 22 30  1  0  0  0  0
 22 31  1  0  0  0  0
 23 24  1  0  0  0  0
 23 25  2  0  0  0  0
 32 33  1  0  0  0  0
 32 37  1  0  0  0  0
 33 34  1  0  0  0  0
 33 36  1  0  0  0  0
 33 38  1  0  0  0  0
 34 35  2  0  0  0  0
 34 42  1  0  0  0  0
 36 39  1  0  0  0  0
 36 40  1  0  0  0  0
 36 41  1  0  0  0  0
 42 43  1  0  0  0  0
 42 44  1  0  0  0  0
 43 45  1  0  0  0  0
 43 46  1  0  0  0  0
 43 47  1  0  0  0  0
M  CHG  1  24  -1
M  END
$$$$

  -OEChem-05262216243D

 47 46  0     1  0  0  0  0  0999 V2000
    0.6418   -5.3957    1.6275 C   0  0  0  0  0  0  0  0  0  0  0  0
    1.3922   -5.2608    2.5822 O   0  0  0  0  0  0  0  0  0  0  0  0
   -0.2088   -6.6461    1.5018 C   0  0  0  0  0  0  0  0  0  0  0  0
   -0.0125   -7.1367    0.5454 H   0  0  0  0  0  0  0  0  0  0  0  0
    0.0239   -7.3444    2.3105 H   0  0  0  0  0  0  0  0  0  0  0  0
   -1.2678   -6.3818    1.5575 H   0  0  0  0  0  0  0  0  0  0  0  0
    0.5663   -4.4206    0.6569 N   0  0  0  0  0  0  0  0  0  0  0  0
    1.1809   -3.0915    0.7569 C   0  0  2  0  0  0  0  0  0  0  0  0
    0.4483   -2.0772   -0.1466 C   0  0  0  0  0  0  0  0  0  0  0  0
   -0.3282   -2.4813   -1.0065 O   0  0  0  0  0  0  0  0  0  0  0  0
    2.6577   -3.1868    0.3566 C   0  0  0  0  0  0  0  0  0  0  0  0
   -0.1541   -4.5253   -0.0583 H   0  0  0  0  0  0  0  0  0  0  0  0
    1.1042   -2.7330    1.7891 H   0  0  0  0  0  0  0  0  0  0  0  0
    2.7503   -3.5526   -0.6709 H   0  0  0  0  0  0  0  0  0  0  0  0
    3.1381   -2.2059    0.4220 H   0  0  0  0  0  0  0  0  0  0  0  0
    3.1901   -3.8744    1.0208 H   0  0  0  0  0  0  0  0  0  0  0  0
    0.6891   -0.7239    0.0012 N   0  0  0  0  0  0  0  0  0  0  0  0
   -0.0647    0.3368   -0.6878 C   0  0  2  0  0  0  0  0  0  0  0  0
    0.9017    1.3993   -1.2586 C   0  0  0  0  0  0  0  0  0  0  0  0
    1.6594    1.1139   -2.1794 O   0  0  0  0  0  0  0  0  0  0  0  0
   -1.0538    0.9770    0.3046 C   0  0  0  0  0  0  0  0  0  0  0  0
   -2.1799    0.0300    0.7579 C   0  0  0  0  0  0  0  0  0  0  0  0
   -3.1315    0.6913    1.7629 C   0  0  0  0  0  0  0  0  0  0  0  0
   -4.0705   -0.0128    2.2045 O   0  5  0  0  0  0  0  0  0  0  0  0
   -2.9137    1.8849    2.0993 O   0  0  0  0  0  0  0  0  0  0  0  0
    1.2884   -0.4541    0.7745 H   0  0  0  0  0  0  0  0  0  0  0  0
   -0.6293   -0.0700   -1.5337 H   0  0  0  0  0  0  0  0  0  0  0  0
   -1.5203    1.8490   -0.1678 H   0  0  0  0  0  0  0  0  0  0  0  0
   -0.5099    1.3246    1.1898 H   0  0  0  0  0  0  0  0  0  0  0  0
   -2.7556   -0.2970   -0.1129 H   0  0  0  0  0  0  0  0  0  0  0  0
   -1.7538   -0.8585    1.2304 H   0  0  0  0  0  0  0  0  0  0  0  0
    1.0517    2.6411   -0.6627 N   0  0  0  0  0  0  0  0  0  0  0  0
    1.9860    3.6854   -1.1137 C   0  0  2  0  0  0  0  0  0  0  0  0
    3.4548    3.4140   -0.6950 C   0  0  0  0  0  0  0  0  0  0  0  0
    4.1269    4.2516   -0.1026 O   0  0  0  0  0  0  0  0  0  0  0  0
    1.4536    5.0199   -0.5770 C   0  0  0  0  0  0  0  0  0  0  0  0
    0.4327    2.8501    0.1187 H   0  0  0  0  0  0  0  0  0  0  0  0
    1.9689    3.7341   -2.2075 H   0  0  0  0  0  0  0  0  0  0  0  0
    1.4662    5.0265    0.5177 H   0  0  0  0  0  0  0  0  0  0  0  0
    2.0724    5.8483   -0.9358 H   0  0  0  0  0  0  0  0  0  0  0  0
    0.4263    5.1854   -0.9163 H   0  0  0  0  0  0  0  0  0  0  0  0
    4.0400    2.2071   -1.0255 N   0  0  0  0  0  0  0  0  0  0  0  0
    5.4153    1.8448   -0.7179 C   0  0  0  0  0  0  0  0  0  0  0  0
    3.4518    1.5556   -1.5538 H   0  0  0  0  0  0  0  0  0  0  0  0
    6.1111    2.5401   -1.1987 H   0  0  0  0  0  0  0  0  0  0  0  0
    5.5835    1.8650    0.3638 H   0  0  0  0  0  0  0  0  0  0  0  0
    5.6273    0.8350   -1.0823 H   0  0  0  0  0  0  0  0  0  0  0  0
  1  2  2  0  0  0  0
  1  3  1  0  0  0  0
  1  7  1  0  0  0  0
  3  4  1  0  0  0  0
  3  5  1  0  0  0  0
  3  6  1  0  0  0  0
  7  8  1  0  0  0  0
  7 12  1  0  0  0  0
  8  9  1  0  0  0  0
  8 11  1  0  0  0  0
  8 13  1  0  0  0  0
  9 10  2  0  0  0  0
  9 17  1  0  0  0  0
 11 14  1  0  0  0  0
 11 15  1  0  0  0  0
 11 16  1  0  0  0  0
 17 18  1  0  0  0  0
 17 26  1  0  0  0  0
 18 19  1  0  0  0  0
 18 21  1  0  0  0  0
 18 27  1  0  0  0  0
 19 20  2  0  0  0  0
 19 32  1  0  0  0  0
 21 22  1  0  0  0  0
 21 28  1  0  0  0  0
 21 29  1  0  0  0  0
 22 23  1  0  0  0  0
 22 30  1  0  0  0  0
 22 31  1  0  0  0  0
 23 24  1  0  0  0  0
 23 25  2  0  0  0  0
 32 33  1  0  0  0  0
 32 37  1  0  0  0  0
 33 34  1  0  0  0  0
 33 36  1  0  0  0  0
 33 38  1  0  0  0  0
 34 35  2  0  0  0  0
 34 42  1  0  0  0  0
 36 39  1  0  0  0  0
 36 40  1  0  0  0  0
 36 41  1  0  0  0  0
 42 43  1  0  0  0  0
 42 44  1  0  0  0  0
 43 45  1  0  0  0  0
 43 46  1  0  0  0  0
 43 47  1  0  0  0  0
M  CHG  1  24  -1
M  END
$$$$

  -OEChem-05262216243D

 47 46  0     1  0  0  0  0  0999 V2000
    0.5269   -5.4630    1.5894 C   0  0  0  0  0  0  0  0  0  0  0  0
    1.2217   -5.3556    2.5886 O   0  0  0  0  0  0  0  0  0  0  0  0
   -0.3573   -6.6825    1.4045 C   0  0  0  0  0  0  0  0  0  0  0  0
   -0.1034   -7.1897    0.4705 H   0  0  0  0  0  0  0  0  0  0  0  0
   -0.2177   -7.3801    2.2347 H   0  0  0  0  0  0  0  0  0  0  0  0
   -1.4068   -6.3788    1.3724 H   0  0  0  0  0  0  0  0  0  0  0  0
    0.5424   -4.4825    0.6215 N   0  0  0  0  0  0  0  0  0  0  0  0
    1.1798   -3.1691    0.7722 C   0  0  2  0  0  0  0  0  0  0  0  0
    0.5081   -2.1262   -0.1462 C   0  0  0  0  0  0  0  0  0  0  0  0
   -0.2337   -2.5037   -1.0477 O   0  0  0  0  0  0  0  0  0  0  0  0
    2.6696   -3.2929    0.4340 C   0  0  0  0  0  0  0  0  0  0  0  0
   -0.1375   -4.5618   -0.1356 H   0  0  0  0  0  0  0  0  0  0  0  0
    1.0664   -2.8248    1.8058 H   0  0  0  0  0  0  0  0  0  0  0  0
    2.7981   -3.6384   -0.5967 H   0  0  0  0  0  0  0  0  0  0  0  0
    3.1702   -2.3263    0.5429 H   0  0  0  0  0  0  0  0  0  0  0  0
    3.1548   -4.0082    1.1050 H   0  0  0  0  0  0  0  0  0  0  0  0
    0.7718   -0.7800    0.0276 N   0  0  0  0  0  0  0  0  0  0  0  0
    0.0691    0.3012   -0.6834 C   0  0  2  0  0  0  0  0  0  0  0  0
    1.0773    1.3480   -1.2021 C   0  0  0  0  0  0  0  0  0  0  0  0
    1.7105    1.1414   -2.2312 O   0  0  0  0  0  0  0  0  0  0  0  0
   -0.9331    0.9627    0.2819 C   0  0  0  0  0  0  0  0  0  0  0  0
   -2.0955    0.0416    0.6951 C   0  0  0  0  0  0  0  0  0  0  0  0
   -3.0619    0.7197    1.6745 C   0  0  0  0  0  0  0  0  0  0  0  0
   -4.0662    0.0590    2.0309 O   0  5  0  0  0  0  0  0  0  0  0  0
   -2.7888    1.8796    2.0805 O   0  0  0  0  0  0  0  0  0  0  0  0
    1.3272   -0.5319    0.8400 H   0  0  0  0  0  0  0  0  0  0  0  0
   -0.4757   -0.0844   -1.5522 H   0  0  0  0  0  0  0  0  0  0  0  0
   -1.3572    1.8527   -0.1972 H   0  0  0  0  0  0  0  0  0  0  0  0
   -0.4099    1.2881    1.1877 H   0  0  0  0  0  0  0  0  0  0  0  0
   -2.6514   -0.2636   -0.1959 H   0  0  0  0  0  0  0  0  0  0  0  0
   -1.7069   -0.8610    1.1733 H   0  0  0  0  0  0  0  0  0  0  0  0
    1.4435    2.4367   -0.4281 N   0  0  0  0  0  0  0  0  0  0  0  0
    2.4423    3.4436   -0.8210 C   0  0  2  0  0  0  0  0  0  0  0  0
    3.9014    2.9669   -0.5991 C   0  0  0  0  0  0  0  0  0  0  0  0
    4.7247    3.6535   -0.0031 O   0  0  0  0  0  0  0  0  0  0  0  0
    2.1115    4.7276   -0.0504 C   0  0  0  0  0  0  0  0  0  0  0  0
    0.9043    2.5954    0.4207 H   0  0  0  0  0  0  0  0  0  0  0  0
    2.3355    3.6586   -1.8895 H   0  0  0  0  0  0  0  0  0  0  0  0
    2.2282    4.5706    1.0269 H   0  0  0  0  0  0  0  0  0  0  0  0
    2.7803    5.5378   -0.3575 H   0  0  0  0  0  0  0  0  0  0  0  0
    1.0812    5.0385   -0.2503 H   0  0  0  0  0  0  0  0  0  0  0  0
    4.2969    1.7431   -1.1039 N   0  0  0  0  0  0  0  0  0  0  0  0
    5.6475    1.2097   -1.0044 C   0  0  0  0  0  0  0  0  0  0  0  0
    3.5945    1.2406   -1.6549 H   0  0  0  0  0  0  0  0  0  0  0  0
    6.3511    1.8460   -1.5509 H   0  0  0  0  0  0  0  0  0  0  0  0
    5.9604    1.1534    0.0434 H   0  0  0  0  0  0  0  0  0  0  0  0
    5.6864    0.2027   -1.4306 H   0  0  0  0  0  0  0  0  0  0  0  0
  1  2  2  0  0  0  0
  1  3  1  0  0  0  0
  1  7  1  0  0  0  0
  3  4  1  0  0  0  0
  3  5  1  0  0  0  0
  3  6  1  0  0  0  0
  7  8  1  0  0  0  0
  7 12  1  0  0  0  0
  8  9  1  0  0  0  0
  8 11  1  0  0  0  0
  8 13  1  0  0  0  0
  9 10  2  0  0  0  0
  9 17  1  0  0  0  0
 11 14  1  0  0  0  0
 11 15  1  0  0  0  0
 11 16  1  0  0  0  0
 17 18  1  0  0  0  0
 17 26  1  0  0  0  0
 18 19  1  0  0  0  0
 18 21  1  0  0  0  0
 18 27  1  0  0  0  0
 19 20  2  0  0  0  0
 19 32  1  0  0  0  0
 21 22  1  0  0  0  0
 21 28  1  0  0  0  0
 21 29  1  0  0  0  0
 22 23  1  0  0  0  0
 22 30  1  0  0  0  0
 22 31  1  0  0  0  0
 23 24  1  0  0  0  0
 23 25  2  0  0  0  0
 32 33  1  0  0  0  0
 32 37  1  0  0  0  0
 33 34  1  0  0  0  0
 33 36  1  0  0  0  0
 33 38  1  0  0  0  0
 34 35  2  0  0  0  0
 34 42  1  0  0  0  0
 36 39  1  0  0  0  0
 36 40  1  0  0  0  0
 36 41  1  0  0  0  0
 42 43  1  0  0  0  0
 42 44  1  0  0  0  0
 43 45  1  0  0  0  0
 43 46  1  0  0  0  0
 43 47  1  0  0  0  0
M  CHG  1  24  -1
M  END
$$$$

  -OEChem-05262216243D

 47 46  0     1  0  0  0  0  0999 V2000
    0.6455   -5.4502    1.5929 C   0  0  0  0  0  0  0  0  0  0  0  0
    1.3949   -5.3361    2.5508 O   0  0  0  0  0  0  0  0  0  0  0  0
   -0.2481   -6.6707    1.4688 C   0  0  0  0  0  0  0  0  0  0  0  0
   -0.0322   -7.1977    0.5364 H   0  0  0  0  0  0  0  0  0  0  0  0
   -0.0765   -7.3512    2.3073 H   0  0  0  0  0  0  0  0  0  0  0  0
   -1.2977   -6.3658    1.4720 H   0  0  0  0  0  0  0  0  0  0  0  0
    0.6082   -4.4770    0.6184 N   0  0  0  0  0  0  0  0  0  0  0  0
    1.2590   -3.1657    0.7224 C   0  0  2  0  0  0  0  0  0  0  0  0
    0.5425   -2.1254   -0.1631 C   0  0  0  0  0  0  0  0  0  0  0  0
   -0.2226   -2.5046   -1.0439 O   0  0  0  0  0  0  0  0  0  0  0  0
    2.7271   -3.2943    0.2993 C   0  0  0  0  0  0  0  0  0  0  0  0
   -0.1092   -4.5623   -0.1022 H   0  0  0  0  0  0  0  0  0  0  0  0
    1.2068   -2.8140    1.7585 H   0  0  0  0  0  0  0  0  0  0  0  0
    2.7960   -3.6422   -0.7364 H   0  0  0  0  0  0  0  0  0  0  0  0
    3.2347   -2.3278    0.3766 H   0  0  0  0  0  0  0  0  0  0  0  0
    3.2491   -4.0088    0.9432 H   0  0  0  0  0  0  0  0  0  0  0  0
    0.8025   -0.7791    0.0105 N   0  0  0  0  0  0  0  0  0  0  0  0
    0.0854    0.3037   -0.6845 C   0  0  2  0  0  0  0  0  0  0  0  0
    1.0936    1.3450   -1.2066 C   0  0  0  0  0  0  0  0  0  0  0  0
    1.5486    1.2579   -2.3412 O   0  0  0  0  0  0  0  0  0  0  0  0
   -0.8932    0.9711    0.2988 C   0  0  0  0  0  0  0  0  0  0  0  0
   -2.0419    0.0485    0.7313 C   0  0  0  0  0  0  0  0  0  0  0  0
   -2.9441    0.7821    1.7212 C   0  0  0  0  0  0  0  0  0  0  0  0
   -2.4318    1.1046    2.8229 O   0  5  0  0  0  0  0  0  0  0  0  0
   -4.1089    1.0736    1.3588 O   0  0  0  0  0  0  0  0  0  0  0  0
    1.3717   -0.5341    0.8144 H   0  0  0  0  0  0  0  0  0  0  0  0
   -0.4753   -0.0777   -1.5451 H   0  0  0  0  0  0  0  0  0  0  0  0
   -1.3279    1.8597   -0.1727 H   0  0  0  0  0  0  0  0  0  0  0  0
   -0.3536    1.3006    1.1930 H   0  0  0  0  0  0  0  0  0  0  0  0
   -2.6213   -0.2633   -0.1429 H   0  0  0  0  0  0  0  0  0  0  0  0
   -1.6518   -0.8505    1.2152 H   0  0  0  0  0  0  0  0  0  0  0  0
    1.6978    2.2324   -0.3320 N   0  0  0  0  0  0  0  0  0  0  0  0
    2.8452    3.0877   -0.6707 C   0  0  2  0  0  0  0  0  0  0  0  0
    4.1830    2.3045   -0.6678 C   0  0  0  0  0  0  0  0  0  0  0  0
    5.1359    2.6494    0.0229 O   0  0  0  0  0  0  0  0  0  0  0  0
    2.8369    4.2646    0.3122 C   0  0  0  0  0  0  0  0  0  0  0  0
    1.3348    2.2602    0.6177 H   0  0  0  0  0  0  0  0  0  0  0  0
    2.7105    3.4939   -1.6787 H   0  0  0  0  0  0  0  0  0  0  0  0
    2.9906    3.9123    1.3372 H   0  0  0  0  0  0  0  0  0  0  0  0
    3.6353    4.9716    0.0654 H   0  0  0  0  0  0  0  0  0  0  0  0
    1.8800    4.7938    0.2641 H   0  0  0  0  0  0  0  0  0  0  0  0
    4.3040    1.1757   -1.4552 N   0  0  0  0  0  0  0  0  0  0  0  0
    5.4865    0.3289   -1.5052 C   0  0  0  0  0  0  0  0  0  0  0  0
    3.4808    0.9262   -2.0118 H   0  0  0  0  0  0  0  0  0  0  0  0
    6.3634    0.9120   -1.8045 H   0  0  0  0  0  0  0  0  0  0  0  0
    5.6770   -0.1194   -0.5248 H   0  0  0  0  0  0  0  0  0  0  0  0
    5.3412   -0.4759   -2.2323 H   0  0  0  0  0  0  0  0  0  0  0  0
  1  2  2  0  0  0  0
  1  3  1  0  0  0  0
  1  7  1  0  0  0  0
  3  4  1  0  0  0  0
  3  5  1  0  0  0  0
  3  6  1  0  0  0  0
  7  8  1  0  0  0  0
  7 12  1  0  0  0  0
  8  9  1  0  0  0  0
  8 11  1  0  0  0  0
  8 13  1  0  0  0  0
  9 10  2  0  0  0  0
  9 17  1  0  0  0  0
 11 14  1  0  0  0  0
 11 15  1  0  0  0  0
 11 16  1  0  0  0  0
 17 18  1  0  0  0  0
 17 26  1  0  0  0  0
 18 19  1  0  0  0  0
 18 21  1  0  0  0  0
 18 27  1  0  0  0  0
 19 20  2  0  0  0  0
 19 32  1  0  0  0  0
 21 22  1  0  0  0  0
 21 28  1  0  0  0  0
 21 29  1  0  0  0  0
 22 23  1  0  0  0  0
 22 30  1  0  0  0  0
 22 31  1  0  0  0  0
 23 24  1  0  0  0  0
 23 25  2  0  0  0  0
 32 33  1  0  0  0  0
 32 37  1  0  0  0  0
 33 34  1  0  0  0  0
 33 36  1  0  0  0  0
 33 38  1  0  0  0  0
 34 35  2  0  0  0  0
 34 42  1  0  0  0  0
 36 39  1  0  0  0  0
 36 40  1  0  0  0  0
 36 41  1  0  0  0  0
 42 43  1  0  0  0  0
 42 44  1  0  0  0  0
 43 45  1  0  0  0  0
 43 46  1  0  0  0  0
 43 47  1  0  0  0  0
M  CHG  1  24  -1
M  END
$$$$

  -OEChem-05262216243D

 47 46  0     1  0  0  0  0  0999 V2000
    0.0184   -5.7326    1.6641 C   0  0  0  0  0  0  0  0  0  0  0  0
    0.9717   -5.7781    2.4264 O   0  0  0  0  0  0  0  0  0  0  0  0
   -1.1085   -6.7403    1.7973 C   0  0  0  0  0  0  0  0  0  0  0  0
   -1.2244   -7.2971    0.8644 H   0  0  0  0  0  0  0  0  0  0  0  0
   -0.8919   -7.4452    2.6047 H   0  0  0  0  0  0  0  0  0  0  0  0
   -2.0448   -6.2235    2.0230 H   0  0  0  0  0  0  0  0  0  0  0  0
   -0.0414   -4.7724    0.6782 N   0  0  0  0  0  0  0  0  0  0  0  0
    0.8606   -3.6187    0.5772 C   0  0  2  0  0  0  0  0  0  0  0  0
    0.1800   -2.4629   -0.1862 C   0  0  0  0  0  0  0  0  0  0  0  0
   -0.7953   -2.7020   -0.8916 O   0  0  0  0  0  0  0  0  0  0  0  0
    2.1448   -4.0426   -0.1436 C   0  0  0  0  0  0  0  0  0  0  0  0
   -0.9026   -4.7120    0.1341 H   0  0  0  0  0  0  0  0  0  0  0  0
    1.1070   -3.2578    1.5818 H   0  0  0  0  0  0  0  0  0  0  0  0
    1.9124   -4.4165   -1.1458 H   0  0  0  0  0  0  0  0  0  0  0  0
    2.8297   -3.1942   -0.2378 H   0  0  0  0  0  0  0  0  0  0  0  0
    2.6531   -4.8342    0.4155 H   0  0  0  0  0  0  0  0  0  0  0  0
    0.6801   -1.1772   -0.0881 N   0  0  0  0  0  0  0  0  0  0  0  0
   -0.0253    0.0195   -0.5848 C   0  0  2  0  0  0  0  0  0  0  0  0
    0.9366    0.9413   -1.3597 C   0  0  0  0  0  0  0  0  0  0  0  0
    0.7744    1.1708   -2.5519 O   0  0  0  0  0  0  0  0  0  0  0  0
   -0.5992    0.7907    0.6172 C   0  0  0  0  0  0  0  0  0  0  0  0
   -1.7165    0.0257    1.3433 C   0  0  0  0  0  0  0  0  0  0  0  0
   -2.2171    0.8393    2.5352 C   0  0  0  0  0  0  0  0  0  0  0  0
   -1.4143    1.0015    3.4887 O   0  5  0  0  0  0  0  0  0  0  0  0
   -3.3711    1.3287    2.4780 O   0  0  0  0  0  0  0  0  0  0  0  0
    1.4100   -1.0408    0.6048 H   0  0  0  0  0  0  0  0  0  0  0  0
   -0.8431   -0.2521   -1.2613 H   0  0  0  0  0  0  0  0  0  0  0  0
   -1.0088    1.7452    0.2674 H   0  0  0  0  0  0  0  0  0  0  0  0
    0.2005    1.0177    1.3306 H   0  0  0  0  0  0  0  0  0  0  0  0
   -2.5426   -0.1717    0.6537 H   0  0  0  0  0  0  0  0  0  0  0  0
   -1.3482   -0.9355    1.7106 H   0  0  0  0  0  0  0  0  0  0  0  0
    2.0450    1.4691   -0.7225 N   0  0  0  0  0  0  0  0  0  0  0  0
    3.1490    2.1639   -1.3936 C   0  0  2  0  0  0  0  0  0  0  0  0
    4.5258    1.6596   -0.9113 C   0  0  0  0  0  0  0  0  0  0  0  0
    4.6204    0.9520    0.0866 O   0  0  0  0  0  0  0  0  0  0  0  0
    2.9892    3.6615   -1.1222 C   0  0  0  0  0  0  0  0  0  0  0  0
    2.2017    1.1743    0.2389 H   0  0  0  0  0  0  0  0  0  0  0  0
    3.1046    1.9908   -2.4737 H   0  0  0  0  0  0  0  0  0  0  0  0
    3.0308    3.8631   -0.0468 H   0  0  0  0  0  0  0  0  0  0  0  0
    3.7831    4.2293   -1.6160 H   0  0  0  0  0  0  0  0  0  0  0  0
    2.0248    4.0113   -1.5048 H   0  0  0  0  0  0  0  0  0  0  0  0
    5.6717    1.9999   -1.6078 N   0  0  0  0  0  0  0  0  0  0  0  0
    7.0063    1.5631   -1.2191 C   0  0  0  0  0  0  0  0  0  0  0  0
    5.5613    2.5709   -2.4405 H   0  0  0  0  0  0  0  0  0  0  0  0
    7.2470    1.9185   -0.2118 H   0  0  0  0  0  0  0  0  0  0  0  0
    7.0709    0.4702   -1.2325 H   0  0  0  0  0  0  0  0  0  0  0  0
    7.7516    1.9625   -1.9135 H   0  0  0  0  0  0  0  0  0  0  0  0
  1  2  2  0  0  0  0
  1  3  1  0  0  0  0
  1  7  1  0  0  0  0
  3  4  1  0  0  0  0
  3  5  1  0  0  0  0
  3  6  1  0  0  0  0
  7  8  1  0  0  0  0
  7 12  1  0  0  0  0
  8  9  1  0  0  0  0
  8 11  1  0  0  0  0
  8 13  1  0  0  0  0
  9 10  2  0  0  0  0
  9 17  1  0  0  0  0
 11 14  1  0  0  0  0
 11 15  1  0  0  0  0
 11 16  1  0  0  0  0
 17 18  1  0  0  0  0
 17 26  1  0  0  0  0
 18 19  1  0  0  0  0
 18 21  1  0  0  0  0
 18 27  1  0  0  0  0
 19 20  2  0  0  0  0
 19 32  1  0  0  0  0
 21 22  1  0  0  0  0
 21 28  1  0  0  0  0
 21 29  1  0  0  0  0
 22 23  1  0  0  0  0
 22 30  1  0  0  0  0
 22 31  1  0  0  0  0
 23 24  1  0  0  0  0
 23 25  2  0  0  0  0
 32 33  1  0  0  0  0
 32 37  1  0  0  0  0
 33 34  1  0  0  0  0
 33 36  1  0  0  0  0
 33 38  1  0  0  0  0
 34 35  2  0  0  0  0
 34 42  1  0  0  0  0
 36 39  1  0  0  0  0
 36 40  1  0  0  0  0
 36 41  1  0  0  0  0
 42 43  1  0  0  0  0
 42 44  1  0  0  0  0
 43 45  1  0  0  0  0
 43 46  1  0  0  0  0
 43 47  1  0  0  0  0
M  CHG  1  24  -1
M  END
$$$$

  -OEChem-05262216243D

 47 46  0     1  0  0  0  0  0999 V2000
   -0.1353   -5.7724    1.6874 C   0  0  0  0  0  0  0  0  0  0  0  0
    0.7714   -5.8272    2.5041 O   0  0  0  0  0  0  0  0  0  0  0  0
   -1.2631   -6.7865    1.7390 C   0  0  0  0  0  0  0  0  0  0  0  0
   -1.3855   -7.2593    0.7615 H   0  0  0  0  0  0  0  0  0  0  0  0
   -1.0413   -7.5601    2.4794 H   0  0  0  0  0  0  0  0  0  0  0  0
   -2.1969   -6.2899    2.0154 H   0  0  0  0  0  0  0  0  0  0  0  0
   -0.1383   -4.8017    0.7095 N   0  0  0  0  0  0  0  0  0  0  0  0
    0.7860   -3.6629    0.6519 C   0  0  2  0  0  0  0  0  0  0  0  0
    0.1782   -2.5065   -0.1701 C   0  0  0  0  0  0  0  0  0  0  0  0
   -0.7592   -2.7341   -0.9285 O   0  0  0  0  0  0  0  0  0  0  0  0
    2.1082   -4.1165    0.0224 C   0  0  0  0  0  0  0  0  0  0  0  0
   -0.9618   -4.7392    0.1104 H   0  0  0  0  0  0  0  0  0  0  0  0
    0.9716   -3.2926    1.6660 H   0  0  0  0  0  0  0  0  0  0  0  0
    1.9367   -4.4978   -0.9895 H   0  0  0  0  0  0  0  0  0  0  0  0
    2.8130   -3.2812   -0.0343 H   0  0  0  0  0  0  0  0  0  0  0  0
    2.5652   -4.9097    0.6220 H   0  0  0  0  0  0  0  0  0  0  0  0
    0.7135   -1.2348   -0.0743 N   0  0  0  0  0  0  0  0  0  0  0  0
    0.0335   -0.0258   -0.5803 C   0  0  2  0  0  0  0  0  0  0  0  0
    1.0050    0.8802   -1.3628 C   0  0  0  0  0  0  0  0  0  0  0  0
    0.6898    1.3626   -2.4436 O   0  0  0  0  0  0  0  0  0  0  0  0
   -0.5094    0.7637    0.6237 C   0  0  0  0  0  0  0  0  0  0  0  0
   -1.6377    0.0249    1.3629 C   0  0  0  0  0  0  0  0  0  0  0  0
   -2.1155    0.8456    2.5597 C   0  0  0  0  0  0  0  0  0  0  0  0
   -1.2806    1.0468    3.4778 O   0  5  0  0  0  0  0  0  0  0  0  0
   -3.2925    1.2804    2.5525 O   0  0  0  0  0  0  0  0  0  0  0  0
    1.3663   -1.1082    0.6929 H   0  0  0  0  0  0  0  0  0  0  0  0
   -0.7951   -0.2827   -1.2495 H   0  0  0  0  0  0  0  0  0  0  0  0
   -0.9019    1.7253    0.2739 H   0  0  0  0  0  0  0  0  0  0  0  0
    0.3046    0.9781    1.3250 H   0  0  0  0  0  0  0  0  0  0  0  0
   -2.4727   -0.1548    0.6788 H   0  0  0  0  0  0  0  0  0  0  0  0
   -1.2878   -0.9439    1.7279 H   0  0  0  0  0  0  0  0  0  0  0  0
    2.2646    1.1471   -0.8574 N   0  0  0  0  0  0  0  0  0  0  0  0
    3.3355    1.8269   -1.5937 C   0  0  2  0  0  0  0  0  0  0  0  0
    4.7026    1.1477   -1.3660 C   0  0  0  0  0  0  0  0  0  0  0  0
    4.8560    0.3460   -0.4495 O   0  0  0  0  0  0  0  0  0  0  0  0
    3.3695    3.2858   -1.1323 C   0  0  0  0  0  0  0  0  0  0  0  0
    2.5370    0.6402   -0.0190 H   0  0  0  0  0  0  0  0  0  0  0  0
    3.1312    1.7947   -2.6690 H   0  0  0  0  0  0  0  0  0  0  0  0
    3.5873    3.3430   -0.0609 H   0  0  0  0  0  0  0  0  0  0  0  0
    4.1377    3.8438   -1.6757 H   0  0  0  0  0  0  0  0  0  0  0  0
    2.4006    3.7619   -1.3158 H   0  0  0  0  0  0  0  0  0  0  0  0
    5.7704    1.4350   -2.1974 N   0  0  0  0  0  0  0  0  0  0  0  0
    7.0891    0.8332   -2.0465 C   0  0  0  0  0  0  0  0  0  0  0  0
    5.6087    2.0869   -2.9594 H   0  0  0  0  0  0  0  0  0  0  0  0
    7.5310    1.1159   -1.0851 H   0  0  0  0  0  0  0  0  0  0  0  0
    7.0205   -0.2588   -2.0960 H   0  0  0  0  0  0  0  0  0  0  0  0
    7.7535    1.1735   -2.8465 H   0  0  0  0  0  0  0  0  0  0  0  0
  1  2  2  0  0  0  0
  1  3  1  0  0  0  0
  1  7  1  0  0  0  0
  3  4  1  0  0  0  0
  3  5  1  0  0  0  0
  3  6  1  0  0  0  0
  7  8  1  0  0  0  0
  7 12  1  0  0  0  0
  8  9  1  0  0  0  0
  8 11  1  0  0  0  0
  8 13  1  0  0  0  0
  9 10  2  0  0  0  0
  9 17  1  0  0  0  0
 11 14  1  0  0  0  0
 11 15  1  0  0  0  0
 11 16  1  0  0  0  0
 17 18  1  0  0  0  0
 17 26  1  0  0  0  0
 18 19  1  0  0  0  0
 18 21  1  0  0  0  0
 18 27  1  0  0  0  0
 19 20  2  0  0  0  0
 19 32  1  0  0  0  0
 21 22  1  0  0  0  0
 21 28  1  0  0  0  0
 21 29  1  0  0  0  0
 22 23  1  0  0  0  0
 22 30  1  0  0  0  0
 22 31  1  0  0  0  0
 23 24  1  0  0  0  0
 23 25  2  0  0  0  0
 32 33  1  0  0  0  0
 32 37  1  0  0  0  0
 33 34  1  0  0  0  0
 33 36  1  0  0  0  0
 33 38  1  0  0  0  0
 34 35  2  0  0  0  0
 34 42  1  0  0  0  0
 36 39  1  0  0  0  0
 36 40  1  0  0  0  0
 36 41  1  0  0  0  0
 42 43  1  0  0  0  0
 42 44  1  0  0  0  0
 43 45  1  0  0  0  0
 43 46  1  0  0  0  0
 43 47  1  0  0  0  0
M  CHG  1  24  -1
M  END
$$$$

  -OEChem-05262216243D

 47 46  0     1  0  0  0  0  0999 V2000
   -0.2714   -5.7970    1.7316 C   0  0  0  0  0  0  0  0  0  0  0  0
    0.5927   -5.8523    2.5932 O   0  0  0  0  0  0  0  0  0  0  0  0
   -1.4306   -6.7762    1.7555 C   0  0  0  0  0  0  0  0  0  0  0  0
   -1.5041   -7.2917    0.7950 H   0  0  0  0  0  0  0  0  0  0  0  0
   -1.2820   -7.5190    2.5440 H   0  0  0  0  0  0  0  0  0  0  0  0
   -2.3644   -6.2408    1.9460 H   0  0  0  0  0  0  0  0  0  0  0  0
   -0.2057   -4.8486    0.7341 N   0  0  0  0  0  0  0  0  0  0  0  0
    0.7288   -3.7168    0.7138 C   0  0  2  0  0  0  0  0  0  0  0  0
    0.1752   -2.5674   -0.1555 C   0  0  0  0  0  0  0  0  0  0  0  0
   -0.7352   -2.7928   -0.9469 O   0  0  0  0  0  0  0  0  0  0  0  0
    2.0832   -4.1868    0.1694 C   0  0  0  0  0  0  0  0  0  0  0  0
   -1.0014   -4.7803    0.0991 H   0  0  0  0  0  0  0  0  0  0  0  0
    0.8573   -3.3336    1.7319 H   0  0  0  0  0  0  0  0  0  0  0  0
    1.9723   -4.5729   -0.8488 H   0  0  0  0  0  0  0  0  0  0  0  0
    2.7992   -3.3592    0.1521 H   0  0  0  0  0  0  0  0  0  0  0  0
    2.4937   -4.9809    0.8003 H   0  0  0  0  0  0  0  0  0  0  0  0
    0.7406   -1.3073   -0.0802 N   0  0  0  0  0  0  0  0  0  0  0  0
    0.0730   -0.0944   -0.5953 C   0  0  2  0  0  0  0  0  0  0  0  0
    1.0445    0.7874   -1.4058 C   0  0  0  0  0  0  0  0  0  0  0  0
    0.6405    1.5094   -2.3090 O   0  0  0  0  0  0  0  0  0  0  0  0
   -0.4257    0.7216    0.6102 C   0  0  0  0  0  0  0  0  0  0  0  0
   -1.5496    0.0153    1.3874 C   0  0  0  0  0  0  0  0  0  0  0  0
   -1.9819    0.8620    2.5834 C   0  0  0  0  0  0  0  0  0  0  0  0
   -1.1303    1.0370    3.4913 O   0  5  0  0  0  0  0  0  0  0  0  0
   -3.1427    1.3382    2.5871 O   0  0  0  0  0  0  0  0  0  0  0  0
    1.3428   -1.1750    0.7273 H   0  0  0  0  0  0  0  0  0  0  0  0
   -0.7737   -0.3435   -1.2445 H   0  0  0  0  0  0  0  0  0  0  0  0
   -0.8089    1.6858    0.2570 H   0  0  0  0  0  0  0  0  0  0  0  0
    0.4107    0.9308    1.2863 H   0  0  0  0  0  0  0  0  0  0  0  0
   -2.4051   -0.1572    0.7271 H   0  0  0  0  0  0  0  0  0  0  0  0
   -1.2100   -0.9551    1.7579 H   0  0  0  0  0  0  0  0  0  0  0  0
    2.3930    0.7980   -1.1001 N   0  0  0  0  0  0  0  0  0  0  0  0
    3.4214    1.4880   -1.8842 C   0  0  2  0  0  0  0  0  0  0  0  0
    4.7327    0.6766   -1.9371 C   0  0  0  0  0  0  0  0  0  0  0  0
    4.9186   -0.2618   -1.1676 O   0  0  0  0  0  0  0  0  0  0  0  0
    3.6585    2.8616   -1.2515 C   0  0  0  0  0  0  0  0  0  0  0  0
    2.7160    0.0765   -0.4599 H   0  0  0  0  0  0  0  0  0  0  0  0
    3.0781    1.6202   -2.9159 H   0  0  0  0  0  0  0  0  0  0  0  0
    4.0091    2.7520   -0.2203 H   0  0  0  0  0  0  0  0  0  0  0  0
    4.4071    3.4232   -1.8178 H   0  0  0  0  0  0  0  0  0  0  0  0
    2.7279    3.4381   -1.2427 H   0  0  0  0  0  0  0  0  0  0  0  0
    5.7088    0.9947   -2.8642 N   0  0  0  0  0  0  0  0  0  0  0  0
    6.9580    0.2568   -2.9979 C   0  0  0  0  0  0  0  0  0  0  0  0
    5.5127    1.7563   -3.5073 H   0  0  0  0  0  0  0  0  0  0  0  0
    7.5309    0.3011   -2.0658 H   0  0  0  0  0  0  0  0  0  0  0  0
    6.7583   -0.7921   -3.2401 H   0  0  0  0  0  0  0  0  0  0  0  0
    7.5667    0.6870   -3.7986 H   0  0  0  0  0  0  0  0  0  0  0  0
  1  2  2  0  0  0  0
  1  3  1  0  0  0  0
  1  7  1  0  0  0  0
  3  4  1  0  0  0  0
  3  5  1  0  0  0  0
  3  6  1  0  0  0  0
  7  8  1  0  0  0  0
  7 12  1  0  0  0  0
  8  9  1  0  0  0  0
  8 11  1  0  0  0  0
  8 13  1  0  0  0  0
  9 10  2  0  0  0  0
  9 17  1  0  0  0  0
 11 14  1  0  0  0  0
 11 15  1  0  0  0  0
 11 16  1  0  0  0  0
 17 18  1  0  0  0  0
 17 26  1  0  0  0  0
 18 19  1  0  0  0  0
 18 21  1  0  0  0  0
 18 27  1  0  0  0  0
 19 20  2  0  0  0  0
 19 32  1  0  0  0  0
 21 22  1  0  0  0  0
 21 28  1  0  0  0  0
 21 29  1  0  0  0  0
 22 23  1  0  0  0  0
 22 30  1  0  0  0  0
 22 31  1  0  0  0  0
 23 24  1  0  0  0  0
 23 25  2  0  0  0  0
 32 33  1  0  0  0  0
 32 37  1  0  0  0  0
 33 34  1  0  0  0  0
 33 36  1  0  0  0  0
 33 38  1  0  0  0  0
 34 35  2  0  0  0  0
 34 42  1  0  0  0  0
 36 39  1  0  0  0  0
 36 40  1  0  0  0  0
 36 41  1  0  0  0  0
 42 43  1  0  0  0  0
 42 44  1  0  0  0  0
 43 45  1  0  0  0  0
 43 46  1  0  0  0  0
 43 47  1  0  0  0  0
M  CHG  1  24  -1
M  END
$$$$

  -OEChem-05262216243D

 47 46  0     1  0  0  0  0  0999 V2000
   -0.3198   -5.7844    1.8114 C   0  0  0  0  0  0  0  0  0  0  0  0
    0.5560   -5.8381    2.6611 O   0  0  0  0  0  0  0  0  0  0  0  0
   -1.4827   -6.7579    1.8590 C   0  0  0  0  0  0  0  0  0  0  0  0
   -1.6014   -7.2459    0.8886 H   0  0  0  0  0  0  0  0  0  0  0  0
   -1.3035   -7.5231    2.6192 H   0  0  0  0  0  0  0  0  0  0  0  0
   -2.4036   -6.2234    2.1055 H   0  0  0  0  0  0  0  0  0  0  0  0
   -0.2594   -4.8483    0.8019 N   0  0  0  0  0  0  0  0  0  0  0  0
    0.6960   -3.7352    0.7457 C   0  0  2  0  0  0  0  0  0  0  0  0
    0.1583   -2.5950   -0.1446 C   0  0  0  0  0  0  0  0  0  0  0  0
   -0.7591   -2.8197   -0.9279 O   0  0  0  0  0  0  0  0  0  0  0  0
    2.0346   -4.2425    0.1959 C   0  0  0  0  0  0  0  0  0  0  0  0
   -1.0617   -4.7808    0.1752 H   0  0  0  0  0  0  0  0  0  0  0  0
    0.8423   -3.3318    1.7538 H   0  0  0  0  0  0  0  0  0  0  0  0
    1.9013   -4.6561   -0.8089 H   0  0  0  0  0  0  0  0  0  0  0  0
    2.7626   -3.4271    0.1432 H   0  0  0  0  0  0  0  0  0  0  0  0
    2.4426   -5.0247    0.8433 H   0  0  0  0  0  0  0  0  0  0  0  0
    0.7445   -1.3430   -0.0948 N   0  0  0  0  0  0  0  0  0  0  0  0
    0.0843   -0.1270   -0.6133 C   0  0  2  0  0  0  0  0  0  0  0  0
    1.0504    0.7352   -1.4541 C   0  0  0  0  0  0  0  0  0  0  0  0
    0.6370    1.6434   -2.1646 O   0  0  0  0  0  0  0  0  0  0  0  0
   -0.3896    0.6971    0.5974 C   0  0  0  0  0  0  0  0  0  0  0  0
   -1.5105   -0.0004    1.3885 C   0  0  0  0  0  0  0  0  0  0  0  0
   -1.9249    0.8453    2.5910 C   0  0  0  0  0  0  0  0  0  0  0  0
   -1.0652    1.0039    3.4944 O   0  5  0  0  0  0  0  0  0  0  0  0
   -3.0826    1.3292    2.6086 O   0  0  0  0  0  0  0  0  0  0  0  0
    1.3547   -1.2056    0.7064 H   0  0  0  0  0  0  0  0  0  0  0  0
   -0.7751   -0.3717   -1.2463 H   0  0  0  0  0  0  0  0  0  0  0  0
   -0.7694    1.6642    0.2477 H   0  0  0  0  0  0  0  0  0  0  0  0
    0.4574    0.9006    1.2617 H   0  0  0  0  0  0  0  0  0  0  0  0
   -2.3741   -0.1658    0.7373 H   0  0  0  0  0  0  0  0  0  0  0  0
   -1.1748   -0.9736    1.7551 H   0  0  0  0  0  0  0  0  0  0  0  0
    2.4139    0.5122   -1.3939 N   0  0  0  0  0  0  0  0  0  0  0  0
    3.4088    1.1891   -2.2319 C   0  0  2  0  0  0  0  0  0  0  0  0
    4.5927    0.2611   -2.5758 C   0  0  0  0  0  0  0  0  0  0  0  0
    4.7601   -0.7908   -1.9658 O   0  0  0  0  0  0  0  0  0  0  0  0
    3.8972    2.4329   -1.4839 C   0  0  0  0  0  0  0  0  0  0  0  0
    2.7069   -0.3492   -0.9374 H   0  0  0  0  0  0  0  0  0  0  0  0
    2.9489    1.4942   -3.1777 H   0  0  0  0  0  0  0  0  0  0  0  0
    4.3668    2.1487   -0.5368 H   0  0  0  0  0  0  0  0  0  0  0  0
    4.6268    2.9829   -2.0855 H   0  0  0  0  0  0  0  0  0  0  0  0
    3.0556    3.0993   -1.2686 H   0  0  0  0  0  0  0  0  0  0  0  0
    5.4756    0.6071   -3.5830 N   0  0  0  0  0  0  0  0  0  0  0  0
    6.6046   -0.2236   -3.9801 C   0  0  0  0  0  0  0  0  0  0  0  0
    5.2975    1.4723   -4.0847 H   0  0  0  0  0  0  0  0  0  0  0  0
    7.2805   -0.3802   -3.1331 H   0  0  0  0  0  0  0  0  0  0  0  0
    6.2557   -1.1976   -4.3390 H   0  0  0  0  0  0  0  0  0  0  0  0
    7.1654    0.2612   -4.7847 H   0  0  0  0  0  0  0  0  0  0  0  0
  1  2  2  0  0  0  0
  1  3  1  0  0  0  0
  1  7  1  0  0  0  0
  3  4  1  0  0  0  0
  3  5  1  0  0  0  0
  3  6  1  0  0  0  0
  7  8  1  0  0  0  0
  7 12  1  0  0  0  0
  8  9  1  0  0  0  0
  8 11  1  0  0  0  0
  8 13  1  0  0  0  0
  9 10  2  0  0  0  0
  9 17  1  0  0  0  0
 11 14  1  0  0  0  0
 11 15  1  0  0  0  0
 11 16  1  0  0  0  0
 17 18  1  0  0  0  0
 17 26  1  0  0  0  0
 18 19  1  0  0  0  0
 18 21  1  0  0  0  0
 18 27  1  0  0  0  0
 19 20  2  0  0  0  0
 19 32  1  0  0  0  0
 21 22  1  0  0  0  0
 21 28  1  0  0  0  0
 21 29  1  0  0  0  0
 22 23  1  0  0  0  0
 22 30  1  0  0  0  0
 22 31  1  0  0  0  0
 23 24  1  0  0  0  0
 23 25  2  0  0  0  0
 32 33  1  0  0  0  0
 32 37  1  0  0  0  0
 33 34  1  0  0  0  0
 33 36  1  0  0  0  0
 33 38  1  0  0  0  0
 34 35  2  0  0  0  0
 34 42  1  0  0  0  0
 36 39  1  0  0  0  0
 36 40  1  0  0  0  0
 36 41  1  0  0  0  0
 42 43  1  0  0  0  0
 42 44  1  0  0  0  0
 43 45  1  0  0  0  0
 43 46  1  0  0  0  0
 43 47  1  0  0  0  0
M  CHG  1  24  -1
M  END
$$$$

  -OEChem-05262216243D

 47 46  0     1  0  0  0  0  0999 V2000
   -0.2871   -5.7602    1.8533 C   0  0  0  0  0  0  0  0  0  0  0  0
    0.6219   -5.8113    2.6674 O   0  0  0  0  0  0  0  0  0  0  0  0
   -1.4598   -6.7170    1.9651 C   0  0  0  0  0  0  0  0  0  0  0  0
   -1.6016   -7.2471    1.0202 H   0  0  0  0  0  0  0  0  0  0  0  0
   -1.2764   -7.4493    2.7560 H   0  0  0  0  0  0  0  0  0  0  0  0
   -2.3701   -6.1611    2.2037 H   0  0  0  0  0  0  0  0  0  0  0  0
   -0.2542   -4.8422    0.8261 N   0  0  0  0  0  0  0  0  0  0  0  0
    0.7088   -3.7397    0.7181 C   0  0  2  0  0  0  0  0  0  0  0  0
    0.1393   -2.5989   -0.1509 C   0  0  0  0  0  0  0  0  0  0  0  0
   -0.8018   -2.8242   -0.9053 O   0  0  0  0  0  0  0  0  0  0  0  0
    2.0120   -4.2644    0.1047 C   0  0  0  0  0  0  0  0  0  0  0  0
   -1.0784   -4.7759    0.2288 H   0  0  0  0  0  0  0  0  0  0  0  0
    0.9097   -3.3333    1.7155 H   0  0  0  0  0  0  0  0  0  0  0  0
    1.8251   -4.6772   -0.8918 H   0  0  0  0  0  0  0  0  0  0  0  0
    2.7466   -3.4585    0.0155 H   0  0  0  0  0  0  0  0  0  0  0  0
    2.4411   -5.0507    0.7327 H   0  0  0  0  0  0  0  0  0  0  0  0
    0.7287   -1.3478   -0.1275 N   0  0  0  0  0  0  0  0  0  0  0  0
    0.0561   -0.1334   -0.6336 C   0  0  2  0  0  0  0  0  0  0  0  0
    1.0072    0.7138   -1.5079 C   0  0  0  0  0  0  0  0  0  0  0  0
    0.6429    1.7613   -2.0279 O   0  0  0  0  0  0  0  0  0  0  0  0
   -0.3818    0.6909    0.5920 C   0  0  0  0  0  0  0  0  0  0  0  0
   -1.4798   -0.0075    1.4142 C   0  0  0  0  0  0  0  0  0  0  0  0
   -1.8596    0.8360    2.6293 C   0  0  0  0  0  0  0  0  0  0  0  0
   -0.9783    0.9810    3.5139 O   0  5  0  0  0  0  0  0  0  0  0  0
   -3.0135    1.3268    2.6778 O   0  0  0  0  0  0  0  0  0  0  0  0
    1.3727   -1.2043    0.6461 H   0  0  0  0  0  0  0  0  0  0  0  0
   -0.8211   -0.3784   -1.2416 H   0  0  0  0  0  0  0  0  0  0  0  0
   -0.7724    1.6584    0.2564 H   0  0  0  0  0  0  0  0  0  0  0  0
    0.4847    0.8937    1.2310 H   0  0  0  0  0  0  0  0  0  0  0  0
   -2.3615   -0.1721    0.7877 H   0  0  0  0  0  0  0  0  0  0  0  0
   -1.1338   -0.9810    1.7703 H   0  0  0  0  0  0  0  0  0  0  0  0
    2.3060    0.2908   -1.7219 N   0  0  0  0  0  0  0  0  0  0  0  0
    3.2714    0.9502   -2.6064 C   0  0  2  0  0  0  0  0  0  0  0  0
    4.2909   -0.0528   -3.1865 C   0  0  0  0  0  0  0  0  0  0  0  0
    4.4159   -1.1711   -2.6964 O   0  0  0  0  0  0  0  0  0  0  0  0
    3.9894    2.0424   -1.8075 C   0  0  0  0  0  0  0  0  0  0  0  0
    2.5252   -0.6563   -1.4170 H   0  0  0  0  0  0  0  0  0  0  0  0
    2.7423    1.4066   -3.4497 H   0  0  0  0  0  0  0  0  0  0  0  0
    4.5261    1.6040   -0.9601 H   0  0  0  0  0  0  0  0  0  0  0  0
    4.7068    2.5733   -2.4398 H   0  0  0  0  0  0  0  0  0  0  0  0
    3.2663    2.7689   -1.4227 H   0  0  0  0  0  0  0  0  0  0  0  0
    5.0748    0.3016   -4.2700 N   0  0  0  0  0  0  0  0  0  0  0  0
    6.0424   -0.5957   -4.8877 C   0  0  0  0  0  0  0  0  0  0  0  0
    4.9296    1.2238   -4.6706 H   0  0  0  0  0  0  0  0  0  0  0  0
    6.7885   -0.9188   -4.1542 H   0  0  0  0  0  0  0  0  0  0  0  0
    5.5397   -1.4799   -5.2929 H   0  0  0  0  0  0  0  0  0  0  0  0
    6.5605   -0.0863   -5.7057 H   0  0  0  0  0  0  0  0  0  0  0  0
  1  2  2  0  0  0  0
  1  3  1  0  0  0  0
  1  7  1  0  0  0  0
  3  4  1  0  0  0  0
  3  5  1  0  0  0  0
  3  6  1  0  0  0  0
  7  8  1  0  0  0  0
  7 12  1  0  0  0  0
  8  9  1  0  0  0  0
  8 11  1  0  0  0  0
  8 13  1  0  0  0  0
  9 10  2  0  0  0  0
  9 17  1  0  0  0  0
 11 14  1  0  0  0  0
 11 15  1  0  0  0  0
 11 16  1  0  0  0  0
 17 18  1  0  0  0  0
 17 26  1  0  0  0  0
 18 19  1  0  0  0  0
 18 21  1  0  0  0  0
 18 27  1  0  0  0  0
 19 20  2  0  0  0  0
 19 32  1  0  0  0  0
 21 22  1  0  0  0  0
 21 28  1  0  0  0  0
 21 29  1  0  0  0  0
 22 23  1  0  0  0  0
 22 30  1  0  0  0  0
 22 31  1  0  0  0  0
 23 24  1  0  0  0  0
 23 25  2  0  0  0  0
 32 33  1  0  0  0  0
 32 37  1  0  0  0  0
 33 34  1  0  0  0  0
 33 36  1  0  0  0  0
 33 38  1  0  0  0  0
 34 35  2  0  0  0  0
 34 42  1  0  0  0  0
 36 39  1  0  0  0  0
 36 40  1  0  0  0  0
 36 41  1  0  0  0  0
 42 43  1  0  0  0  0
 42 44  1  0  0  0  0
 43 45  1  0  0  0  0
 43 46  1  0  0  0  0
 43 47  1  0  0  0  0
M  CHG  1  24  -1
M  END
$$$$

  -OEChem-05262216243D

 47 46  0     1  0  0  0  0  0999 V2000
   -0.2117   -5.7470    1.8636 C   0  0  0  0  0  0  0  0  0  0  0  0
    0.7242   -5.7913    2.6471 O   0  0  0  0  0  0  0  0  0  0  0  0
   -1.3797   -6.7027    2.0224 C   0  0  0  0  0  0  0  0  0  0  0  0
   -1.5665   -7.2265    1.0818 H   0  0  0  0  0  0  0  0  0  0  0  0
   -1.1614   -7.4401    2.7998 H   0  0  0  0  0  0  0  0  0  0  0  0
   -2.2773   -6.1467    2.3050 H   0  0  0  0  0  0  0  0  0  0  0  0
   -0.2178   -4.8334    0.8324 N   0  0  0  0  0  0  0  0  0  0  0  0
    0.7293   -3.7207    0.6958 C   0  0  2  0  0  0  0  0  0  0  0  0
    0.1200   -2.5839   -0.1508 C   0  0  0  0  0  0  0  0  0  0  0  0
   -0.8497   -2.8124   -0.8672 O   0  0  0  0  0  0  0  0  0  0  0  0
    2.0185   -4.2306    0.0413 C   0  0  0  0  0  0  0  0  0  0  0  0
   -1.0646   -4.7715    0.2670 H   0  0  0  0  0  0  0  0  0  0  0  0
    0.9577   -3.3141    1.6873 H   0  0  0  0  0  0  0  0  0  0  0  0
    1.8066   -4.6399   -0.9517 H   0  0  0  0  0  0  0  0  0  0  0  0
    2.7433   -3.4178   -0.0651 H   0  0  0  0  0  0  0  0  0  0  0  0
    2.4716   -5.0166    0.6531 H   0  0  0  0  0  0  0  0  0  0  0  0
    0.7060   -1.3314   -0.1542 N   0  0  0  0  0  0  0  0  0  0  0  0
    0.0185   -0.1185   -0.6421 C   0  0  2  0  0  0  0  0  0  0  0  0
    0.9532    0.7150   -1.5496 C   0  0  0  0  0  0  0  0  0  0  0  0
    0.6958    1.8686   -1.8711 O   0  0  0  0  0  0  0  0  0  0  0  0
   -0.3964    0.7002    0.5972 C   0  0  0  0  0  0  0  0  0  0  0  0
   -1.4741   -0.0052    1.4405 C   0  0  0  0  0  0  0  0  0  0  0  0
   -1.8295    0.8334    2.6664 C   0  0  0  0  0  0  0  0  0  0  0  0
   -0.9527    0.9248    3.5627 O   0  5  0  0  0  0  0  0  0  0  0  0
   -2.9595    1.3781    2.7087 O   0  0  0  0  0  0  0  0  0  0  0  0
    1.3934   -1.1851    0.5805 H   0  0  0  0  0  0  0  0  0  0  0  0
   -0.8725   -0.3658   -1.2284 H   0  0  0  0  0  0  0  0  0  0  0  0
   -0.7989    1.6678    0.2764 H   0  0  0  0  0  0  0  0  0  0  0  0
    0.4826    0.9029    1.2187 H   0  0  0  0  0  0  0  0  0  0  0  0
   -2.3695   -0.1715    0.8340 H   0  0  0  0  0  0  0  0  0  0  0  0
   -1.1180   -0.9785    1.7861 H   0  0  0  0  0  0  0  0  0  0  0  0
    2.1097    0.1427   -2.0465 N   0  0  0  0  0  0  0  0  0  0  0  0
    3.0413    0.7862   -2.9786 C   0  0  2  0  0  0  0  0  0  0  0  0
    3.8418   -0.2479   -3.7978 C   0  0  0  0  0  0  0  0  0  0  0  0
    3.9007   -1.4198   -3.4390 O   0  0  0  0  0  0  0  0  0  0  0  0
    3.9963    1.6779   -2.1779 C   0  0  0  0  0  0  0  0  0  0  0  0
    2.2288   -0.8553   -1.8769 H   0  0  0  0  0  0  0  0  0  0  0  0
    2.4770    1.4025   -3.6863 H   0  0  0  0  0  0  0  0  0  0  0  0
    4.5601    1.0800   -1.4549 H   0  0  0  0  0  0  0  0  0  0  0  0
    4.7043    2.1797   -2.8441 H   0  0  0  0  0  0  0  0  0  0  0  0
    3.4349    2.4439   -1.6336 H   0  0  0  0  0  0  0  0  0  0  0  0
    4.5135    0.1435   -4.9424 N   0  0  0  0  0  0  0  0  0  0  0  0
    5.2903   -0.7702   -5.7701 C   0  0  0  0  0  0  0  0  0  0  0  0
    4.4289    1.1156   -5.2252 H   0  0  0  0  0  0  0  0  0  0  0  0
    6.0764   -1.2502   -5.1776 H   0  0  0  0  0  0  0  0  0  0  0  0
    4.6441   -1.5458   -6.1945 H   0  0  0  0  0  0  0  0  0  0  0  0
    5.7638   -0.2247   -6.5920 H   0  0  0  0  0  0  0  0  0  0  0  0
  1  2  2  0  0  0  0
  1  3  1  0  0  0  0
  1  7  1  0  0  0  0
  3  4  1  0  0  0  0
  3  5  1  0  0  0  0
  3  6  1  0  0  0  0
  7  8  1  0  0  0  0
  7 12  1  0  0  0  0
  8  9  1  0  0  0  0
  8 11  1  0  0  0  0
  8 13  1  0  0  0  0
  9 10  2  0  0  0  0
  9 17  1  0  0  0  0
 11 14  1  0  0  0  0
 11 15  1  0  0  0  0
 11 16  1  0  0  0  0
 17 18  1  0  0  0  0
 17 26  1  0  0  0  0
 18 19  1  0  0  0  0
 18 21  1  0  0  0  0
 18 27  1  0  0  0  0
 19 20  2  0  0  0  0
 19 32  1  0  0  0  0
 21 22  1  0  0  0  0
 21 28  1  0  0  0  0
 21 29  1  0  0  0  0
 22 23  1  0  0  0  0
 22 30  1  0  0  0  0
 22 31  1  0  0  0  0
 23 24  1  0  0  0  0
 23 25  2  0  0  0  0
 32 33  1  0  0  0  0
 32 37  1  0  0  0  0
 33 34  1  0  0  0  0
 33 36  1  0  0  0  0
 33 38  1  0  0  0  0
 34 35  2  0  0  0  0
 34 42  1  0  0  0  0
 36 39  1  0  0  0  0
 36 40  1  0  0  0  0
 36 41  1  0  0  0  0
 42 43  1  0  0  0  0
 42 44  1  0  0  0  0
 43 45  1  0  0  0  0
 43 46  1  0  0  0  0
 43 47  1  0  0  0  0
M  CHG  1  24  -1
M  END
$$$$

  -OEChem-05262216243D

 47 46  0     1  0  0  0  0  0999 V2000
   -0.1009   -5.7228    1.8466 C   0  0  0  0  0  0  0  0  0  0  0  0
    0.8780   -5.7679    2.5758 O   0  0  0  0  0  0  0  0  0  0  0  0
   -1.2505   -6.6906    2.0588 C   0  0  0  0  0  0  0  0  0  0  0  0
   -1.4281   -7.2655    1.1466 H   0  0  0  0  0  0  0  0  0  0  0  0
   -1.0165   -7.3824    2.8727 H   0  0  0  0  0  0  0  0  0  0  0  0
   -2.1580   -6.1381    2.3155 H   0  0  0  0  0  0  0  0  0  0  0  0
   -0.1683   -4.8008    0.8248 N   0  0  0  0  0  0  0  0  0  0  0  0
    0.7695   -3.6873    0.6392 C   0  0  2  0  0  0  0  0  0  0  0  0
    0.1094   -2.5437   -0.1590 C   0  0  0  0  0  0  0  0  0  0  0  0
   -0.8874   -2.7739   -0.8363 O   0  0  0  0  0  0  0  0  0  0  0  0
    2.0132   -4.1958   -0.0998 C   0  0  0  0  0  0  0  0  0  0  0  0
   -1.0428   -4.7409    0.3030 H   0  0  0  0  0  0  0  0  0  0  0  0
    1.0610   -3.2887    1.6171 H   0  0  0  0  0  0  0  0  0  0  0  0
    1.7365   -4.6013   -1.0785 H   0  0  0  0  0  0  0  0  0  0  0  0
    2.7304   -3.3831   -0.2501 H   0  0  0  0  0  0  0  0  0  0  0  0
    2.5049   -4.9849    0.4776 H   0  0  0  0  0  0  0  0  0  0  0  0
    0.6845   -1.2864   -0.1811 N   0  0  0  0  0  0  0  0  0  0  0  0
   -0.0249   -0.0780   -0.6462 C   0  0  2  0  0  0  0  0  0  0  0  0
    0.8919    0.7469   -1.5799 C   0  0  0  0  0  0  0  0  0  0  0  0
    0.8049    1.9631   -1.6968 O   0  0  0  0  0  0  0  0  0  0  0  0
   -0.4315    0.7322    0.6026 C   0  0  0  0  0  0  0  0  0  0  0  0
   -1.4887    0.0097    1.4580 C   0  0  0  0  0  0  0  0  0  0  0  0
   -1.8411    0.8350    2.6941 C   0  0  0  0  0  0  0  0  0  0  0  0
   -0.9464    0.9593    3.5681 O   0  5  0  0  0  0  0  0  0  0  0  0
   -2.9923    1.3295    2.7698 O   0  0  0  0  0  0  0  0  0  0  0  0
    1.4106   -1.1361    0.5144 H   0  0  0  0  0  0  0  0  0  0  0  0
   -0.9246   -0.3323   -1.2159 H   0  0  0  0  0  0  0  0  0  0  0  0
   -0.8510    1.6959    0.2927 H   0  0  0  0  0  0  0  0  0  0  0  0
    0.4540    0.9429    1.2122 H   0  0  0  0  0  0  0  0  0  0  0  0
   -2.3900   -0.1667    0.8628 H   0  0  0  0  0  0  0  0  0  0  0  0
   -1.1139   -0.9598    1.7948 H   0  0  0  0  0  0  0  0  0  0  0  0
    1.8410    0.0880   -2.3393 N   0  0  0  0  0  0  0  0  0  0  0  0
    2.7616    0.7215   -3.2896 C   0  0  2  0  0  0  0  0  0  0  0  0
    3.2873   -0.2837   -4.3360 C   0  0  0  0  0  0  0  0  0  0  0  0
    3.2237   -1.4914   -4.1290 O   0  0  0  0  0  0  0  0  0  0  0  0
    3.9344    1.3251   -2.5087 C   0  0  0  0  0  0  0  0  0  0  0  0
    1.8313   -0.9309   -2.2974 H   0  0  0  0  0  0  0  0  0  0  0  0
    2.2343    1.5167   -3.8271 H   0  0  0  0  0  0  0  0  0  0  0  0
    4.4675    0.5432   -1.9586 H   0  0  0  0  0  0  0  0  0  0  0  0
    4.6370    1.8160   -3.1884 H   0  0  0  0  0  0  0  0  0  0  0  0
    3.5734    2.0699   -1.7922 H   0  0  0  0  0  0  0  0  0  0  0  0
    3.8557    0.1691   -5.5133 N   0  0  0  0  0  0  0  0  0  0  0  0
    4.3811   -0.7192   -6.5421 C   0  0  0  0  0  0  0  0  0  0  0  0
    3.8868    1.1733   -5.6633 H   0  0  0  0  0  0  0  0  0  0  0  0
    5.1909   -1.3355   -6.1380 H   0  0  0  0  0  0  0  0  0  0  0  0
    3.5917   -1.3776   -6.9197 H   0  0  0  0  0  0  0  0  0  0  0  0
    4.7753   -0.1361   -7.3796 H   0  0  0  0  0  0  0  0  0  0  0  0
  1  2  2  0  0  0  0
  1  3  1  0  0  0  0
  1  7  1  0  0  0  0
  3  4  1  0  0  0  0
  3  5  1  0  0  0  0
  3  6  1  0  0  0  0
  7  8  1  0  0  0  0
  7 12  1  0  0  0  0
  8  9  1  0  0  0  0
  8 11  1  0  0  0  0
  8 13  1  0  0  0  0
  9 10  2  0  0  0  0
  9 17  1  0  0  0  0
 11 14  1  0  0  0  0
 11 15  1  0  0  0  0
 11 16  1  0  0  0  0
 17 18  1  0  0  0  0
 17 26  1  0  0  0  0
 18 19  1  0  0  0  0
 18 21  1  0  0  0  0
 18 27  1  0  0  0  0
 19 20  2  0  0  0  0
 19 32  1  0  0  0  0
 21 22  1  0  0  0  0
 21 28  1  0  0  0  0
 21 29  1  0  0  0  0
 22 23  1  0  0  0  0
 22 30  1  0  0  0  0
 22 31  1  0  0  0  0
 23 24  1  0  0  0  0
 23 25  2  0  0  0  0
 32 33  1  0  0  0  0
 32 37  1  0  0  0  0
 33 34  1  0  0  0  0
 33 36  1  0  0  0  0
 33 38  1  0  0  0  0
 34 35  2  0  0  0  0
 34 42  1  0  0  0  0
 36 39  1  0  0  0  0
 36 40  1  0  0  0  0
 36 41  1  0  0  0  0
 42 43  1  0  0  0  0
 42 44  1  0  0  0  0
 43 45  1  0  0  0  0
 43 46  1  0  0  0  0
 43 47  1  0  0  0  0
M  CHG  1  24  -1
M  END
$$$$

  -OEChem-05262216243D

 47 46  0     1  0  0  0  0  0999 V2000
   -0.0426   -5.7067    1.8504 C   0  0  0  0  0  0  0  0  0  0  0  0
    0.9441   -5.7499    2.5692 O   0  0  0  0  0  0  0  0  0  0  0  0
   -1.1775   -6.6921    2.0605 C   0  0  0  0  0  0  0  0  0  0  0  0
   -1.3847   -7.2287    1.1315 H   0  0  0  0  0  0  0  0  0  0  0  0
   -0.9106   -7.4173    2.8343 H   0  0  0  0  0  0  0  0  0  0  0  0
   -2.0783   -6.1577    2.3728 H   0  0  0  0  0  0  0  0  0  0  0  0
   -0.1324   -4.7729    0.8409 N   0  0  0  0  0  0  0  0  0  0  0  0
    0.7981   -3.6547    0.6444 C   0  0  2  0  0  0  0  0  0  0  0  0
    0.1326   -2.5272   -0.1725 C   0  0  0  0  0  0  0  0  0  0  0  0
   -0.8581   -2.7742   -0.8532 O   0  0  0  0  0  0  0  0  0  0  0  0
    2.0500   -4.1604   -0.0827 C   0  0  0  0  0  0  0  0  0  0  0  0
   -1.0107   -4.7215    0.3245 H   0  0  0  0  0  0  0  0  0  0  0  0
    1.0806   -3.2411    1.6188 H   0  0  0  0  0  0  0  0  0  0  0  0
    1.7806   -4.5839   -1.0556 H   0  0  0  0  0  0  0  0  0  0  0  0
    2.7577   -3.3416   -0.2427 H   0  0  0  0  0  0  0  0  0  0  0  0
    2.5498   -4.9346    0.5075 H   0  0  0  0  0  0  0  0  0  0  0  0
    0.6914   -1.2629   -0.2048 N   0  0  0  0  0  0  0  0  0  0  0  0
   -0.0415   -0.0657   -0.6582 C   0  0  2  0  0  0  0  0  0  0  0  0
    0.8564    0.7617   -1.6059 C   0  0  0  0  0  0  0  0  0  0  0  0
    0.9809    1.9781   -1.5258 O   0  0  0  0  0  0  0  0  0  0  0  0
   -0.4565    0.7404    0.5904 C   0  0  0  0  0  0  0  0  0  0  0  0
   -1.4967    0.0016    1.4506 C   0  0  0  0  0  0  0  0  0  0  0  0
   -1.8559    0.8259    2.6847 C   0  0  0  0  0  0  0  0  0  0  0  0
   -1.0031    0.8702    3.6067 O   0  5  0  0  0  0  0  0  0  0  0  0
   -2.9667    1.4104    2.7045 O   0  0  0  0  0  0  0  0  0  0  0  0
    1.4255   -1.1012    0.4794 H   0  0  0  0  0  0  0  0  0  0  0  0
   -0.9426   -0.3342   -1.2191 H   0  0  0  0  0  0  0  0  0  0  0  0
   -0.8940    1.6949    0.2773 H   0  0  0  0  0  0  0  0  0  0  0  0
    0.4273    0.9688    1.1964 H   0  0  0  0  0  0  0  0  0  0  0  0
   -2.3977   -0.1907    0.8604 H   0  0  0  0  0  0  0  0  0  0  0  0
   -1.1043   -0.9615    1.7857 H   0  0  0  0  0  0  0  0  0  0  0  0
    1.5669    0.0996   -2.5893 N   0  0  0  0  0  0  0  0  0  0  0  0
    2.4637    0.7381   -3.5591 C   0  0  2  0  0  0  0  0  0  0  0  0
    2.6666   -0.1254   -4.8210 C   0  0  0  0  0  0  0  0  0  0  0  0
    2.4329   -1.3292   -4.8014 O   0  0  0  0  0  0  0  0  0  0  0  0
    3.8141    0.9997   -2.8825 C   0  0  0  0  0  0  0  0  0  0  0  0
    1.3996   -0.9023   -2.6820 H   0  0  0  0  0  0  0  0  0  0  0  0
    2.0279    1.6906   -3.8784 H   0  0  0  0  0  0  0  0  0  0  0  0
    4.2620    0.0589   -2.5467 H   0  0  0  0  0  0  0  0  0  0  0  0
    4.5037    1.4868   -3.5782 H   0  0  0  0  0  0  0  0  0  0  0  0
    3.6853    1.6531   -2.0138 H   0  0  0  0  0  0  0  0  0  0  0  0
    3.1392    0.4517   -5.9862 N   0  0  0  0  0  0  0  0  0  0  0  0
    3.3606   -0.2952   -7.2175 C   0  0  0  0  0  0  0  0  0  0  0  0
    3.3039    1.4541   -5.9791 H   0  0  0  0  0  0  0  0  0  0  0  0
    4.0900   -1.0956   -7.0536 H   0  0  0  0  0  0  0  0  0  0  0  0
    2.4232   -0.7382   -7.5695 H   0  0  0  0  0  0  0  0  0  0  0  0
    3.7453    0.3684   -7.9977 H   0  0  0  0  0  0  0  0  0  0  0  0
  1  2  2  0  0  0  0
  1  3  1  0  0  0  0
  1  7  1  0  0  0  0
  3  4  1  0  0  0  0
  3  5  1  0  0  0  0
  3  6  1  0  0  0  0
  7  8  1  0  0  0  0
  7 12  1  0  0  0  0
  8  9  1  0  0  0  0
  8 11  1  0  0  0  0
  8 13  1  0  0  0  0
  9 10  2  0  0  0  0
  9 17  1  0  0  0  0
 11 14  1  0  0  0  0
 11 15  1  0  0  0  0
 11 16  1  0  0  0  0
 17 18  1  0  0  0  0
 17 26  1  0  0  0  0
 18 19  1  0  0  0  0
 18 21  1  0  0  0  0
 18 27  1  0  0  0  0
 19 20  2  0  0  0  0
 19 32  1  0  0  0  0
 21 22  1  0  0  0  0
 21 28  1  0  0  0  0
 21 29  1  0  0  0  0
 22 23  1  0  0  0  0
 22 30  1  0  0  0  0
 22 31  1  0  0  0  0
 23 24  1  0  0  0  0
 23 25  2  0  0  0  0
 32 33  1  0  0  0  0
 32 37  1  0  0  0  0
 33 34  1  0  0  0  0
 33 36  1  0  0  0  0
 33 38  1  0  0  0  0
 34 35  2  0  0  0  0
 34 42  1  0  0  0  0
 36 39  1  0  0  0  0
 36 40  1  0  0  0  0
 36 41  1  0  0  0  0
 42 43  1  0  0  0  0
 42 44  1  0  0  0  0
 43 45  1  0  0  0  0
 43 46  1  0  0  0  0
 43 47  1  0  0  0  0
M  CHG  1  24  -1
M  END
$$$$

  -OEChem-05262216243D

 47 46  0     1  0  0  0  0  0999 V2000
    0.0186   -5.6884    1.8412 C   0  0  0  0  0  0  0  0  0  0  0  0
    1.0118   -5.7259    2.5513 O   0  0  0  0  0  0  0  0  0  0  0  0
   -1.1104   -6.6782    2.0623 C   0  0  0  0  0  0  0  0  0  0  0  0
   -1.3120   -7.2262    1.1388 H   0  0  0  0  0  0  0  0  0  0  0  0
   -0.8398   -7.3921    2.8450 H   0  0  0  0  0  0  0  0  0  0  0  0
   -2.0158   -6.1476    2.3677 H   0  0  0  0  0  0  0  0  0  0  0  0
   -0.0818   -4.7594    0.8286 N   0  0  0  0  0  0  0  0  0  0  0  0
    0.8358   -3.6312    0.6298 C   0  0  2  0  0  0  0  0  0  0  0  0
    0.1513   -2.5098   -0.1801 C   0  0  0  0  0  0  0  0  0  0  0  0
   -0.8438   -2.7653   -0.8516 O   0  0  0  0  0  0  0  0  0  0  0  0
    2.0884   -4.1214   -0.1064 C   0  0  0  0  0  0  0  0  0  0  0  0
   -0.9660   -4.7110    0.3220 H   0  0  0  0  0  0  0  0  0  0  0  0
    1.1203   -3.2170    1.6035 H   0  0  0  0  0  0  0  0  0  0  0  0
    1.8172   -4.5447   -1.0787 H   0  0  0  0  0  0  0  0  0  0  0  0
    2.7864   -3.2946   -0.2682 H   0  0  0  0  0  0  0  0  0  0  0  0
    2.6000   -4.8919    0.4784 H   0  0  0  0  0  0  0  0  0  0  0  0
    0.6953   -1.2398   -0.2161 N   0  0  0  0  0  0  0  0  0  0  0  0
   -0.0514   -0.0504   -0.6628 C   0  0  2  0  0  0  0  0  0  0  0  0
    0.8367    0.7801   -1.6140 C   0  0  0  0  0  0  0  0  0  0  0  0
    1.2018    1.9236   -1.3666 O   0  0  0  0  0  0  0  0  0  0  0  0
   -0.4847    0.7516    0.5820 C   0  0  0  0  0  0  0  0  0  0  0  0
   -1.5209   -0.0040    1.4326 C   0  0  0  0  0  0  0  0  0  0  0  0
   -1.9028    0.8122    2.6648 C   0  0  0  0  0  0  0  0  0  0  0  0
   -1.0977    0.7985    3.6292 O   0  5  0  0  0  0  0  0  0  0  0  0
   -2.9803    1.4560    2.6373 O   0  0  0  0  0  0  0  0  0  0  0  0
    1.4428   -1.0707    0.4517 H   0  0  0  0  0  0  0  0  0  0  0  0
   -0.9504   -0.3283   -1.2229 H   0  0  0  0  0  0  0  0  0  0  0  0
   -0.9283    1.7025    0.2654 H   0  0  0  0  0  0  0  0  0  0  0  0
    0.3914    0.9882    1.1961 H   0  0  0  0  0  0  0  0  0  0  0  0
   -2.4146   -0.2088    0.8354 H   0  0  0  0  0  0  0  0  0  0  0  0
   -1.1175   -0.9623    1.7689 H   0  0  0  0  0  0  0  0  0  0  0  0
    1.2910    0.1859   -2.7764 N   0  0  0  0  0  0  0  0  0  0  0  0
    2.1661    0.8299   -3.7627 C   0  0  2  0  0  0  0  0  0  0  0  0
    2.0347    0.2001   -5.1647 C   0  0  0  0  0  0  0  0  0  0  0  0
    1.5902   -0.9340   -5.3047 O   0  0  0  0  0  0  0  0  0  0  0  0
    3.6150    0.7238   -3.2747 C   0  0  0  0  0  0  0  0  0  0  0  0
    0.9522   -0.7550   -2.9792 H   0  0  0  0  0  0  0  0  0  0  0  0
    1.8907    1.8861   -3.8506 H   0  0  0  0  0  0  0  0  0  0  0  0
    3.9069   -0.3263   -3.1735 H   0  0  0  0  0  0  0  0  0  0  0  0
    4.2944    1.2093   -3.9815 H   0  0  0  0  0  0  0  0  0  0  0  0
    3.7264    1.2116   -2.3012 H   0  0  0  0  0  0  0  0  0  0  0  0
    2.4383    0.9098   -6.2816 N   0  0  0  0  0  0  0  0  0  0  0  0
    2.3288    0.3959   -7.6407 C   0  0  0  0  0  0  0  0  0  0  0  0
    2.7721    1.8582   -6.1369 H   0  0  0  0  0  0  0  0  0  0  0  0
    2.9008   -0.5319   -7.7467 H   0  0  0  0  0  0  0  0  0  0  0  0
    1.2817    0.1955   -7.8910 H   0  0  0  0  0  0  0  0  0  0  0  0
    2.7212    1.1275   -8.3533 H   0  0  0  0  0  0  0  0  0  0  0  0
  1  2  2  0  0  0  0
  1  3  1  0  0  0  0
  1  7  1  0  0  0  0
  3  4  1  0  0  0  0
  3  5  1  0  0  0  0
  3  6  1  0  0  0  0
  7  8  1  0  0  0  0
  7 12  1  0  0  0  0
  8  9  1  0  0  0  0
  8 11  1  0  0  0  0
  8 13  1  0  0  0  0
  9 10  2  0  0  0  0
  9 17  1  0  0  0  0
 11 14  1  0  0  0  0
 11 15  1  0  0  0  0
 11 16  1  0  0  0  0
 17 18  1  0  0  0  0
 17 26  1  0  0  0  0
 18 19  1  0  0  0  0
 18 21  1  0  0  0  0
 18 27  1  0  0  0  0
 19 20  2  0  0  0  0
 19 32  1  0  0  0  0
 21 22  1  0  0  0  0
 21 28  1  0  0  0  0
 21 29  1  0  0  0  0
 22 23  1  0  0  0  0
 22 30  1  0  0  0  0
 22 31  1  0  0  0  0
 23 24  1  0  0  0  0
 23 25  2  0  0  0  0
 32 33  1  0  0  0  0
 32 37  1  0  0  0  0
 33 34  1  0  0  0  0
 33 36  1  0  0  0  0
 33 38  1  0  0  0  0
 34 35  2  0  0  0  0
 34 42  1  0  0  0  0
 36 39  1  0  0  0  0
 36 40  1  0  0  0  0
 36 41  1  0  0  0  0
 42 43  1  0  0  0  0
 42 44  1  0  0  0  0
 43 45  1  0  0  0  0
 43 46  1  0  0  0  0
 43 47  1  0  0  0  0
M  CHG  1  24  -1
M  END
$$$$

  -OEChem-05262216243D

 47 46  0     1  0  0  0  0  0999 V2000
    0.0666   -5.7029    1.8290 C   0  0  0  0  0  0  0  0  0  0  0  0
    1.0647   -5.7426    2.5321 O   0  0  0  0  0  0  0  0  0  0  0  0
   -1.0560   -6.7003    2.0489 C   0  0  0  0  0  0  0  0  0  0  0  0
   -1.2783   -7.2266    1.1174 H   0  0  0  0  0  0  0  0  0  0  0  0
   -0.7669   -7.4330    2.8075 H   0  0  0  0  0  0  0  0  0  0  0  0
   -1.9547   -6.1779    2.3869 H   0  0  0  0  0  0  0  0  0  0  0  0
   -0.0486   -4.7620    0.8289 N   0  0  0  0  0  0  0  0  0  0  0  0
    0.8562   -3.6220    0.6375 C   0  0  2  0  0  0  0  0  0  0  0  0
    0.1607   -2.5062   -0.1710 C   0  0  0  0  0  0  0  0  0  0  0  0
   -0.8398   -2.7691   -0.8320 O   0  0  0  0  0  0  0  0  0  0  0  0
    2.1180   -4.0922   -0.0960 C   0  0  0  0  0  0  0  0  0  0  0  0
   -0.9376   -4.7139    0.3308 H   0  0  0  0  0  0  0  0  0  0  0  0
    1.1312   -3.2079    1.6139 H   0  0  0  0  0  0  0  0  0  0  0  0
    1.8566   -4.5146   -1.0714 H   0  0  0  0  0  0  0  0  0  0  0  0
    2.8054   -3.2553   -0.2512 H   0  0  0  0  0  0  0  0  0  0  0  0
    2.6375   -4.8582    0.4876 H   0  0  0  0  0  0  0  0  0  0  0  0
    0.6960   -1.2325   -0.2127 N   0  0  0  0  0  0  0  0  0  0  0  0
   -0.0508   -0.0514   -0.6757 C   0  0  2  0  0  0  0  0  0  0  0  0
    0.8402    0.7777   -1.6239 C   0  0  0  0  0  0  0  0  0  0  0  0
    1.4330    1.7879   -1.2622 O   0  0  0  0  0  0  0  0  0  0  0  0
   -0.5023    0.7643    0.5530 C   0  0  0  0  0  0  0  0  0  0  0  0
   -1.5448    0.0139    1.3989 C   0  0  0  0  0  0  0  0  0  0  0  0
   -1.9460    0.8428    2.6160 C   0  0  0  0  0  0  0  0  0  0  0  0
   -1.2415    0.7226    3.6489 O   0  5  0  0  0  0  0  0  0  0  0  0
   -2.9311    1.6129    2.5037 O   0  0  0  0  0  0  0  0  0  0  0  0
    1.4511   -1.0531    0.4439 H   0  0  0  0  0  0  0  0  0  0  0  0
   -0.9435   -0.3396   -1.2405 H   0  0  0  0  0  0  0  0  0  0  0  0
   -0.9420    1.7108    0.2181 H   0  0  0  0  0  0  0  0  0  0  0  0
    0.3641    1.0094    1.1773 H   0  0  0  0  0  0  0  0  0  0  0  0
   -2.4311   -0.2001    0.7944 H   0  0  0  0  0  0  0  0  0  0  0  0
   -1.1407   -0.9395    1.7479 H   0  0  0  0  0  0  0  0  0  0  0  0
    1.0551    0.3163   -2.9091 N   0  0  0  0  0  0  0  0  0  0  0  0
    1.8930    0.9859   -3.9109 C   0  0  2  0  0  0  0  0  0  0  0  0
    1.4518    0.6662   -5.3538 C   0  0  0  0  0  0  0  0  0  0  0  0
    0.8287   -0.3591   -5.6061 O   0  0  0  0  0  0  0  0  0  0  0  0
    3.3471    0.5546   -3.6970 C   0  0  0  0  0  0  0  0  0  0  0  0
    0.5518   -0.5244   -3.1932 H   0  0  0  0  0  0  0  0  0  0  0  0
    1.8160    2.0703   -3.7788 H   0  0  0  0  0  0  0  0  0  0  0  0
    3.4456   -0.5290   -3.8164 H   0  0  0  0  0  0  0  0  0  0  0  0
    4.0031    1.0474   -4.4207 H   0  0  0  0  0  0  0  0  0  0  0  0
    3.6797    0.8260   -2.6902 H   0  0  0  0  0  0  0  0  0  0  0  0
    1.7722    1.5335   -6.3829 N   0  0  0  0  0  0  0  0  0  0  0  0
    1.3503    1.3291   -7.7624 C   0  0  0  0  0  0  0  0  0  0  0  0
    2.2406    2.3997   -6.1339 H   0  0  0  0  0  0  0  0  0  0  0  0
    1.7178    0.3682   -8.1375 H   0  0  0  0  0  0  0  0  0  0  0  0
    0.2577    1.3421   -7.8336 H   0  0  0  0  0  0  0  0  0  0  0  0
    1.7492    2.1235   -8.4004 H   0  0  0  0  0  0  0  0  0  0  0  0
  1  2  2  0  0  0  0
  1  3  1  0  0  0  0
  1  7  1  0  0  0  0
  3  4  1  0  0  0  0
  3  5  1  0  0  0  0
  3  6  1  0  0  0  0
  7  8  1  0  0  0  0
  7 12  1  0  0  0  0
  8  9  1  0  0  0  0
  8 11  1  0  0  0  0
  8 13  1  0  0  0  0
  9 10  2  0  0  0  0
  9 17  1  0  0  0  0
 11 14  1  0  0  0  0
 11 15  1  0  0  0  0
 11 16  1  0  0  0  0
 17 18  1  0  0  0  0
 17 26  1  0  0  0  0
 18 19  1  0  0  0  0
 18 21  1  0  0  0  0
 18 27  1  0  0  0  0
 19 20  2  0  0  0  0
 19 32  1  0  0  0  0
 21 22  1  0  0  0  0
 21 28  1  0  0  0  0
 21 29  1  0  0  0  0
 22 23  1  0  0  0  0
 22 30  1  0  0  0  0
 22 31  1  0  0  0  0
 23 24  1  0  0  0  0
 23 25  2  0  0  0  0
 32 33  1  0  0  0  0
 32 37  1  0  0  0  0
 33 34  1  0  0  0  0
 33 36  1  0  0  0  0
 33 38  1  0  0  0  0
 34 35  2  0  0  0  0
 34 42  1  0  0  0  0
 36 39  1  0  0  0  0
 36 40  1  0  0  0  0
 36 41  1  0  0  0  0
 42 43  1  0  0  0  0
 42 44  1  0  0  0  0
 43 45  1  0  0  0  0
 43 46  1  0  0  0  0
 43 47  1  0  0  0  0
M  CHG  1  24  -1
M  END
$$$$

  -OEChem-05262216243D

 47 46  0     1  0  0  0  0  0999 V2000
    0.1188   -5.7078    1.8188 C   0  0  0  0  0  0  0  0  0  0  0  0
    1.1327   -5.7411    2.4992 O   0  0  0  0  0  0  0  0  0  0  0  0
   -0.9953   -6.7082    2.0672 C   0  0  0  0  0  0  0  0  0  0  0  0
   -1.1752   -7.2988    1.1656 H   0  0  0  0  0  0  0  0  0  0  0  0
   -0.7227   -7.3827    2.8835 H   0  0  0  0  0  0  0  0  0  0  0  0
   -1.9135   -6.1808    2.3380 H   0  0  0  0  0  0  0  0  0  0  0  0
   -0.0208   -4.7717    0.8173 N   0  0  0  0  0  0  0  0  0  0  0  0
    0.8728   -3.6259    0.6086 C   0  0  2  0  0  0  0  0  0  0  0  0
    0.1519   -2.5110   -0.1778 C   0  0  0  0  0  0  0  0  0  0  0  0
   -0.8623   -2.7770   -0.8169 O   0  0  0  0  0  0  0  0  0  0  0  0
    2.1189   -4.0862   -0.1570 C   0  0  0  0  0  0  0  0  0  0  0  0
   -0.9220   -4.7256    0.3413 H   0  0  0  0  0  0  0  0  0  0  0  0
    1.1696   -3.2139    1.5795 H   0  0  0  0  0  0  0  0  0  0  0  0
    1.8361   -4.5049   -1.1280 H   0  0  0  0  0  0  0  0  0  0  0  0
    2.7987   -3.2453   -0.3245 H   0  0  0  0  0  0  0  0  0  0  0  0
    2.6554   -4.8528    0.4103 H   0  0  0  0  0  0  0  0  0  0  0  0
    0.6779   -1.2342   -0.2216 N   0  0  0  0  0  0  0  0  0  0  0  0
   -0.0725   -0.0560   -0.6823 C   0  0  2  0  0  0  0  0  0  0  0  0
    0.8091    0.7801   -1.6309 C   0  0  0  0  0  0  0  0  0  0  0  0
    1.6182    1.6001   -1.2106 O   0  0  0  0  0  0  0  0  0  0  0  0
   -0.5195    0.7698    0.5399 C   0  0  0  0  0  0  0  0  0  0  0  0
   -1.5582    0.0279    1.3982 C   0  0  0  0  0  0  0  0  0  0  0  0
   -1.9553    0.8687    2.6092 C   0  0  0  0  0  0  0  0  0  0  0  0
   -1.4189    0.5870    3.7095 O   0  5  0  0  0  0  0  0  0  0  0  0
   -2.7586    1.8161    2.4228 O   0  0  0  0  0  0  0  0  0  0  0  0
    1.4562   -1.0524    0.4064 H   0  0  0  0  0  0  0  0  0  0  0  0
   -0.9681   -0.3486   -1.2400 H   0  0  0  0  0  0  0  0  0  0  0  0
   -0.9594    1.7134    0.1979 H   0  0  0  0  0  0  0  0  0  0  0  0
    0.3494    1.0190    1.1591 H   0  0  0  0  0  0  0  0  0  0  0  0
   -2.4488   -0.1908    0.8019 H   0  0  0  0  0  0  0  0  0  0  0  0
   -1.1525   -0.9238    1.7515 H   0  0  0  0  0  0  0  0  0  0  0  0
    0.7840    0.5184   -2.9879 N   0  0  0  0  0  0  0  0  0  0  0  0
    1.5901    1.2264   -3.9896 C   0  0  2  0  0  0  0  0  0  0  0  0
    0.9137    1.2528   -5.3754 C   0  0  0  0  0  0  0  0  0  0  0  0
    0.0936    0.3968   -5.6885 O   0  0  0  0  0  0  0  0  0  0  0  0
    2.9594    0.5462   -4.0847 C   0  0  0  0  0  0  0  0  0  0  0  0
    0.1106   -0.1715   -3.3208 H   0  0  0  0  0  0  0  0  0  0  0  0
    1.7255    2.2662   -3.6737 H   0  0  0  0  0  0  0  0  0  0  0  0
    2.8464   -0.4977   -4.3942 H   0  0  0  0  0  0  0  0  0  0  0  0
    3.5931    1.0601   -4.8136 H   0  0  0  0  0  0  0  0  0  0  0  0
    3.4635    0.5694   -3.1135 H   0  0  0  0  0  0  0  0  0  0  0  0
    1.2444    2.2396   -6.2869 N   0  0  0  0  0  0  0  0  0  0  0  0
    0.6204    2.3609   -7.5980 C   0  0  0  0  0  0  0  0  0  0  0  0
    1.8870    2.9630   -5.9779 H   0  0  0  0  0  0  0  0  0  0  0  0
    0.7671    1.4441   -8.1784 H   0  0  0  0  0  0  0  0  0  0  0  0
   -0.4539    2.5460   -7.4948 H   0  0  0  0  0  0  0  0  0  0  0  0
    1.0644    3.1936   -8.1516 H   0  0  0  0  0  0  0  0  0  0  0  0
  1  2  2  0  0  0  0
  1  3  1  0  0  0  0
  1  7  1  0  0  0  0
  3  4  1  0  0  0  0
  3  5  1  0  0  0  0
  3  6  1  0  0  0  0
  7  8  1  0  0  0  0
  7 12  1  0  0  0  0
  8  9  1  0  0  0  0
  8 11  1  0  0  0  0
  8 13  1  0  0  0  0
  9 10  2  0  0  0  0
  9 17  1  0  0  0  0
 11 14  1  0  0  0  0
 11 15  1  0  0  0  0
 11 16  1  0  0  0  0
 17 18  1  0  0  0  0
 17 26  1  0  0  0  0
 18 19  1  0  0  0  0
 18 21  1  0  0  0  0
 18 27  1  0  0  0  0
 19 20  2  0  0  0  0
 19 32  1  0  0  0  0
 21 22  1  0  0  0  0
 21 28  1  0  0  0  0
 21 29  1  0  0  0  0
 22 23  1  0  0  0  0
 22 30  1  0  0  0  0
 22 31  1  0  0  0  0
 23 24  1  0  0  0  0
 23 25  2  0  0  0  0
 32 33  1  0  0  0  0
 32 37  1  0  0  0  0
 33 34  1  0  0  0  0
 33 36  1  0  0  0  0
 33 38  1  0  0  0  0
 34 35  2  0  0  0  0
 34 42  1  0  0  0  0
 36 39  1  0  0  0  0
 36 40  1  0  0  0  0
 36 41  1  0  0  0  0
 42 43  1  0  0  0  0
 42 44  1  0  0  0  0
 43 45  1  0  0  0  0
 43 46  1  0  0  0  0
 43 47  1  0  0  0  0
M  CHG  1  24  -1
M  END
$$$$

  -OEChem-05262216243D

 47 46  0     1  0  0  0  0  0999 V2000
    0.1645   -5.7293    1.8173 C   0  0  0  0  0  0  0  0  0  0  0  0
    1.1817   -5.7484    2.4935 O   0  0  0  0  0  0  0  0  0  0  0  0
   -0.9326   -6.7477    2.0697 C   0  0  0  0  0  0  0  0  0  0  0  0
   -1.1321   -7.3165    1.1584 H   0  0  0  0  0  0  0  0  0  0  0  0
   -0.6303   -7.4410    2.8595 H   0  0  0  0  0  0  0  0  0  0  0  0
   -1.8483   -6.2379    2.3800 H   0  0  0  0  0  0  0  0  0  0  0  0
    0.0062   -4.7939    0.8176 N   0  0  0  0  0  0  0  0  0  0  0  0
    0.8795   -3.6320    0.6097 C   0  0  2  0  0  0  0  0  0  0  0  0
    0.1368   -2.5215   -0.1634 C   0  0  0  0  0  0  0  0  0  0  0  0
   -0.8978   -2.7893   -0.7684 O   0  0  0  0  0  0  0  0  0  0  0  0
    2.1291   -4.0679   -0.1645 C   0  0  0  0  0  0  0  0  0  0  0  0
   -0.9006   -4.7573    0.3516 H   0  0  0  0  0  0  0  0  0  0  0  0
    1.1754   -3.2208    1.5810 H   0  0  0  0  0  0  0  0  0  0  0  0
    1.8485   -4.4834   -1.1375 H   0  0  0  0  0  0  0  0  0  0  0  0
    2.7958   -3.2158   -0.3279 H   0  0  0  0  0  0  0  0  0  0  0  0
    2.6793   -4.8305    0.3950 H   0  0  0  0  0  0  0  0  0  0  0  0
    0.6601   -1.2443   -0.2245 N   0  0  0  0  0  0  0  0  0  0  0  0
   -0.0791   -0.0680   -0.7059 C   0  0  2  0  0  0  0  0  0  0  0  0
    0.8085    0.7556   -1.6583 C   0  0  0  0  0  0  0  0  0  0  0  0
    1.7973    1.3526   -1.2444 O   0  0  0  0  0  0  0  0  0  0  0  0
   -0.5232    0.7938    0.4903 C   0  0  0  0  0  0  0  0  0  0  0  0
   -1.5736    0.0858    1.3661 C   0  0  0  0  0  0  0  0  0  0  0  0
   -1.9867    0.9447    2.5631 C   0  0  0  0  0  0  0  0  0  0  0  0
   -1.9466    0.4102    3.6987 O   0  5  0  0  0  0  0  0  0  0  0  0
   -2.3170    2.1374    2.3448 O   0  0  0  0  0  0  0  0  0  0  0  0
    1.4787   -1.0601    0.3494 H   0  0  0  0  0  0  0  0  0  0  0  0
   -0.9733   -0.3685   -1.2615 H   0  0  0  0  0  0  0  0  0  0  0  0
   -0.9500    1.7313    0.1167 H   0  0  0  0  0  0  0  0  0  0  0  0
    0.3450    1.0527    1.1057 H   0  0  0  0  0  0  0  0  0  0  0  0
   -2.4626   -0.1417    0.7709 H   0  0  0  0  0  0  0  0  0  0  0  0
   -1.1711   -0.8604    1.7379 H   0  0  0  0  0  0  0  0  0  0  0  0
    0.5845    0.7175   -3.0218 N   0  0  0  0  0  0  0  0  0  0  0  0
    1.3536    1.4815   -4.0110 C   0  0  2  0  0  0  0  0  0  0  0  0
    0.4976    1.8825   -5.2297 C   0  0  0  0  0  0  0  0  0  0  0  0
   -0.4717    1.2083   -5.5603 O   0  0  0  0  0  0  0  0  0  0  0  0
    2.5478    0.6335   -4.4574 C   0  0  0  0  0  0  0  0  0  0  0  0
   -0.2483    0.2277   -3.3476 H   0  0  0  0  0  0  0  0  0  0  0  0
    1.7198    2.4058   -3.5516 H   0  0  0  0  0  0  0  0  0  0  0  0
    2.2034   -0.2960   -4.9218 H   0  0  0  0  0  0  0  0  0  0  0  0
    3.1568    1.1822   -5.1817 H   0  0  0  0  0  0  0  0  0  0  0  0
    3.1769    0.3813   -3.5978 H   0  0  0  0  0  0  0  0  0  0  0  0
    0.8266    3.0042   -5.9698 N   0  0  0  0  0  0  0  0  0  0  0  0
    0.0300    3.4819   -7.0925 C   0  0  0  0  0  0  0  0  0  0  0  0
    1.5910    3.5797   -5.6285 H   0  0  0  0  0  0  0  0  0  0  0  0
   -0.0386    2.7128   -7.8688 H   0  0  0  0  0  0  0  0  0  0  0  0
   -0.9811    3.7409   -6.7616 H   0  0  0  0  0  0  0  0  0  0  0  0
    0.4906    4.3729   -7.5295 H   0  0  0  0  0  0  0  0  0  0  0  0
  1  2  2  0  0  0  0
  1  3  1  0  0  0  0
  1  7  1  0  0  0  0
  3  4  1  0  0  0  0
  3  5  1  0  0  0  0
  3  6  1  0  0  0  0
  7  8  1  0  0  0  0
  7 12  1  0  0  0  0
  8  9  1  0  0  0  0
  8 11  1  0  0  0  0
  8 13  1  0  0  0  0
  9 10  2  0  0  0  0
  9 17  1  0  0  0  0
 11 14  1  0  0  0  0
 11 15  1  0  0  0  0
 11 16  1  0  0  0  0
 17 18  1  0  0  0  0
 17 26  1  0  0  0  0
 18 19  1  0  0  0  0
 18 21  1  0  0  0  0
 18 27  1  0  0  0  0
 19 20  2  0  0  0  0
 19 32  1  0  0  0  0
 21 22  1  0  0  0  0
 21 28  1  0  0  0  0
 21 29  1  0  0  0  0
 22 23  1  0  0  0  0
 22 30  1  0  0  0  0
 22 31  1  0  0  0  0
 23 24  1  0  0  0  0
 23 25  2  0  0  0  0
 32 33  1  0  0  0  0
 32 37  1  0  0  0  0
 33 34  1  0  0  0  0
 33 36  1  0  0  0  0
 33 38  1  0  0  0  0
 34 35  2  0  0  0  0
 34 42  1  0  0  0  0
 36 39  1  0  0  0  0
 36 40  1  0  0  0  0
 36 41  1  0  0  0  0
 42 43  1  0  0  0  0
 42 44  1  0  0  0  0
 43 45  1  0  0  0  0
 43 46  1  0  0  0  0
 43 47  1  0  0  0  0
M  CHG  1  24  -1
M  END
$$$$

  -OEChem-05262216243D

 47 46  0     1  0  0  0  0  0999 V2000
    0.1696   -5.7435    1.7680 C   0  0  0  0  0  0  0  0  0  0  0  0
    1.2270   -5.7909    2.3779 O   0  0  0  0  0  0  0  0  0  0  0  0
   -0.9348   -6.7345    2.0867 C   0  0  0  0  0  0  0  0  0  0  0  0
   -1.2421   -7.2576    1.1780 H   0  0  0  0  0  0  0  0  0  0  0  0
   -0.5838   -7.4697    2.8161 H   0  0  0  0  0  0  0  0  0  0  0  0
   -1.7966   -6.2071    2.5034 H   0  0  0  0  0  0  0  0  0  0  0  0
   -0.0312   -4.7959    0.7879 N   0  0  0  0  0  0  0  0  0  0  0  0
    0.8528   -3.6520    0.5335 C   0  0  2  0  0  0  0  0  0  0  0  0
    0.0848   -2.5192   -0.1794 C   0  0  0  0  0  0  0  0  0  0  0  0
   -0.9743   -2.7688   -0.7487 O   0  0  0  0  0  0  0  0  0  0  0  0
    2.0371   -4.1056   -0.3272 C   0  0  0  0  0  0  0  0  0  0  0  0
   -0.9626   -4.7379    0.3757 H   0  0  0  0  0  0  0  0  0  0  0  0
    1.2225   -3.2582    1.4865 H   0  0  0  0  0  0  0  0  0  0  0  0
    1.6828   -4.5014   -1.2841 H   0  0  0  0  0  0  0  0  0  0  0  0
    2.7107   -3.2659   -0.5244 H   0  0  0  0  0  0  0  0  0  0  0  0
    2.6046   -4.8882    0.1854 H   0  0  0  0  0  0  0  0  0  0  0  0
    0.6115   -1.2436   -0.2275 N   0  0  0  0  0  0  0  0  0  0  0  0
   -0.1103   -0.0566   -0.7066 C   0  0  2  0  0  0  0  0  0  0  0  0
    0.7922    0.7693   -1.6415 C   0  0  0  0  0  0  0  0  0  0  0  0
    1.9001    1.1462   -1.2713 O   0  0  0  0  0  0  0  0  0  0  0  0
   -0.5476    0.8074    0.4891 C   0  0  0  0  0  0  0  0  0  0  0  0
   -1.6091    0.1142    1.3585 C   0  0  0  0  0  0  0  0  0  0  0  0
   -1.9892    1.0021    2.5412 C   0  0  0  0  0  0  0  0  0  0  0  0
   -2.7494    1.9759    2.3143 O   0  5  0  0  0  0  0  0  0  0  0  0
   -1.4847    0.7302    3.6585 O   0  0  0  0  0  0  0  0  0  0  0  0
    1.4657   -1.0755    0.2977 H   0  0  0  0  0  0  0  0  0  0  0  0
   -1.0026   -0.3468   -1.2702 H   0  0  0  0  0  0  0  0  0  0  0  0
   -0.9615    1.7533    0.1218 H   0  0  0  0  0  0  0  0  0  0  0  0
    0.3239    1.0492    1.1076 H   0  0  0  0  0  0  0  0  0  0  0  0
   -2.5013   -0.0950    0.7612 H   0  0  0  0  0  0  0  0  0  0  0  0
   -1.2302   -0.8387    1.7380 H   0  0  0  0  0  0  0  0  0  0  0  0
    0.4144    1.0032   -2.9500 N   0  0  0  0  0  0  0  0  0  0  0  0
    1.1866    1.8048   -3.9058 C   0  0  2  0  0  0  0  0  0  0  0  0
    0.2779    2.5137   -4.9300 C   0  0  0  0  0  0  0  0  0  0  0  0
   -0.7736    1.9963   -5.2904 O   0  0  0  0  0  0  0  0  0  0  0  0
    2.1782    0.8846   -4.6230 C   0  0  0  0  0  0  0  0  0  0  0  0
   -0.5150    0.6960   -3.2346 H   0  0  0  0  0  0  0  0  0  0  0  0
    1.7408    2.5802   -3.3666 H   0  0  0  0  0  0  0  0  0  0  0  0
    1.6447    0.0978   -5.1660 H   0  0  0  0  0  0  0  0  0  0  0  0
    2.7821    1.4543   -5.3355 H   0  0  0  0  0  0  0  0  0  0  0  0
    2.8507    0.4137   -3.8990 H   0  0  0  0  0  0  0  0  0  0  0  0
    0.6490    3.7360   -5.4609 N   0  0  0  0  0  0  0  0  0  0  0  0
   -0.1938    4.4969   -6.3742 C   0  0  0  0  0  0  0  0  0  0  0  0
    1.4860    4.1722   -5.0854 H   0  0  0  0  0  0  0  0  0  0  0  0
   -0.3672    3.9313   -7.2956 H   0  0  0  0  0  0  0  0  0  0  0  0
   -1.1599    4.7198   -5.9088 H   0  0  0  0  0  0  0  0  0  0  0  0
    0.2904    5.4425   -6.6357 H   0  0  0  0  0  0  0  0  0  0  0  0
  1  2  2  0  0  0  0
  1  3  1  0  0  0  0
  1  7  1  0  0  0  0
  3  4  1  0  0  0  0
  3  5  1  0  0  0  0
  3  6  1  0  0  0  0
  7  8  1  0  0  0  0
  7 12  1  0  0  0  0
  8  9  1  0  0  0  0
  8 11  1  0  0  0  0
  8 13  1  0  0  0  0
  9 10  2  0  0  0  0
  9 17  1  0  0  0  0
 11 14  1  0  0  0  0
 11 15  1  0  0  0  0
 11 16  1  0  0  0  0
 17 18  1  0  0  0  0
 17 26  1  0  0  0  0
 18 19  1  0  0  0  0
 18 21  1  0  0  0  0
 18 27  1  0  0  0  0
 19 20  2  0  0  0  0
 19 32  1  0  0  0  0
 21 22  1  0  0  0  0
 21 28  1  0  0  0  0
 21 29  1  0  0  0  0
 22 23  1  0  0  0  0
 22 30  1  0  0  0  0
 22 31  1  0  0  0  0
 23 24  1  0  0  0  0
 23 25  2  0  0  0  0
 32 33  1  0  0  0  0
 32 37  1  0  0  0  0
 33 34  1  0  0  0  0
 33 36  1  0  0  0  0
 33 38  1  0  0  0  0
 34 35  2  0  0  0  0
 34 42  1  0  0  0  0
 36 39  1  0  0  0  0
 36 40  1  0  0  0  0
 36 41  1  0  0  0  0
 42 43  1  0  0  0  0
 42 44  1  0  0  0  0
 43 45  1  0  0  0  0
 43 46  1  0  0  0  0
 43 47  1  0  0  0  0
M  CHG  1  24  -1
M  END
$$$$

  -OEChem-05262216243D

 47 46  0     1  0  0  0  0  0999 V2000
    0.2004   -5.7693    1.7366 C   0  0  0  0  0  0  0  0  0  0  0  0
    1.2667   -5.8142    2.3309 O   0  0  0  0  0  0  0  0  0  0  0  0
   -0.8854   -6.7819    2.0514 C   0  0  0  0  0  0  0  0  0  0  0  0
   -1.2712   -7.2187    1.1271 H   0  0  0  0  0  0  0  0  0  0  0  0
   -0.4850   -7.5829    2.6788 H   0  0  0  0  0  0  0  0  0  0  0  0
   -1.7047   -6.2915    2.5832 H   0  0  0  0  0  0  0  0  0  0  0  0
   -0.0272   -4.8066    0.7772 N   0  0  0  0  0  0  0  0  0  0  0  0
    0.8429   -3.6519    0.5220 C   0  0  2  0  0  0  0  0  0  0  0  0
    0.0542   -2.5169   -0.1660 C   0  0  0  0  0  0  0  0  0  0  0  0
   -1.0243   -2.7636   -0.6994 O   0  0  0  0  0  0  0  0  0  0  0  0
    2.0192   -4.0866   -0.3599 C   0  0  0  0  0  0  0  0  0  0  0  0
   -0.9664   -4.7510    0.3826 H   0  0  0  0  0  0  0  0  0  0  0  0
    1.2227   -3.2649    1.4740 H   0  0  0  0  0  0  0  0  0  0  0  0
    1.6552   -4.4719   -1.3176 H   0  0  0  0  0  0  0  0  0  0  0  0
    2.6848   -3.2400   -0.5545 H   0  0  0  0  0  0  0  0  0  0  0  0
    2.5987   -4.8722    0.1347 H   0  0  0  0  0  0  0  0  0  0  0  0
    0.5764   -1.2395   -0.2190 N   0  0  0  0  0  0  0  0  0  0  0  0
   -0.1387   -0.0502   -0.7052 C   0  0  2  0  0  0  0  0  0  0  0  0
    0.7637    0.7784   -1.6390 C   0  0  0  0  0  0  0  0  0  0  0  0
    1.9481    0.9543   -1.3665 O   0  0  0  0  0  0  0  0  0  0  0  0
   -0.5679    0.8234    0.4859 C   0  0  0  0  0  0  0  0  0  0  0  0
   -1.6314    0.1440    1.3618 C   0  0  0  0  0  0  0  0  0  0  0  0
   -1.9987    1.0460    2.5376 C   0  0  0  0  0  0  0  0  0  0  0  0
   -2.8553    1.9420    2.3357 O   0  5  0  0  0  0  0  0  0  0  0  0
   -1.3786    0.8755    3.6165 O   0  0  0  0  0  0  0  0  0  0  0  0
    1.4704   -1.0802    0.2387 H   0  0  0  0  0  0  0  0  0  0  0  0
   -1.0303   -0.3426   -1.2690 H   0  0  0  0  0  0  0  0  0  0  0  0
   -0.9782    1.7695    0.1150 H   0  0  0  0  0  0  0  0  0  0  0  0
    0.3069    1.0635    1.1006 H   0  0  0  0  0  0  0  0  0  0  0  0
   -2.5266   -0.0635    0.7681 H   0  0  0  0  0  0  0  0  0  0  0  0
   -1.2591   -0.8084    1.7491 H   0  0  0  0  0  0  0  0  0  0  0  0
    0.2741    1.2769   -2.8317 N   0  0  0  0  0  0  0  0  0  0  0  0
    1.0316    2.1523   -3.7342 C   0  0  2  0  0  0  0  0  0  0  0  0
    0.1159    3.1391   -4.4867 C   0  0  0  0  0  0  0  0  0  0  0  0
   -1.0430    2.8359   -4.7476 O   0  0  0  0  0  0  0  0  0  0  0  0
    1.8004    1.2795   -4.7305 C   0  0  0  0  0  0  0  0  0  0  0  0
   -0.7243    1.1708   -3.0101 H   0  0  0  0  0  0  0  0  0  0  0  0
    1.7440    2.7463   -3.1518 H   0  0  0  0  0  0  0  0  0  0  0  0
    1.1062    0.6783   -5.3266 H   0  0  0  0  0  0  0  0  0  0  0  0
    2.3927    1.9029   -5.4070 H   0  0  0  0  0  0  0  0  0  0  0  0
    2.4784    0.6044   -4.1988 H   0  0  0  0  0  0  0  0  0  0  0  0
    0.6027    4.3701   -4.8883 N   0  0  0  0  0  0  0  0  0  0  0  0
   -0.2225    5.3814   -5.5360 C   0  0  0  0  0  0  0  0  0  0  0  0
    1.5393    4.6208   -4.5857 H   0  0  0  0  0  0  0  0  0  0  0  0
   -0.6407    4.9933   -6.4705 H   0  0  0  0  0  0  0  0  0  0  0  0
   -1.0447    5.6831   -4.8789 H   0  0  0  0  0  0  0  0  0  0  0  0
    0.3777    6.2661   -5.7680 H   0  0  0  0  0  0  0  0  0  0  0  0
  1  2  2  0  0  0  0
  1  3  1  0  0  0  0
  1  7  1  0  0  0  0
  3  4  1  0  0  0  0
  3  5  1  0  0  0  0
  3  6  1  0  0  0  0
  7  8  1  0  0  0  0
  7 12  1  0  0  0  0
  8  9  1  0  0  0  0
  8 11  1  0  0  0  0
  8 13  1  0  0  0  0
  9 10  2  0  0  0  0
  9 17  1  0  0  0  0
 11 14  1  0  0  0  0
 11 15  1  0  0  0  0
 11 16  1  0  0  0  0
 17 18  1  0  0  0  0
 17 26  1  0  0  0  0
 18 19  1  0  0  0  0
 18 21  1  0  0  0  0
 18 27  1  0  0  0  0
 19 20  2  0  0  0  0
 19 32  1  0  0  0  0
 21 22  1  0  0  0  0
 21 28  1  0  0  0  0
 21 29  1  0  0  0  0
 22 23  1  0  0  0  0
 22 30  1  0  0  0  0
 22 31  1  0  0  0  0
 23 24  1  0  0  0  0
 23 25  2  0  0  0  0
 32 33  1  0  0  0  0
 32 37  1  0  0  0  0
 33 34  1  0  0  0  0
 33 36  1  0  0  0  0
 33 38  1  0  0  0  0
 34 35  2  0  0  0  0
 34 42  1  0  0  0  0
 36 39  1  0  0  0  0
 36 40  1  0  0  0  0
 36 41  1  0  0  0  0
 42 43  1  0  0  0  0
 42 44  1  0  0  0  0
 43 45  1  0  0  0  0
 43 46  1  0  0  0  0
 43 47  1  0  0  0  0
M  CHG  1  24  -1
M  END
$$$$

  -OEChem-05262216243D

 47 46  0     1  0  0  0  0  0999 V2000
    0.2377   -5.7886    1.6783 C   0  0  0  0  0  0  0  0  0  0  0  0
    1.3220   -5.8327    2.2395 O   0  0  0  0  0  0  0  0  0  0  0  0
   -0.8292   -6.8156    2.0104 C   0  0  0  0  0  0  0  0  0  0  0  0
   -1.1708   -7.3096    1.0977 H   0  0  0  0  0  0  0  0  0  0  0  0
   -0.4274   -7.5713    2.6908 H   0  0  0  0  0  0  0  0  0  0  0  0
   -1.6794   -6.3246    2.4904 H   0  0  0  0  0  0  0  0  0  0  0  0
   -0.0267   -4.8133    0.7413 N   0  0  0  0  0  0  0  0  0  0  0  0
    0.8259   -3.6463    0.4825 C   0  0  2  0  0  0  0  0  0  0  0  0
    0.0081   -2.4952   -0.1413 C   0  0  0  0  0  0  0  0  0  0  0  0
   -1.0942   -2.7280   -0.6301 O   0  0  0  0  0  0  0  0  0  0  0  0
    1.9673   -4.0517   -0.4571 C   0  0  0  0  0  0  0  0  0  0  0  0
   -0.9792   -4.7561    0.3808 H   0  0  0  0  0  0  0  0  0  0  0  0
    1.2422   -3.2827    1.4283 H   0  0  0  0  0  0  0  0  0  0  0  0
    1.5674   -4.4260   -1.4048 H   0  0  0  0  0  0  0  0  0  0  0  0
    2.6139   -3.1939   -0.6661 H   0  0  0  0  0  0  0  0  0  0  0  0
    2.5767   -4.8375   -0.0008 H   0  0  0  0  0  0  0  0  0  0  0  0
    0.5354   -1.2200   -0.1932 N   0  0  0  0  0  0  0  0  0  0  0  0
   -0.1665   -0.0249   -0.6839 C   0  0  2  0  0  0  0  0  0  0  0  0
    0.7448    0.8007   -1.6128 C   0  0  0  0  0  0  0  0  0  0  0  0
    1.9650    0.7838   -1.4694 O   0  0  0  0  0  0  0  0  0  0  0  0
   -0.5834    0.8565    0.5056 C   0  0  0  0  0  0  0  0  0  0  0  0
   -1.6526    0.1975    1.3893 C   0  0  0  0  0  0  0  0  0  0  0  0
   -1.9991    1.1154    2.5593 C   0  0  0  0  0  0  0  0  0  0  0  0
   -2.7671    2.0822    2.3289 O   0  5  0  0  0  0  0  0  0  0  0  0
   -1.4460    0.8856    3.6631 O   0  0  0  0  0  0  0  0  0  0  0  0
    1.4679   -1.0806    0.1877 H   0  0  0  0  0  0  0  0  0  0  0  0
   -1.0584   -0.3091   -1.2515 H   0  0  0  0  0  0  0  0  0  0  0  0
   -0.9827    1.8063    0.1324 H   0  0  0  0  0  0  0  0  0  0  0  0
    0.2960    1.0872    1.1172 H   0  0  0  0  0  0  0  0  0  0  0  0
   -2.5540   -0.0004    0.8020 H   0  0  0  0  0  0  0  0  0  0  0  0
   -1.2918   -0.7579    1.7803 H   0  0  0  0  0  0  0  0  0  0  0  0
    0.2037    1.5555   -2.6364 N   0  0  0  0  0  0  0  0  0  0  0  0
    0.9753    2.4714   -3.4846 C   0  0  2  0  0  0  0  0  0  0  0  0
    0.1223    3.6613   -3.9693 C   0  0  0  0  0  0  0  0  0  0  0  0
   -1.0778    3.5203   -4.1756 O   0  0  0  0  0  0  0  0  0  0  0  0
    1.5214    1.6882   -4.6821 C   0  0  0  0  0  0  0  0  0  0  0  0
   -0.8133    1.6128   -2.6898 H   0  0  0  0  0  0  0  0  0  0  0  0
    1.8131    2.8801   -2.9098 H   0  0  0  0  0  0  0  0  0  0  0  0
    0.6995    1.2681   -5.2705 H   0  0  0  0  0  0  0  0  0  0  0  0
    2.1148    2.3419   -5.3283 H   0  0  0  0  0  0  0  0  0  0  0  0
    2.1598    0.8675   -4.3404 H   0  0  0  0  0  0  0  0  0  0  0  0
    0.7099    4.8936   -4.1936 N   0  0  0  0  0  0  0  0  0  0  0  0
   -0.0470    6.0788   -4.5759 C   0  0  0  0  0  0  0  0  0  0  0  0
    1.6864    4.9976   -3.9346 H   0  0  0  0  0  0  0  0  0  0  0  0
   -0.5565    5.9160   -5.5315 H   0  0  0  0  0  0  0  0  0  0  0  0
   -0.7947    6.3183   -3.8124 H   0  0  0  0  0  0  0  0  0  0  0  0
    0.6238    6.9363   -4.6842 H   0  0  0  0  0  0  0  0  0  0  0  0
  1  2  2  0  0  0  0
  1  3  1  0  0  0  0
  1  7  1  0  0  0  0
  3  4  1  0  0  0  0
  3  5  1  0  0  0  0
  3  6  1  0  0  0  0
  7  8  1  0  0  0  0
  7 12  1  0  0  0  0
  8  9  1  0  0  0  0
  8 11  1  0  0  0  0
  8 13  1  0  0  0  0
  9 10  2  0  0  0  0
  9 17  1  0  0  0  0
 11 14  1  0  0  0  0
 11 15  1  0  0  0  0
 11 16  1  0  0  0  0
 17 18  1  0  0  0  0
 17 26  1  0  0  0  0
 18 19  1  0  0  0  0
 18 21  1  0  0  0  0
 18 27  1  0  0  0  0
 19 20  2  0  0  0  0
 19 32  1  0  0  0  0
 21 22  1  0  0  0  0
 21 28  1  0  0  0  0
 21 29  1  0  0  0  0
 22 23  1  0  0  0  0
 22 30  1  0  0  0  0
 22 31  1  0  0  0  0
 23 24  1  0  0  0  0
 23 25  2  0  0  0  0
 32 33  1  0  0  0  0
 32 37  1  0  0  0  0
 33 34  1  0  0  0  0
 33 36  1  0  0  0  0
 33 38  1  0  0  0  0
 34 35  2  0  0  0  0
 34 42  1  0  0  0  0
 36 39  1  0  0  0  0
 36 40  1  0  0  0  0
 36 41  1  0  0  0  0
 42 43  1  0  0  0  0
 42 44  1  0  0  0  0
 43 45  1  0  0  0  0
 43 46  1  0  0  0  0
 43 47  1  0  0  0  0
M  CHG  1  24  -1
M  END
$$$$

  -OEChem-05262216243D

 47 46  0     1  0  0  0  0  0999 V2000
    0.3244   -5.7993    1.6262 C   0  0  0  0  0  0  0  0  0  0  0  0
    1.4124   -5.8319    2.1812 O   0  0  0  0  0  0  0  0  0  0  0  0
   -0.7088   -6.8719    1.9175 C   0  0  0  0  0  0  0  0  0  0  0  0
   -0.9577   -7.4081    0.9986 H   0  0  0  0  0  0  0  0  0  0  0  0
   -0.3179   -7.5849    2.6485 H   0  0  0  0  0  0  0  0  0  0  0  0
   -1.6158   -6.4151    2.3215 H   0  0  0  0  0  0  0  0  0  0  0  0
    0.0289   -4.8019    0.7230 N   0  0  0  0  0  0  0  0  0  0  0  0
    0.8508   -3.6067    0.4972 C   0  0  2  0  0  0  0  0  0  0  0  0
   -0.0045   -2.4492   -0.0607 C   0  0  0  0  0  0  0  0  0  0  0  0
   -1.1364   -2.6773   -0.4785 O   0  0  0  0  0  0  0  0  0  0  0  0
    1.9821   -3.9508   -0.4787 C   0  0  0  0  0  0  0  0  0  0  0  0
   -0.9306   -4.7519    0.3793 H   0  0  0  0  0  0  0  0  0  0  0  0
    1.2785   -3.2727    1.4486 H   0  0  0  0  0  0  0  0  0  0  0  0
    1.5713   -4.2807   -1.4383 H   0  0  0  0  0  0  0  0  0  0  0  0
    2.6177   -3.0773   -0.6532 H   0  0  0  0  0  0  0  0  0  0  0  0
    2.6063   -4.7524   -0.0721 H   0  0  0  0  0  0  0  0  0  0  0  0
    0.5236   -1.1763   -0.1449 N   0  0  0  0  0  0  0  0  0  0  0  0
   -0.1854    0.0100   -0.6470 C   0  0  2  0  0  0  0  0  0  0  0  0
    0.7112    0.8186   -1.6075 C   0  0  0  0  0  0  0  0  0  0  0  0
    1.9246    0.6259   -1.6489 O   0  0  0  0  0  0  0  0  0  0  0  0
   -0.5734    0.9183    0.5341 C   0  0  0  0  0  0  0  0  0  0  0  0
   -1.6280    0.2891    1.4648 C   0  0  0  0  0  0  0  0  0  0  0  0
   -1.9941    1.1879    2.6530 C   0  0  0  0  0  0  0  0  0  0  0  0
   -2.8491    0.7412    3.4558 O   0  5  0  0  0  0  0  0  0  0  0  0
   -1.4301    2.3074    2.7632 O   0  0  0  0  0  0  0  0  0  0  0  0
    1.5008   -1.0540    0.1087 H   0  0  0  0  0  0  0  0  0  0  0  0
   -1.0880   -0.2813   -1.1937 H   0  0  0  0  0  0  0  0  0  0  0  0
   -0.9756    1.8627    0.1515 H   0  0  0  0  0  0  0  0  0  0  0  0
    0.3237    1.1575    1.1161 H   0  0  0  0  0  0  0  0  0  0  0  0
   -2.5349    0.0754    0.8920 H   0  0  0  0  0  0  0  0  0  0  0  0
   -1.2534   -0.6575    1.8626 H   0  0  0  0  0  0  0  0  0  0  0  0
    0.1619    1.7848   -2.4294 N   0  0  0  0  0  0  0  0  0  0  0  0
    0.9441    2.7167   -3.2495 C   0  0  2  0  0  0  0  0  0  0  0  0
    0.2182    4.0657   -3.4249 C   0  0  0  0  0  0  0  0  0  0  0  0
   -1.0044    4.1027   -3.5050 O   0  0  0  0  0  0  0  0  0  0  0  0
    1.2043    2.0709   -4.6131 C   0  0  0  0  0  0  0  0  0  0  0  0
   -0.8316    1.9864   -2.3141 H   0  0  0  0  0  0  0  0  0  0  0  0
    1.9018    2.9189   -2.7588 H   0  0  0  0  0  0  0  0  0  0  0  0
    0.2584    1.8555   -5.1201 H   0  0  0  0  0  0  0  0  0  0  0  0
    1.7958    2.7394   -5.2454 H   0  0  0  0  0  0  0  0  0  0  0  0
    1.7551    1.1331   -4.4904 H   0  0  0  0  0  0  0  0  0  0  0  0
    0.9408    5.2427   -3.5040 N   0  0  0  0  0  0  0  0  0  0  0  0
    0.3105    6.5562   -3.5446 C   0  0  0  0  0  0  0  0  0  0  0  0
    1.9397    5.1852   -3.3296 H   0  0  0  0  0  0  0  0  0  0  0  0
   -0.3649    6.6320   -4.4031 H   0  0  0  0  0  0  0  0  0  0  0  0
   -0.2624    6.7335   -2.6281 H   0  0  0  0  0  0  0  0  0  0  0  0
    1.0710    7.3373   -3.6354 H   0  0  0  0  0  0  0  0  0  0  0  0
  1  2  2  0  0  0  0
  1  3  1  0  0  0  0
  1  7  1  0  0  0  0
  3  4  1  0  0  0  0
  3  5  1  0  0  0  0
  3  6  1  0  0  0  0
  7  8  1  0  0  0  0
  7 12  1  0  0  0  0
  8  9  1  0  0  0  0
  8 11  1  0  0  0  0
  8 13  1  0  0  0  0
  9 10  2  0  0  0  0
  9 17  1  0  0  0  0
 11 14  1  0  0  0  0
 11 15  1  0  0  0  0
 11 16  1  0  0  0  0
 17 18  1  0  0  0  0
 17 26  1  0  0  0  0
 18 19  1  0  0  0  0
 18 21  1  0  0  0  0
 18 27  1  0  0  0  0
 19 20  2  0  0  0  0
 19 32  1  0  0  0  0
 21 22  1  0  0  0  0
 21 28  1  0  0  0  0
 21 29  1  0  0  0  0
 22 23  1  0  0  0  0
 22 30  1  0  0  0  0
 22 31  1  0  0  0  0
 23 24  1  0  0  0  0
 23 25  2  0  0  0  0
 32 33  1  0  0  0  0
 32 37  1  0  0  0  0
 33 34  1  0  0  0  0
 33 36  1  0  0  0  0
 33 38  1  0  0  0  0
 34 35  2  0  0  0  0
 34 42  1  0  0  0  0
 36 39  1  0  0  0  0
 36 40  1  0  0  0  0
 36 41  1  0  0  0  0
 42 43  1  0  0  0  0
 42 44  1  0  0  0  0
 43 45  1  0  0  0  0
 43 46  1  0  0  0  0
 43 47  1  0  0  0  0
M  CHG  1  24  -1
M  END
$$$$

  -OEChem-05262216243D

 47 46  0     1  0  0  0  0  0999 V2000
    0.3589   -5.8054    1.5336 C   0  0  0  0  0  0  0  0  0  0  0  0
    1.4820   -5.8697    2.0096 O   0  0  0  0  0  0  0  0  0  0  0  0
   -0.6784   -6.8527    1.8938 C   0  0  0  0  0  0  0  0  0  0  0  0
   -1.0636   -7.3242    0.9865 H   0  0  0  0  0  0  0  0  0  0  0  0
   -0.2329   -7.6225    2.5301 H   0  0  0  0  0  0  0  0  0  0  0  0
   -1.5064   -6.3848    2.4325 H   0  0  0  0  0  0  0  0  0  0  0  0
    0.0205   -4.7856    0.6714 N   0  0  0  0  0  0  0  0  0  0  0  0
    0.8444   -3.5978    0.4157 C   0  0  2  0  0  0  0  0  0  0  0  0
   -0.0351   -2.4076   -0.0230 C   0  0  0  0  0  0  0  0  0  0  0  0
   -1.1997   -2.6076   -0.3596 O   0  0  0  0  0  0  0  0  0  0  0  0
    1.8760   -3.9279   -0.6686 C   0  0  0  0  0  0  0  0  0  0  0  0
   -0.9589   -4.7120    0.3953 H   0  0  0  0  0  0  0  0  0  0  0  0
    1.3625   -3.3048    1.3354 H   0  0  0  0  0  0  0  0  0  0  0  0
    1.3742   -4.2217   -1.5959 H   0  0  0  0  0  0  0  0  0  0  0  0
    2.5076   -3.0585   -0.8752 H   0  0  0  0  0  0  0  0  0  0  0  0
    2.5201   -4.7509   -0.3441 H   0  0  0  0  0  0  0  0  0  0  0  0
    0.4936   -1.1328   -0.0575 N   0  0  0  0  0  0  0  0  0  0  0  0
   -0.2190    0.0640   -0.5326 C   0  0  2  0  0  0  0  0  0  0  0  0
    0.5130    0.7142   -1.7287 C   0  0  0  0  0  0  0  0  0  0  0  0
    1.5889    0.2717   -2.1256 O   0  0  0  0  0  0  0  0  0  0  0  0
   -0.2978    1.0654    0.6349 C   0  0  0  0  0  0  0  0  0  0  0  0
   -1.1897    0.5610    1.7798 C   0  0  0  0  0  0  0  0  0  0  0  0
   -1.2090    1.5819    2.9148 C   0  0  0  0  0  0  0  0  0  0  0  0
   -0.2317    1.5859    3.7039 O   0  5  0  0  0  0  0  0  0  0  0  0
   -2.1631    2.3968    2.9502 O   0  0  0  0  0  0  0  0  0  0  0  0
    1.4926   -1.0425    0.1050 H   0  0  0  0  0  0  0  0  0  0  0  0
   -1.2337   -0.1843   -0.8599 H   0  0  0  0  0  0  0  0  0  0  0  0
   -0.7074    2.0179    0.2824 H   0  0  0  0  0  0  0  0  0  0  0  0
    0.7096    1.2624    1.0193 H   0  0  0  0  0  0  0  0  0  0  0  0
   -2.2079    0.3935    1.4161 H   0  0  0  0  0  0  0  0  0  0  0  0
   -0.8134   -0.3896    2.1680 H   0  0  0  0  0  0  0  0  0  0  0  0
    0.0114    1.8532   -2.3319 N   0  0  0  0  0  0  0  0  0  0  0  0
    0.7075    2.6197   -3.3725 C   0  0  2  0  0  0  0  0  0  0  0  0
    0.2651    4.0964   -3.3926 C   0  0  0  0  0  0  0  0  0  0  0  0
   -0.8794    4.4050   -3.0823 O   0  0  0  0  0  0  0  0  0  0  0  0
    0.4354    1.9705   -4.7331 C   0  0  0  0  0  0  0  0  0  0  0  0
   -0.8408    2.2572   -1.9420 H   0  0  0  0  0  0  0  0  0  0  0  0
    1.7842    2.6023   -3.1747 H   0  0  0  0  0  0  0  0  0  0  0  0
   -0.6380    1.9700   -4.9480 H   0  0  0  0  0  0  0  0  0  0  0  0
    0.9508    2.5178   -5.5280 H   0  0  0  0  0  0  0  0  0  0  0  0
    0.7925    0.9359   -4.7394 H   0  0  0  0  0  0  0  0  0  0  0  0
    1.1557    5.0837   -3.7741 N   0  0  0  0  0  0  0  0  0  0  0  0
    0.8381    6.5046   -3.7146 C   0  0  0  0  0  0  0  0  0  0  0  0
    2.1175    4.8030   -3.9398 H   0  0  0  0  0  0  0  0  0  0  0  0
   -0.0504    6.7249   -4.3157 H   0  0  0  0  0  0  0  0  0  0  0  0
    0.6490    6.8103   -2.6801 H   0  0  0  0  0  0  0  0  0  0  0  0
    1.6725    7.0950   -4.1049 H   0  0  0  0  0  0  0  0  0  0  0  0
  1  2  2  0  0  0  0
  1  3  1  0  0  0  0
  1  7  1  0  0  0  0
  3  4  1  0  0  0  0
  3  5  1  0  0  0  0
  3  6  1  0  0  0  0
  7  8  1  0  0  0  0
  7 12  1  0  0  0  0
  8  9  1  0  0  0  0
  8 11  1  0  0  0  0
  8 13  1  0  0  0  0
  9 10  2  0  0  0  0
  9 17  1  0  0  0  0
 11 14  1  0  0  0  0
 11 15  1  0  0  0  0
 11 16  1  0  0  0  0
 17 18  1  0  0  0  0
 17 26  1  0  0  0  0
 18 19  1  0  0  0  0
 18 21  1  0  0  0  0
 18 27  1  0  0  0  0
 19 20  2  0  0  0  0
 19 32  1  0  0  0  0
 21 22  1  0  0  0  0
 21 28  1  0  0  0  0
 21 29  1  0  0  0  0
 22 23  1  0  0  0  0
 22 30  1  0  0  0  0
 22 31  1  0  0  0  0
 23 24  1  0  0  0  0
 23 25  2  0  0  0  0
 32 33  1  0  0  0  0
 32 37  1  0  0  0  0
 33 34  1  0  0  0  0
 33 36  1  0  0  0  0
 33 38  1  0  0  0  0
 34 35  2  0  0  0  0
 34 42  1  0  0  0  0
 36 39  1  0  0  0  0
 36 40  1  0  0  0  0
 36 41  1  0  0  0  0
 42 43  1  0  0  0  0
 42 44  1  0  0  0  0
 43 45  1  0  0  0  0
 43 46  1  0  0  0  0
 43 47  1  0  0  0  0
M  CHG  1  24  -1
M  END
$$$$

  -OEChem-05262216243D

 47 46  0     1  0  0  0  0  0999 V2000
    0.3643   -5.7907    1.5045 C   0  0  0  0  0  0  0  0  0  0  0  0
    1.4901   -5.8623    1.9731 O   0  0  0  0  0  0  0  0  0  0  0  0
   -0.6798   -6.8277    1.8758 C   0  0  0  0  0  0  0  0  0  0  0  0
   -1.0443   -7.3292    0.9761 H   0  0  0  0  0  0  0  0  0  0  0  0
   -0.2482   -7.5752    2.5471 H   0  0  0  0  0  0  0  0  0  0  0  0
   -1.5202   -6.3446    2.3807 H   0  0  0  0  0  0  0  0  0  0  0  0
    0.0298   -4.7726    0.6391 N   0  0  0  0  0  0  0  0  0  0  0  0
    0.8548   -3.5850    0.3859 C   0  0  2  0  0  0  0  0  0  0  0  0
   -0.0287   -2.3874   -0.0241 C   0  0  0  0  0  0  0  0  0  0  0  0
   -1.1933   -2.5840   -0.3628 O   0  0  0  0  0  0  0  0  0  0  0  0
    1.8670   -3.9038   -0.7193 C   0  0  0  0  0  0  0  0  0  0  0  0
   -0.9509   -4.6927    0.3696 H   0  0  0  0  0  0  0  0  0  0  0  0
    1.3888   -3.3053    1.3007 H   0  0  0  0  0  0  0  0  0  0  0  0
    1.3488   -4.1841   -1.6416 H   0  0  0  0  0  0  0  0  0  0  0  0
    2.4971   -3.0334   -0.9257 H   0  0  0  0  0  0  0  0  0  0  0  0
    2.5137   -4.7326   -0.4159 H   0  0  0  0  0  0  0  0  0  0  0  0
    0.4959   -1.1104   -0.0299 N   0  0  0  0  0  0  0  0  0  0  0  0
   -0.2197    0.0898   -0.4933 C   0  0  2  0  0  0  0  0  0  0  0  0
    0.5265    0.7612   -1.6723 C   0  0  0  0  0  0  0  0  0  0  0  0
    1.4700    0.1948   -2.2194 O   0  0  0  0  0  0  0  0  0  0  0  0
   -0.3228    1.0542    0.7050 C   0  0  0  0  0  0  0  0  0  0  0  0
   -1.2276    0.5086    1.8208 C   0  0  0  0  0  0  0  0  0  0  0  0
   -1.2692    1.4942    2.9860 C   0  0  0  0  0  0  0  0  0  0  0  0
   -0.2898    1.4979    3.7727 O   0  5  0  0  0  0  0  0  0  0  0  0
   -2.2433    2.2834    3.0489 O   0  0  0  0  0  0  0  0  0  0  0  0
    1.4930   -1.0219    0.1411 H   0  0  0  0  0  0  0  0  0  0  0  0
   -1.2283   -0.1566   -0.8408 H   0  0  0  0  0  0  0  0  0  0  0  0
   -0.7389    2.0135    0.3812 H   0  0  0  0  0  0  0  0  0  0  0  0
    0.6774    1.2481    1.1090 H   0  0  0  0  0  0  0  0  0  0  0  0
   -2.2395    0.3478    1.4372 H   0  0  0  0  0  0  0  0  0  0  0  0
   -0.8529   -0.4519    2.1854 H   0  0  0  0  0  0  0  0  0  0  0  0
    0.2266    2.0499   -2.0779 N   0  0  0  0  0  0  0  0  0  0  0  0
    0.9791    2.8033   -3.0896 C   0  0  2  0  0  0  0  0  0  0  0  0
    0.8391    4.3274   -2.8999 C   0  0  0  0  0  0  0  0  0  0  0  0
   -0.1874    4.8015   -2.4284 O   0  0  0  0  0  0  0  0  0  0  0  0
    0.4788    2.4013   -4.4809 C   0  0  0  0  0  0  0  0  0  0  0  0
   -0.5057    2.5474   -1.5700 H   0  0  0  0  0  0  0  0  0  0  0  0
    2.0429    2.5585   -3.0040 H   0  0  0  0  0  0  0  0  0  0  0  0
   -0.5857    2.6346   -4.5852 H   0  0  0  0  0  0  0  0  0  0  0  0
    1.0323    2.9397   -5.2560 H   0  0  0  0  0  0  0  0  0  0  0  0
    0.6174    1.3274   -4.6410 H   0  0  0  0  0  0  0  0  0  0  0  0
    1.8669    5.1738   -3.2766 N   0  0  0  0  0  0  0  0  0  0  0  0
    1.8384    6.6126   -3.0441 C   0  0  0  0  0  0  0  0  0  0  0  0
    2.7320    4.7439   -3.5901 H   0  0  0  0  0  0  0  0  0  0  0  0
    0.9711    7.0649   -3.5368 H   0  0  0  0  0  0  0  0  0  0  0  0
    1.7849    6.8257   -1.9712 H   0  0  0  0  0  0  0  0  0  0  0  0
    2.7438    7.0772   -3.4458 H   0  0  0  0  0  0  0  0  0  0  0  0
  1  2  2  0  0  0  0
  1  3  1  0  0  0  0
  1  7  1  0  0  0  0
  3  4  1  0  0  0  0
  3  5  1  0  0  0  0
  3  6  1  0  0  0  0
  7  8  1  0  0  0  0
  7 12  1  0  0  0  0
  8  9  1  0  0  0  0
  8 11  1  0  0  0  0
  8 13  1  0  0  0  0
  9 10  2  0  0  0  0
  9 17  1  0  0  0  0
 11 14  1  0  0  0  0
 11 15  1  0  0  0  0
 11 16  1  0  0  0  0
 17 18  1  0  0  0  0
 17 26  1  0  0  0  0
 18 19  1  0  0  0  0
 18 21  1  0  0  0  0
 18 27  1  0  0  0  0
 19 20  2  0  0  0  0
 19 32  1  0  0  0  0
 21 22  1  0  0  0  0
 21 28  1  0  0  0  0
 21 29  1  0  0  0  0
 22 23  1  0  0  0  0
 22 30  1  0  0  0  0
 22 31  1  0  0  0  0
 23 24  1  0  0  0  0
 23 25  2  0  0  0  0
 32 33  1  0  0  0  0
 32 37  1  0  0  0  0
 33 34  1  0  0  0  0
 33 36  1  0  0  0  0
 33 38  1  0  0  0  0
 34 35  2  0  0  0  0
 34 42  1  0  0  0  0
 36 39  1  0  0  0  0
 36 40  1  0  0  0  0
 36 41  1  0  0  0  0
 42 43  1  0  0  0  0
 42 44  1  0  0  0  0
 43 45  1  0  0  0  0
 43 46  1  0  0  0  0
 43 47  1  0  0  0  0
M  CHG  1  24  -1
M  END
$$$$

  -OEChem-05262216243D

 47 46  0     1  0  0  0  0  0999 V2000
    0.3475   -5.7693    1.5202 C   0  0  0  0  0  0  0  0  0  0  0  0
    1.4681   -5.8385    2.0018 O   0  0  0  0  0  0  0  0  0  0  0  0
   -0.7026   -6.7996    1.8926 C   0  0  0  0  0  0  0  0  0  0  0  0
   -1.0353   -7.3329    0.9988 H   0  0  0  0  0  0  0  0  0  0  0  0
   -0.2888   -7.5212    2.6024 H   0  0  0  0  0  0  0  0  0  0  0  0
   -1.5611   -6.3049    2.3539 H   0  0  0  0  0  0  0  0  0  0  0  0
    0.0250   -4.7615    0.6382 N   0  0  0  0  0  0  0  0  0  0  0  0
    0.8584   -3.5818    0.3770 C   0  0  2  0  0  0  0  0  0  0  0  0
   -0.0083   -2.3877   -0.0764 C   0  0  0  0  0  0  0  0  0  0  0  0
   -1.1584   -2.5869   -0.4595 O   0  0  0  0  0  0  0  0  0  0  0  0
    1.8940   -3.9268   -0.6979 C   0  0  0  0  0  0  0  0  0  0  0  0
   -0.9510   -4.6862    0.3510 H   0  0  0  0  0  0  0  0  0  0  0  0
    1.3731   -3.2860    1.2976 H   0  0  0  0  0  0  0  0  0  0  0  0
    1.3961   -4.2327   -1.6234 H   0  0  0  0  0  0  0  0  0  0  0  0
    2.5266   -3.0602   -0.9133 H   0  0  0  0  0  0  0  0  0  0  0  0
    2.5353   -4.7460   -0.3587 H   0  0  0  0  0  0  0  0  0  0  0  0
    0.5113   -1.1081   -0.0488 N   0  0  0  0  0  0  0  0  0  0  0  0
   -0.2040    0.1010   -0.4910 C   0  0  2  0  0  0  0  0  0  0  0  0
    0.5538    0.8004   -1.6490 C   0  0  0  0  0  0  0  0  0  0  0  0
    1.3155    0.1593   -2.3684 O   0  0  0  0  0  0  0  0  0  0  0  0
   -0.3415    1.0241    0.7369 C   0  0  0  0  0  0  0  0  0  0  0  0
   -1.2662    0.4328    1.8127 C   0  0  0  0  0  0  0  0  0  0  0  0
   -1.3425    1.3767    3.0095 C   0  0  0  0  0  0  0  0  0  0  0  0
   -0.5112    1.2047    3.9352 O   0  5  0  0  0  0  0  0  0  0  0  0
   -2.1781    2.3123    2.9585 O   0  0  0  0  0  0  0  0  0  0  0  0
    1.4865   -1.0109    0.2146 H   0  0  0  0  0  0  0  0  0  0  0  0
   -1.2048   -0.1428   -0.8616 H   0  0  0  0  0  0  0  0  0  0  0  0
   -0.7659    1.9875    0.4366 H   0  0  0  0  0  0  0  0  0  0  0  0
    0.6467    1.2167    1.1690 H   0  0  0  0  0  0  0  0  0  0  0  0
   -2.2694    0.2794    1.4041 H   0  0  0  0  0  0  0  0  0  0  0  0
   -0.8928   -0.5379    2.1510 H   0  0  0  0  0  0  0  0  0  0  0  0
    0.4935    2.1697   -1.8471 N   0  0  0  0  0  0  0  0  0  0  0  0
    1.3025    2.9108   -2.8245 C   0  0  2  0  0  0  0  0  0  0  0  0
    1.5193    4.3791   -2.4048 C   0  0  0  0  0  0  0  0  0  0  0  0
    0.7162    4.9404   -1.6700 O   0  0  0  0  0  0  0  0  0  0  0  0
    0.6065    2.8528   -4.1880 C   0  0  0  0  0  0  0  0  0  0  0  0
   -0.0625    2.7181   -1.1893 H   0  0  0  0  0  0  0  0  0  0  0  0
    2.2899    2.4447   -2.9042 H   0  0  0  0  0  0  0  0  0  0  0  0
   -0.3784    3.3277   -4.1345 H   0  0  0  0  0  0  0  0  0  0  0  0
    1.2038    3.3709   -4.9440 H   0  0  0  0  0  0  0  0  0  0  0  0
    0.4758    1.8136   -4.5052 H   0  0  0  0  0  0  0  0  0  0  0  0
    2.6161    5.0836   -2.8689 N   0  0  0  0  0  0  0  0  0  0  0  0
    2.9078    6.4552   -2.4708 C   0  0  0  0  0  0  0  0  0  0  0  0
    3.2920    4.5795   -3.4346 H   0  0  0  0  0  0  0  0  0  0  0  0
    2.0727    7.1155   -2.7279 H   0  0  0  0  0  0  0  0  0  0  0  0
    3.0815    6.5110   -1.3910 H   0  0  0  0  0  0  0  0  0  0  0  0
    3.8032    6.8161   -2.9856 H   0  0  0  0  0  0  0  0  0  0  0  0
  1  2  2  0  0  0  0
  1  3  1  0  0  0  0
  1  7  1  0  0  0  0
  3  4  1  0  0  0  0
  3  5  1  0  0  0  0
  3  6  1  0  0  0  0
  7  8  1  0  0  0  0
  7 12  1  0  0  0  0
  8  9  1  0  0  0  0
  8 11  1  0  0  0  0
  8 13  1  0  0  0  0
  9 10  2  0  0  0  0
  9 17  1  0  0  0  0
 11 14  1  0  0  0  0
 11 15  1  0  0  0  0
 11 16  1  0  0  0  0
 17 18  1  0  0  0  0
 17 26  1  0  0  0  0
 18 19  1  0  0  0  0
 18 21  1  0  0  0  0
 18 27  1  0  0  0  0
 19 20  2  0  0  0  0
 19 32  1  0  0  0  0
 21 22  1  0  0  0  0
 21 28  1  0  0  0  0
 21 29  1  0  0  0  0
 22 23  1  0  0  0  0
 22 30  1  0  0  0  0
 22 31  1  0  0  0  0
 23 24  1  0  0  0  0
 23 25  2  0  0  0  0
 32 33  1  0  0  0  0
 32 37  1  0  0  0  0
 33 34  1  0  0  0  0
 33 36  1  0  0  0  0
 33 38  1  0  0  0  0
 34 35  2  0  0  0  0
 34 42  1  0  0  0  0
 36 39  1  0  0  0  0
 36 40  1  0  0  0  0
 36 41  1  0  0  0  0
 42 43  1  0  0  0  0
 42 44  1  0  0  0  0
 43 45  1  0  0  0  0
 43 46  1  0  0  0  0
 43 47  1  0  0  0  0
M  CHG  1  24  -1
M  END
$$$$

  -OEChem-05262216243D

 47 46  0     1  0  0  0  0  0999 V2000
    0.3203   -5.7958    1.4950 C   0  0  0  0  0  0  0  0  0  0  0  0
    1.4173   -5.8718    2.0273 O   0  0  0  0  0  0  0  0  0  0  0  0
   -0.7298   -6.8570    1.7681 C   0  0  0  0  0  0  0  0  0  0  0  0
   -1.0786   -7.2884    0.8268 H   0  0  0  0  0  0  0  0  0  0  0  0
   -0.3095   -7.6541    2.3873 H   0  0  0  0  0  0  0  0  0  0  0  0
   -1.5785   -6.4120    2.2933 H   0  0  0  0  0  0  0  0  0  0  0  0
    0.0265   -4.7537    0.6428 N   0  0  0  0  0  0  0  0  0  0  0  0
    0.8677   -3.5667    0.4453 C   0  0  2  0  0  0  0  0  0  0  0  0
    0.0232   -2.3715   -0.0453 C   0  0  0  0  0  0  0  0  0  0  0  0
   -1.1070   -2.5707   -0.4831 O   0  0  0  0  0  0  0  0  0  0  0  0
    1.9655   -3.8912   -0.5738 C   0  0  0  0  0  0  0  0  0  0  0  0
   -0.9337   -4.6776    0.3062 H   0  0  0  0  0  0  0  0  0  0  0  0
    1.3257   -3.2805    1.3983 H   0  0  0  0  0  0  0  0  0  0  0  0
    1.5221   -4.1824   -1.5313 H   0  0  0  0  0  0  0  0  0  0  0  0
    2.6061   -3.0196   -0.7381 H   0  0  0  0  0  0  0  0  0  0  0  0
    2.5904   -4.7140   -0.2133 H   0  0  0  0  0  0  0  0  0  0  0  0
    0.5425   -1.0924    0.0098 N   0  0  0  0  0  0  0  0  0  0  0  0
   -0.1580    0.1197   -0.4469 C   0  0  2  0  0  0  0  0  0  0  0  0
    0.6387    0.8262   -1.5725 C   0  0  0  0  0  0  0  0  0  0  0  0
    1.1872    0.1627   -2.4472 O   0  0  0  0  0  0  0  0  0  0  0  0
   -0.3738    1.0283    0.7800 C   0  0  0  0  0  0  0  0  0  0  0  0
   -1.3535    0.4112    1.7904 C   0  0  0  0  0  0  0  0  0  0  0  0
   -1.5137    1.3350    2.9945 C   0  0  0  0  0  0  0  0  0  0  0  0
   -0.7704    1.1290    3.9854 O   0  5  0  0  0  0  0  0  0  0  0  0
   -2.3202    2.2914    2.8876 O   0  0  0  0  0  0  0  0  0  0  0  0
    1.4847   -0.9918    0.3720 H   0  0  0  0  0  0  0  0  0  0  0  0
   -1.1384   -0.1276   -0.8665 H   0  0  0  0  0  0  0  0  0  0  0  0
   -0.7913    1.9902    0.4637 H   0  0  0  0  0  0  0  0  0  0  0  0
    0.5846    1.2251    1.2730 H   0  0  0  0  0  0  0  0  0  0  0  0
   -2.3282    0.2534    1.3196 H   0  0  0  0  0  0  0  0  0  0  0  0
   -0.9900   -0.5611    2.1349 H   0  0  0  0  0  0  0  0  0  0  0  0
    0.8400    2.1961   -1.5920 N   0  0  0  0  0  0  0  0  0  0  0  0
    1.6543    2.9082   -2.5860 C   0  0  2  0  0  0  0  0  0  0  0  0
    2.2817    4.1989   -2.0208 C   0  0  0  0  0  0  0  0  0  0  0  0
    1.8235    4.7285   -1.0162 O   0  0  0  0  0  0  0  0  0  0  0  0
    0.7662    3.2353   -3.7900 C   0  0  0  0  0  0  0  0  0  0  0  0
    0.4744    2.7395   -0.8090 H   0  0  0  0  0  0  0  0  0  0  0  0
    2.4792    2.2657   -2.9104 H   0  0  0  0  0  0  0  0  0  0  0  0
   -0.0626    3.8833   -3.4871 H   0  0  0  0  0  0  0  0  0  0  0  0
    1.3439    3.7463   -4.5658 H   0  0  0  0  0  0  0  0  0  0  0  0
    0.3524    2.3163   -4.2172 H   0  0  0  0  0  0  0  0  0  0  0  0
    3.3719    4.7750   -2.6490 N   0  0  0  0  0  0  0  0  0  0  0  0
    4.0388    5.9709   -2.1503 C   0  0  0  0  0  0  0  0  0  0  0  0
    3.7536    4.2968   -3.4594 H   0  0  0  0  0  0  0  0  0  0  0  0
    3.3378    6.8111   -2.1088 H   0  0  0  0  0  0  0  0  0  0  0  0
    4.4382    5.7944   -1.1460 H   0  0  0  0  0  0  0  0  0  0  0  0
    4.8673    6.2449   -2.8100 H   0  0  0  0  0  0  0  0  0  0  0  0
  1  2  2  0  0  0  0
  1  3  1  0  0  0  0
  1  7  1  0  0  0  0
  3  4  1  0  0  0  0
  3  5  1  0  0  0  0
  3  6  1  0  0  0  0
  7  8  1  0  0  0  0
  7 12  1  0  0  0  0
  8  9  1  0  0  0  0
  8 11  1  0  0  0  0
  8 13  1  0  0  0  0
  9 10  2  0  0  0  0
  9 17  1  0  0  0  0
 11 14  1  0  0  0  0
 11 15  1  0  0  0  0
 11 16  1  0  0  0  0
 17 18  1  0  0  0  0
 17 26  1  0  0  0  0
 18 19  1  0  0  0  0
 18 21  1  0  0  0  0
 18 27  1  0  0  0  0
 19 20  2  0  0  0  0
 19 32  1  0  0  0  0
 21 22  1  0  0  0  0
 21 28  1  0  0  0  0
 21 29  1  0  0  0  0
 22 23  1  0  0  0  0
 22 30  1  0  0  0  0
 22 31  1  0  0  0  0
 23 24  1  0  0  0  0
 23 25  2  0  0  0  0
 32 33  1  0  0  0  0
 32 37  1  0  0  0  0
 33 34  1  0  0  0  0
 33 36  1  0  0  0  0
 33 38  1  0  0  0  0
 34 35  2  0  0  0  0
 34 42  1  0  0  0  0
 36 39  1  0  0  0  0
 36 40  1  0  0  0  0
 36 41  1  0  0  0  0
 42 43  1  0  0  0  0
 42 44  1  0  0  0  0
 43 45  1  0  0  0  0
 43 46  1  0  0  0  0
 43 47  1  0  0  0  0
M  CHG  1  24  -1
M  END
$$$$

  -OEChem-05262216243D

 47 46  0     1  0  0  0  0  0999 V2000
    0.3333   -5.8100    1.4953 C   0  0  0  0  0  0  0  0  0  0  0  0
    1.3791   -5.8588    2.1249 O   0  0  0  0  0  0  0  0  0  0  0  0
   -0.6942   -6.9171    1.6421 C   0  0  0  0  0  0  0  0  0  0  0  0
   -0.8587   -7.4034    0.6774 H   0  0  0  0  0  0  0  0  0  0  0  0
   -0.3453   -7.6640    2.3606 H   0  0  0  0  0  0  0  0  0  0  0  0
   -1.6400   -6.5010    1.9981 H   0  0  0  0  0  0  0  0  0  0  0  0
    0.0798   -4.7593    0.6412 N   0  0  0  0  0  0  0  0  0  0  0  0
    0.8930   -3.5414    0.5417 C   0  0  2  0  0  0  0  0  0  0  0  0
    0.0541   -2.3644   -0.0018 C   0  0  0  0  0  0  0  0  0  0  0  0
   -1.0495   -2.5880   -0.4918 O   0  0  0  0  0  0  0  0  0  0  0  0
    2.0861   -3.8133   -0.3823 C   0  0  0  0  0  0  0  0  0  0  0  0
   -0.8498   -4.7064    0.2238 H   0  0  0  0  0  0  0  0  0  0  0  0
    1.2545   -3.2605    1.5368 H   0  0  0  0  0  0  0  0  0  0  0  0
    1.7363   -4.0917   -1.3816 H   0  0  0  0  0  0  0  0  0  0  0  0
    2.7161   -2.9230   -0.4697 H   0  0  0  0  0  0  0  0  0  0  0  0
    2.6986   -4.6297    0.0129 H   0  0  0  0  0  0  0  0  0  0  0  0
    0.5560   -1.0772    0.0498 N   0  0  0  0  0  0  0  0  0  0  0  0
   -0.1504    0.1191   -0.4383 C   0  0  2  0  0  0  0  0  0  0  0  0
    0.6633    0.8194   -1.5532 C   0  0  0  0  0  0  0  0  0  0  0  0
    0.9823    0.1966   -2.5603 O   0  0  0  0  0  0  0  0  0  0  0  0
   -0.4191    1.0566    0.7550 C   0  0  0  0  0  0  0  0  0  0  0  0
   -1.4215    0.4596    1.7620 C   0  0  0  0  0  0  0  0  0  0  0  0
   -1.6790    1.3736    2.9662 C   0  0  0  0  0  0  0  0  0  0  0  0
   -2.3514    0.8908    3.9094 O   0  5  0  0  0  0  0  0  0  0  0  0
   -1.2045    2.5386    2.9507 O   0  0  0  0  0  0  0  0  0  0  0  0
    1.4633   -0.9528    0.4863 H   0  0  0  0  0  0  0  0  0  0  0  0
   -1.1151   -0.1504   -0.8804 H   0  0  0  0  0  0  0  0  0  0  0  0
   -0.8371    2.0004    0.3879 H   0  0  0  0  0  0  0  0  0  0  0  0
    0.5210    1.2845    1.2697 H   0  0  0  0  0  0  0  0  0  0  0  0
   -2.3734    0.2669    1.2585 H   0  0  0  0  0  0  0  0  0  0  0  0
   -1.0428   -0.4950    2.1373 H   0  0  0  0  0  0  0  0  0  0  0  0
    1.1070    2.1261   -1.4361 N   0  0  0  0  0  0  0  0  0  0  0  0
    1.9417    2.8201   -2.4272 C   0  0  2  0  0  0  0  0  0  0  0  0
    3.0045    3.7335   -1.7814 C   0  0  0  0  0  0  0  0  0  0  0  0
    2.9362    4.0402   -0.5978 O   0  0  0  0  0  0  0  0  0  0  0  0
    1.0118    3.6309   -3.3342 C   0  0  0  0  0  0  0  0  0  0  0  0
    0.9550    2.5921   -0.5401 H   0  0  0  0  0  0  0  0  0  0  0  0
    2.4841    2.0889   -3.0351 H   0  0  0  0  0  0  0  0  0  0  0  0
    0.4682    4.3818   -2.7516 H   0  0  0  0  0  0  0  0  0  0  0  0
    1.5834    4.1407   -4.1150 H   0  0  0  0  0  0  0  0  0  0  0  0
    0.2840    2.9701   -3.8158 H   0  0  0  0  0  0  0  0  0  0  0  0
    4.0561    4.2166   -2.5403 N   0  0  0  0  0  0  0  0  0  0  0  0
    5.1003    5.0789   -2.0023 C   0  0  0  0  0  0  0  0  0  0  0  0
    4.1037    3.9293   -3.5130 H   0  0  0  0  0  0  0  0  0  0  0  0
    4.6654    5.9972   -1.5936 H   0  0  0  0  0  0  0  0  0  0  0  0
    5.6495    4.5643   -1.2068 H   0  0  0  0  0  0  0  0  0  0  0  0
    5.8077    5.3534   -2.7905 H   0  0  0  0  0  0  0  0  0  0  0  0
  1  2  2  0  0  0  0
  1  3  1  0  0  0  0
  1  7  1  0  0  0  0
  3  4  1  0  0  0  0
  3  5  1  0  0  0  0
  3  6  1  0  0  0  0
  7  8  1  0  0  0  0
  7 12  1  0  0  0  0
  8  9  1  0  0  0  0
  8 11  1  0  0  0  0
  8 13  1  0  0  0  0
  9 10  2  0  0  0  0
  9 17  1  0  0  0  0
 11 14  1  0  0  0  0
 11 15  1  0  0  0  0
 11 16  1  0  0  0  0
 17 18  1  0  0  0  0
 17 26  1  0  0  0  0
 18 19  1  0  0  0  0
 18 21  1  0  0  0  0
 18 27  1  0  0  0  0
 19 20  2  0  0  0  0
 19 32  1  0  0  0  0
 21 22  1  0  0  0  0
 21 28  1  0  0  0  0
 21 29  1  0  0  0  0
 22 23  1  0  0  0  0
 22 30  1  0  0  0  0
 22 31  1  0  0  0  0
 23 24  1  0  0  0  0
 23 25  2  0  0  0  0
 32 33  1  0  0  0  0
 32 37  1  0  0  0  0
 33 34  1  0  0  0  0
 33 36  1  0  0  0  0
 33 38  1  0  0  0  0
 34 35  2  0  0  0  0
 34 42  1  0  0  0  0
 36 39  1  0  0  0  0
 36 40  1  0  0  0  0
 36 41  1  0  0  0  0
 42 43  1  0  0  0  0
 42 44  1  0  0  0  0
 43 45  1  0  0  0  0
 43 46  1  0  0  0  0
 43 47  1  0  0  0  0
M  CHG  1  24  -1
M  END
$$$$

  -OEChem-05262216243D

 47 46  0     1  0  0  0  0  0999 V2000
    1.0479   -5.3788    1.3846 C   0  0  0  0  0  0  0  0  0  0  0  0
    1.9530   -5.2281    2.1912 O   0  0  0  0  0  0  0  0  0  0  0  0
    0.2317   -6.6582    1.3891 C   0  0  0  0  0  0  0  0  0  0  0  0
    0.2879   -7.1410    0.4103 H   0  0  0  0  0  0  0  0  0  0  0  0
    0.6141   -7.3487    2.1460 H   0  0  0  0  0  0  0  0  0  0  0  0
   -0.8130   -6.4306    1.6156 H   0  0  0  0  0  0  0  0  0  0  0  0
    0.7593   -4.3921    0.4673 N   0  0  0  0  0  0  0  0  0  0  0  0
    1.3308   -3.0403    0.4844 C   0  0  2  0  0  0  0  0  0  0  0  0
    0.3936   -2.0371   -0.2208 C   0  0  0  0  0  0  0  0  0  0  0  0
   -0.5231   -2.4552   -0.9216 O   0  0  0  0  0  0  0  0  0  0  0  0
    2.6981   -3.0637   -0.2090 C   0  0  0  0  0  0  0  0  0  0  0  0
   -0.0727   -4.5170   -0.1102 H   0  0  0  0  0  0  0  0  0  0  0  0
    1.4521   -2.7089    1.5213 H   0  0  0  0  0  0  0  0  0  0  0  0
    2.5919   -3.3833   -1.2507 H   0  0  0  0  0  0  0  0  0  0  0  0
    3.1528   -2.0686   -0.1947 H   0  0  0  0  0  0  0  0  0  0  0  0
    3.3736   -3.7570    0.3016 H   0  0  0  0  0  0  0  0  0  0  0  0
    0.6098   -0.6792   -0.0803 N   0  0  0  0  0  0  0  0  0  0  0  0
   -0.2252    0.3707   -0.6870 C   0  0  2  0  0  0  0  0  0  0  0  0
    0.6221    1.2500   -1.6345 C   0  0  0  0  0  0  0  0  0  0  0  0
    1.1142    0.7682   -2.6492 O   0  0  0  0  0  0  0  0  0  0  0  0
   -0.8460    1.2144    0.4403 C   0  0  0  0  0  0  0  0  0  0  0  0
   -1.8622    0.4353    1.2942 C   0  0  0  0  0  0  0  0  0  0  0  0
   -2.4499    1.2876    2.4259 C   0  0  0  0  0  0  0  0  0  0  0  0
   -3.2807    0.7316    3.1826 O   0  5  0  0  0  0  0  0  0  0  0  0
   -2.0619    2.4795    2.5429 O   0  0  0  0  0  0  0  0  0  0  0  0
    1.3452   -0.3964    0.5595 H   0  0  0  0  0  0  0  0  0  0  0  0
   -1.0355   -0.0617   -1.2839 H   0  0  0  0  0  0  0  0  0  0  0  0
   -1.3647    2.0746    0.0020 H   0  0  0  0  0  0  0  0  0  0  0  0
   -0.0535    1.5962    1.0936 H   0  0  0  0  0  0  0  0  0  0  0  0
   -2.6787    0.0817    0.6579 H   0  0  0  0  0  0  0  0  0  0  0  0
   -1.3817   -0.4400    1.7395 H   0  0  0  0  0  0  0  0  0  0  0  0
    1.0187    2.5283   -1.2760 N   0  0  0  0  0  0  0  0  0  0  0  0
    1.9518    3.3644   -2.0479 C   0  0  2  0  0  0  0  0  0  0  0  0
    3.4322    2.9475   -1.8502 C   0  0  0  0  0  0  0  0  0  0  0  0
    4.2936    3.7495   -1.5054 O   0  0  0  0  0  0  0  0  0  0  0  0
    1.6832    4.8212   -1.6521 C   0  0  0  0  0  0  0  0  0  0  0  0
    0.6577    2.8904   -0.3951 H   0  0  0  0  0  0  0  0  0  0  0  0
    1.7294    3.2620   -3.1153 H   0  0  0  0  0  0  0  0  0  0  0  0
    1.9043    4.9789   -0.5916 H   0  0  0  0  0  0  0  0  0  0  0  0
    2.3103    5.4972   -2.2414 H   0  0  0  0  0  0  0  0  0  0  0  0
    0.6351    5.0782   -1.8333 H   0  0  0  0  0  0  0  0  0  0  0  0
    3.7983    1.6352   -2.0790 N   0  0  0  0  0  0  0  0  0  0  0  0
    5.1476    1.1154   -1.9163 C   0  0  0  0  0  0  0  0  0  0  0  0
    3.0505    1.0119   -2.3979 H   0  0  0  0  0  0  0  0  0  0  0  0
    5.8378    1.6224   -2.5981 H   0  0  0  0  0  0  0  0  0  0  0  0
    5.4923    1.2633   -0.8877 H   0  0  0  0  0  0  0  0  0  0  0  0
    5.1661    0.0439   -2.1370 H   0  0  0  0  0  0  0  0  0  0  0  0
  1  2  2  0  0  0  0
  1  3  1  0  0  0  0
  1  7  1  0  0  0  0
  3  4  1  0  0  0  0
  3  5  1  0  0  0  0
  3  6  1  0  0  0  0
  7  8  1  0  0  0  0
  7 12  1  0  0  0  0
  8  9  1  0  0  0  0
  8 11  1  0  0  0  0
  8 13  1  0  0  0  0
  9 10  2  0  0  0  0
  9 17  1  0  0  0  0
 11 14  1  0  0  0  0
 11 15  1  0  0  0  0
 11 16  1  0  0  0  0
 17 18  1  0  0  0  0
 17 26  1  0  0  0  0
 18 19  1  0  0  0  0
 18 21  1  0  0  0  0
 18 27  1  0  0  0  0
 19 20  2  0  0  0  0
 19 32  1  0  0  0  0
 21 22  1  0  0  0  0
 21 28  1  0  0  0  0
 21 29  1  0  0  0  0
 22 23  1  0  0  0  0
 22 30  1  0  0  0  0
 22 31  1  0  0  0  0
 23 24  1  0  0  0  0
 23 25  2  0  0  0  0
 32 33  1  0  0  0  0
 32 37  1  0  0  0  0
 33 34  1  0  0  0  0
 33 36  1  0  0  0  0
 33 38  1  0  0  0  0
 34 35  2  0  0  0  0
 34 42  1  0  0  0  0
 36 39  1  0  0  0  0
 36 40  1  0  0  0  0
 36 41  1  0  0  0  0
 42 43  1  0  0  0  0
 42 44  1  0  0  0  0
 43 45  1  0  0  0  0
 43 46  1  0  0  0  0
 43 47  1  0  0  0  0
M  CHG  1  24  -1
M  END
$$$$

  -OEChem-05262216243D

 47 46  0     1  0  0  0  0  0999 V2000
    0.2296   -5.7349    1.5970 C   0  0  0  0  0  0  0  0  0  0  0  0
    1.1731   -5.7394    2.3727 O   0  0  0  0  0  0  0  0  0  0  0  0
   -0.8144   -6.8345    1.6650 C   0  0  0  0  0  0  0  0  0  0  0  0
   -0.8152   -7.4064    0.7338 H   0  0  0  0  0  0  0  0  0  0  0  0
   -0.5972   -7.5112    2.4962 H   0  0  0  0  0  0  0  0  0  0  0  0
   -1.8045   -6.3971    1.8166 H   0  0  0  0  0  0  0  0  0  0  0  0
    0.1043   -4.7386    0.6537 N   0  0  0  0  0  0  0  0  0  0  0  0
    0.9201   -3.5190    0.6061 C   0  0  2  0  0  0  0  0  0  0  0  0
    0.1600   -2.3839   -0.1135 C   0  0  0  0  0  0  0  0  0  0  0  0
   -0.8553   -2.6510   -0.7499 O   0  0  0  0  0  0  0  0  0  0  0  0
    2.2346   -3.8232   -0.1208 C   0  0  0  0  0  0  0  0  0  0  0  0
   -0.7570   -4.7158    0.1068 H   0  0  0  0  0  0  0  0  0  0  0  0
    1.1357   -3.1814    1.6259 H   0  0  0  0  0  0  0  0  0  0  0  0
    2.0365   -4.1524   -1.1459 H   0  0  0  0  0  0  0  0  0  0  0  0
    2.8676   -2.9315   -0.1566 H   0  0  0  0  0  0  0  0  0  0  0  0
    2.7842   -4.6136    0.3996 H   0  0  0  0  0  0  0  0  0  0  0  0
    0.6226   -1.0832   -0.0368 N   0  0  0  0  0  0  0  0  0  0  0  0
   -0.1063    0.0898   -0.5483 C   0  0  2  0  0  0  0  0  0  0  0  0
    0.7125    0.8277   -1.6297 C   0  0  0  0  0  0  0  0  0  0  0  0
    0.6330    0.4942   -2.8057 O   0  0  0  0  0  0  0  0  0  0  0  0
   -0.4214    1.0180    0.6391 C   0  0  0  0  0  0  0  0  0  0  0  0
   -1.4226    0.3948    1.6223 C   0  0  0  0  0  0  0  0  0  0  0  0
   -1.6667    1.3566    2.7817 C   0  0  0  0  0  0  0  0  0  0  0  0
   -0.8027    1.3790    3.6931 O   0  5  0  0  0  0  0  0  0  0  0  0
   -2.6608    2.1196    2.7151 O   0  0  0  0  0  0  0  0  0  0  0  0
    1.3970   -0.9170    0.5992 H   0  0  0  0  0  0  0  0  0  0  0  0
   -1.0537   -0.2064   -1.0123 H   0  0  0  0  0  0  0  0  0  0  0  0
   -0.8475    1.9553    0.2636 H   0  0  0  0  0  0  0  0  0  0  0  0
    0.4998    1.2630    1.1790 H   0  0  0  0  0  0  0  0  0  0  0  0
   -2.3674    0.1821    1.1128 H   0  0  0  0  0  0  0  0  0  0  0  0
   -1.0373   -0.5481    2.0199 H   0  0  0  0  0  0  0  0  0  0  0  0
    1.5892    1.8435   -1.2890 N   0  0  0  0  0  0  0  0  0  0  0  0
    2.5182    2.5009   -2.2181 C   0  0  2  0  0  0  0  0  0  0  0  0
    3.9738    2.5000   -1.7044 C   0  0  0  0  0  0  0  0  0  0  0  0
    4.2264    2.2723   -0.5266 O   0  0  0  0  0  0  0  0  0  0  0  0
    2.0215    3.9330   -2.4264 C   0  0  0  0  0  0  0  0  0  0  0  0
    1.7388    2.0000   -0.2935 H   0  0  0  0  0  0  0  0  0  0  0  0
    2.5210    1.9847   -3.1832 H   0  0  0  0  0  0  0  0  0  0  0  0
    2.0311    4.4831   -1.4799 H   0  0  0  0  0  0  0  0  0  0  0  0
    2.6575    4.4598   -3.1437 H   0  0  0  0  0  0  0  0  0  0  0  0
    0.9976    3.9238   -2.8134 H   0  0  0  0  0  0  0  0  0  0  0  0
    5.0128    2.7789   -2.5748 N   0  0  0  0  0  0  0  0  0  0  0  0
    6.4123    2.8114   -2.1710 C   0  0  0  0  0  0  0  0  0  0  0  0
    4.7761    2.9394   -3.5492 H   0  0  0  0  0  0  0  0  0  0  0  0
    6.5712    3.5722   -1.3997 H   0  0  0  0  0  0  0  0  0  0  0  0
    6.7186    1.8374   -1.7757 H   0  0  0  0  0  0  0  0  0  0  0  0
    7.0470    3.0522   -3.0290 H   0  0  0  0  0  0  0  0  0  0  0  0
  1  2  2  0  0  0  0
  1  3  1  0  0  0  0
  1  7  1  0  0  0  0
  3  4  1  0  0  0  0
  3  5  1  0  0  0  0
  3  6  1  0  0  0  0
  7  8  1  0  0  0  0
  7 12  1  0  0  0  0
  8  9  1  0  0  0  0
  8 11  1  0  0  0  0
  8 13  1  0  0  0  0
  9 10  2  0  0  0  0
  9 17  1  0  0  0  0
 11 14  1  0  0  0  0
 11 15  1  0  0  0  0
 11 16  1  0  0  0  0
 17 18  1  0  0  0  0
 17 26  1  0  0  0  0
 18 19  1  0  0  0  0
 18 21  1  0  0  0  0
 18 27  1  0  0  0  0
 19 20  2  0  0  0  0
 19 32  1  0  0  0  0
 21 22  1  0  0  0  0
 21 28  1  0  0  0  0
 21 29  1  0  0  0  0
 22 23  1  0  0  0  0
 22 30  1  0  0  0  0
 22 31  1  0  0  0  0
 23 24  1  0  0  0  0
 23 25  2  0  0  0  0
 32 33  1  0  0  0  0
 32 37  1  0  0  0  0
 33 34  1  0  0  0  0
 33 36  1  0  0  0  0
 33 38  1  0  0  0  0
 34 35  2  0  0  0  0
 34 42  1  0  0  0  0
 36 39  1  0  0  0  0
 36 40  1  0  0  0  0
 36 41  1  0  0  0  0
 42 43  1  0  0  0  0
 42 44  1  0  0  0  0
 43 45  1  0  0  0  0
 43 46  1  0  0  0  0
 43 47  1  0  0  0  0
M  CHG  1  24  -1
M  END
$$$$

  -OEChem-05262216243D

 47 46  0     1  0  0  0  0  0999 V2000
    0.7953   -5.5389    1.2388 C   0  0  0  0  0  0  0  0  0  0  0  0
    1.4066   -5.4523    2.2926 O   0  0  0  0  0  0  0  0  0  0  0  0
    0.0981   -6.8352    0.8694 C   0  0  0  0  0  0  0  0  0  0  0  0
    0.4889   -7.2113   -0.0792 H   0  0  0  0  0  0  0  0  0  0  0  0
    0.2654   -7.5887    1.6439 H   0  0  0  0  0  0  0  0  0  0  0  0
   -0.9767   -6.6639    0.7701 H   0  0  0  0  0  0  0  0  0  0  0  0
    0.7375   -4.4683    0.3736 N   0  0  0  0  0  0  0  0  0  0  0  0
    1.2119   -3.1126    0.6780 C   0  0  2  0  0  0  0  0  0  0  0  0
    0.4912   -2.0705   -0.2061 C   0  0  0  0  0  0  0  0  0  0  0  0
   -0.2772   -2.4513   -1.0839 O   0  0  0  0  0  0  0  0  0  0  0  0
    2.7283   -3.0524    0.4521 C   0  0  0  0  0  0  0  0  0  0  0  0
    0.1121   -4.5490   -0.4287 H   0  0  0  0  0  0  0  0  0  0  0  0
    0.9886   -2.8722    1.7233 H   0  0  0  0  0  0  0  0  0  0  0  0
    2.9676   -3.2796   -0.5915 H   0  0  0  0  0  0  0  0  0  0  0  0
    3.1158   -2.0571    0.6897 H   0  0  0  0  0  0  0  0  0  0  0  0
    3.2387   -3.7782    1.0927 H   0  0  0  0  0  0  0  0  0  0  0  0
    0.7525   -0.7228   -0.0432 N   0  0  0  0  0  0  0  0  0  0  0  0
   -0.0057    0.3523   -0.7058 C   0  0  2  0  0  0  0  0  0  0  0  0
    0.9337    1.1939   -1.5922 C   0  0  0  0  0  0  0  0  0  0  0  0
    1.0691    0.9325   -2.7818 O   0  0  0  0  0  0  0  0  0  0  0  0
   -0.6310    1.2324    0.3892 C   0  0  0  0  0  0  0  0  0  0  0  0
   -1.7098    0.4972    1.1981 C   0  0  0  0  0  0  0  0  0  0  0  0
   -2.2617    1.4252    2.2780 C   0  0  0  0  0  0  0  0  0  0  0  0
   -1.4604    1.7782    3.1797 O   0  5  0  0  0  0  0  0  0  0  0  0
   -3.4466    1.8223    2.1740 O   0  0  0  0  0  0  0  0  0  0  0  0
    1.2874   -0.4761    0.7841 H   0  0  0  0  0  0  0  0  0  0  0  0
   -0.8049   -0.0453   -1.3415 H   0  0  0  0  0  0  0  0  0  0  0  0
   -1.0880    2.1146   -0.0735 H   0  0  0  0  0  0  0  0  0  0  0  0
    0.1464    1.5836    1.0760 H   0  0  0  0  0  0  0  0  0  0  0  0
   -2.5184    0.1723    0.5360 H   0  0  0  0  0  0  0  0  0  0  0  0
   -1.2916   -0.3906    1.6798 H   0  0  0  0  0  0  0  0  0  0  0  0
    1.8147    2.0997   -1.0255 N   0  0  0  0  0  0  0  0  0  0  0  0
    2.9307    2.7332   -1.7450 C   0  0  2  0  0  0  0  0  0  0  0  0
    4.1350    1.7724   -1.9221 C   0  0  0  0  0  0  0  0  0  0  0  0
    5.2625    2.0667   -1.5392 O   0  0  0  0  0  0  0  0  0  0  0  0
    3.2900    4.0151   -0.9844 C   0  0  0  0  0  0  0  0  0  0  0  0
    1.7381    2.2472   -0.0226 H   0  0  0  0  0  0  0  0  0  0  0  0
    2.5994    3.0227   -2.7477 H   0  0  0  0  0  0  0  0  0  0  0  0
    3.6372    3.7790    0.0264 H   0  0  0  0  0  0  0  0  0  0  0  0
    4.0846    4.5568   -1.5068 H   0  0  0  0  0  0  0  0  0  0  0  0
    2.4172    4.6711   -0.9107 H   0  0  0  0  0  0  0  0  0  0  0  0
    3.9316    0.5395   -2.5118 N   0  0  0  0  0  0  0  0  0  0  0  0
    4.9600   -0.4770   -2.6759 C   0  0  0  0  0  0  0  0  0  0  0  0
    2.9731    0.3395   -2.8134 H   0  0  0  0  0  0  0  0  0  0  0  0
    5.7827   -0.0946   -3.2885 H   0  0  0  0  0  0  0  0  0  0  0  0
    5.3552   -0.7819   -1.7015 H   0  0  0  0  0  0  0  0  0  0  0  0
    4.5405   -1.3584   -3.1704 H   0  0  0  0  0  0  0  0  0  0  0  0
  1  2  2  0  0  0  0
  1  3  1  0  0  0  0
  1  7  1  0  0  0  0
  3  4  1  0  0  0  0
  3  5  1  0  0  0  0
  3  6  1  0  0  0  0
  7  8  1  0  0  0  0
  7 12  1  0  0  0  0
  8  9  1  0  0  0  0
  8 11  1  0  0  0  0
  8 13  1  0  0  0  0
  9 10  2  0  0  0  0
  9 17  1  0  0  0  0
 11 14  1  0  0  0  0
 11 15  1  0  0  0  0
 11 16  1  0  0  0  0
 17 18  1  0  0  0  0
 17 26  1  0  0  0  0
 18 19  1  0  0  0  0
 18 21  1  0  0  0  0
 18 27  1  0  0  0  0
 19 20  2  0  0  0  0
 19 32  1  0  0  0  0
 21 22  1  0  0  0  0
 21 28  1  0  0  0  0
 21 29  1  0  0  0  0
 22 23  1  0  0  0  0
 22 30  1  0  0  0  0
 22 31  1  0  0  0  0
 23 24  1  0  0  0  0
 23 25  2  0  0  0  0
 32 33  1  0  0  0  0
 32 37  1  0  0  0  0
 33 34  1  0  0  0  0
 33 36  1  0  0  0  0
 33 38  1  0  0  0  0
 34 35  2  0  0  0  0
 34 42  1  0  0  0  0
 36 39  1  0  0  0  0
 36 40  1  0  0  0  0
 36 41  1  0  0  0  0
 42 43  1  0  0  0  0
 42 44  1  0  0  0  0
 43 45  1  0  0  0  0
 43 46  1  0  0  0  0
 43 47  1  0  0  0  0
M  CHG  1  24  -1
M  END
$$$$

  -OEChem-05262216243D

 47 46  0     1  0  0  0  0  0999 V2000
    0.0406   -5.7521    1.6630 C   0  0  0  0  0  0  0  0  0  0  0  0
    0.9676   -5.7776    2.4578 O   0  0  0  0  0  0  0  0  0  0  0  0
   -1.0524   -6.8022    1.7389 C   0  0  0  0  0  0  0  0  0  0  0  0
   -1.1370   -7.3227    0.7818 H   0  0  0  0  0  0  0  0  0  0  0  0
   -0.8210   -7.5326    2.5193 H   0  0  0  0  0  0  0  0  0  0  0  0
   -2.0086   -6.3273    1.9729 H   0  0  0  0  0  0  0  0  0  0  0  0
   -0.0213   -4.7767    0.6921 N   0  0  0  0  0  0  0  0  0  0  0  0
    0.8508   -3.5977    0.6309 C   0  0  2  0  0  0  0  0  0  0  0  0
    0.1625   -2.4501   -0.1392 C   0  0  0  0  0  0  0  0  0  0  0  0
   -0.8236   -2.6944   -0.8278 O   0  0  0  0  0  0  0  0  0  0  0  0
    2.1680   -3.9822   -0.0533 C   0  0  0  0  0  0  0  0  0  0  0  0
   -0.8648   -4.7359    0.1195 H   0  0  0  0  0  0  0  0  0  0  0  0
    1.0572   -3.2424    1.6464 H   0  0  0  0  0  0  0  0  0  0  0  0
    1.9799   -4.3338   -1.0728 H   0  0  0  0  0  0  0  0  0  0  0  0
    2.8420   -3.1213   -0.1000 H   0  0  0  0  0  0  0  0  0  0  0  0
    2.6696   -4.7801    0.5033 H   0  0  0  0  0  0  0  0  0  0  0  0
    0.6690   -1.1659   -0.0657 N   0  0  0  0  0  0  0  0  0  0  0  0
   -0.0308    0.0271   -0.5761 C   0  0  2  0  0  0  0  0  0  0  0  0
    0.7999    0.7356   -1.6638 C   0  0  0  0  0  0  0  0  0  0  0  0
    0.3685    0.8763   -2.8016 O   0  0  0  0  0  0  0  0  0  0  0  0
   -0.2602    0.9881    0.6026 C   0  0  0  0  0  0  0  0  0  0  0  0
   -1.2480    0.4232    1.6360 C   0  0  0  0  0  0  0  0  0  0  0  0
   -1.4170    1.4056    2.7934 C   0  0  0  0  0  0  0  0  0  0  0  0
   -0.4160    1.5881    3.5311 O   0  5  0  0  0  0  0  0  0  0  0  0
   -2.5191    1.9918    2.9202 O   0  0  0  0  0  0  0  0  0  0  0  0
    1.3859   -1.0183    0.6388 H   0  0  0  0  0  0  0  0  0  0  0  0
   -1.0012   -0.2341   -1.0127 H   0  0  0  0  0  0  0  0  0  0  0  0
   -0.6607    1.9351    0.2234 H   0  0  0  0  0  0  0  0  0  0  0  0
    0.6922    1.2088    1.0969 H   0  0  0  0  0  0  0  0  0  0  0  0
   -2.2170    0.2393    1.1620 H   0  0  0  0  0  0  0  0  0  0  0  0
   -0.8839   -0.5272    2.0354 H   0  0  0  0  0  0  0  0  0  0  0  0
    2.0607    1.2191   -1.3641 N   0  0  0  0  0  0  0  0  0  0  0  0
    3.0061    1.7597   -2.3471 C   0  0  2  0  0  0  0  0  0  0  0  0
    4.4419    1.2426   -2.1160 C   0  0  0  0  0  0  0  0  0  0  0  0
    4.7400    0.6596   -1.0785 O   0  0  0  0  0  0  0  0  0  0  0  0
    2.9569    3.2866   -2.2520 C   0  0  0  0  0  0  0  0  0  0  0  0
    2.4324    0.9854   -0.4458 H   0  0  0  0  0  0  0  0  0  0  0  0
    2.7137    1.4538   -3.3569 H   0  0  0  0  0  0  0  0  0  0  0  0
    3.2661    3.6180   -1.2554 H   0  0  0  0  0  0  0  0  0  0  0  0
    3.6209    3.7406   -2.9933 H   0  0  0  0  0  0  0  0  0  0  0  0
    1.9383    3.6426   -2.4366 H   0  0  0  0  0  0  0  0  0  0  0  0
    5.4115    1.4341   -3.0843 N   0  0  0  0  0  0  0  0  0  0  0  0
    6.7885    0.9791   -2.9430 C   0  0  0  0  0  0  0  0  0  0  0  0
    5.1309    1.9025   -3.9407 H   0  0  0  0  0  0  0  0  0  0  0  0
    7.2612    1.4533   -2.0766 H   0  0  0  0  0  0  0  0  0  0  0  0
    6.8215   -0.1075   -2.8123 H   0  0  0  0  0  0  0  0  0  0  0  0
    7.3649    1.2376   -3.8362 H   0  0  0  0  0  0  0  0  0  0  0  0
  1  2  2  0  0  0  0
  1  3  1  0  0  0  0
  1  7  1  0  0  0  0
  3  4  1  0  0  0  0
  3  5  1  0  0  0  0
  3  6  1  0  0  0  0
  7  8  1  0  0  0  0
  7 12  1  0  0  0  0
  8  9  1  0  0  0  0
  8 11  1  0  0  0  0
  8 13  1  0  0  0  0
  9 10  2  0  0  0  0
  9 17  1  0  0  0  0
 11 14  1  0  0  0  0
 11 15  1  0  0  0  0
 11 16  1  0  0  0  0
 17 18  1  0  0  0  0
 17 26  1  0  0  0  0
 18 19  1  0  0  0  0
 18 21  1  0  0  0  0
 18 27  1  0  0  0  0
 19 20  2  0  0  0  0
 19 32  1  0  0  0  0
 21 22  1  0  0  0  0
 21 28  1  0  0  0  0
 21 29  1  0  0  0  0
 22 23  1  0  0  0  0
 22 30  1  0  0  0  0
 22 31  1  0  0  0  0
 23 24  1  0  0  0  0
 23 25  2  0  0  0  0
 32 33  1  0  0  0  0
 32 37  1  0  0  0  0
 33 34  1  0  0  0  0
 33 36  1  0  0  0  0
 33 38  1  0  0  0  0
 34 35  2  0  0  0  0
 34 42  1  0  0  0  0
 36 39  1  0  0  0  0
 36 40  1  0  0  0  0
 36 41  1  0  0  0  0
 42 43  1  0  0  0  0
 42 44  1  0  0  0  0
 43 45  1  0  0  0  0
 43 46  1  0  0  0  0
 43 47  1  0  0  0  0
M  CHG  1  24  -1
M  END
$$$$

  -OEChem-05262216243D

 47 46  0     1  0  0  0  0  0999 V2000
   -0.0532   -5.7649    1.7054 C   0  0  0  0  0  0  0  0  0  0  0  0
    0.8250   -5.7777    2.5539 O   0  0  0  0  0  0  0  0  0  0  0  0
   -1.1423   -6.8219    1.7251 C   0  0  0  0  0  0  0  0  0  0  0  0
   -1.1927   -7.3243    0.7562 H   0  0  0  0  0  0  0  0  0  0  0  0
   -0.9326   -7.5670    2.4976 H   0  0  0  0  0  0  0  0  0  0  0  0
   -2.1080   -6.3556    1.9364 H   0  0  0  0  0  0  0  0  0  0  0  0
   -0.0644   -4.7971    0.7245 N   0  0  0  0  0  0  0  0  0  0  0  0
    0.8108   -3.6184    0.6954 C   0  0  2  0  0  0  0  0  0  0  0  0
    0.1704   -2.4782   -0.1255 C   0  0  0  0  0  0  0  0  0  0  0  0
   -0.7797   -2.7254   -0.8619 O   0  0  0  0  0  0  0  0  0  0  0  0
    2.1612   -4.0113    0.0853 C   0  0  0  0  0  0  0  0  0  0  0  0
   -0.8707   -4.7699    0.1003 H   0  0  0  0  0  0  0  0  0  0  0  0
    0.9628   -3.2509    1.7162 H   0  0  0  0  0  0  0  0  0  0  0  0
    2.0247   -4.3816   -0.9357 H   0  0  0  0  0  0  0  0  0  0  0  0
    2.8356   -3.1501    0.0557 H   0  0  0  0  0  0  0  0  0  0  0  0
    2.6356   -4.7971    0.6807 H   0  0  0  0  0  0  0  0  0  0  0  0
    0.6943   -1.2002   -0.0618 N   0  0  0  0  0  0  0  0  0  0  0  0
    0.0009   -0.0084   -0.5862 C   0  0  2  0  0  0  0  0  0  0  0  0
    0.8307    0.6860   -1.6839 C   0  0  0  0  0  0  0  0  0  0  0  0
    0.3078    1.0939   -2.7138 O   0  0  0  0  0  0  0  0  0  0  0  0
   -0.1982    0.9691    0.5830 C   0  0  0  0  0  0  0  0  0  0  0  0
   -1.1775    0.4271    1.6381 C   0  0  0  0  0  0  0  0  0  0  0  0
   -1.3216    1.4205    2.7893 C   0  0  0  0  0  0  0  0  0  0  0  0
   -0.2973    1.6291    3.4872 O   0  5  0  0  0  0  0  0  0  0  0  0
   -2.4335    1.9756    2.9616 O   0  0  0  0  0  0  0  0  0  0  0  0
    1.3477   -1.0458    0.7011 H   0  0  0  0  0  0  0  0  0  0  0  0
   -0.9765   -0.2631   -1.0102 H   0  0  0  0  0  0  0  0  0  0  0  0
   -0.5961    1.9146    0.1972 H   0  0  0  0  0  0  0  0  0  0  0  0
    0.7657    1.1879    1.0557 H   0  0  0  0  0  0  0  0  0  0  0  0
   -2.1549    0.2478    1.1797 H   0  0  0  0  0  0  0  0  0  0  0  0
   -0.8180   -0.5225    2.0432 H   0  0  0  0  0  0  0  0  0  0  0  0
    2.1861    0.8875   -1.4984 N   0  0  0  0  0  0  0  0  0  0  0  0
    3.1048    1.3916   -2.5244 C   0  0  2  0  0  0  0  0  0  0  0  0
    4.4502    0.6350   -2.5098 C   0  0  0  0  0  0  0  0  0  0  0  0
    4.7522   -0.0863   -1.5639 O   0  0  0  0  0  0  0  0  0  0  0  0
    3.3193    2.8859   -2.2711 C   0  0  0  0  0  0  0  0  0  0  0  0
    2.6057    0.4198   -0.6980 H   0  0  0  0  0  0  0  0  0  0  0  0
    2.6670    1.2546   -3.5187 H   0  0  0  0  0  0  0  0  0  0  0  0
    3.7685    3.0460   -1.2856 H   0  0  0  0  0  0  0  0  0  0  0  0
    3.9796    3.3144   -3.0307 H   0  0  0  0  0  0  0  0  0  0  0  0
    2.3618    3.4157   -2.3071 H   0  0  0  0  0  0  0  0  0  0  0  0
    5.3312    0.7615   -3.5691 N   0  0  0  0  0  0  0  0  0  0  0  0
    6.6146    0.0740   -3.6308 C   0  0  0  0  0  0  0  0  0  0  0  0
    5.0458    1.3475   -4.3483 H   0  0  0  0  0  0  0  0  0  0  0  0
    7.2485    0.3708   -2.7887 H   0  0  0  0  0  0  0  0  0  0  0  0
    6.4698   -1.0109   -3.5984 H   0  0  0  0  0  0  0  0  0  0  0  0
    7.1341    0.3261   -4.5601 H   0  0  0  0  0  0  0  0  0  0  0  0
  1  2  2  0  0  0  0
  1  3  1  0  0  0  0
  1  7  1  0  0  0  0
  3  4  1  0  0  0  0
  3  5  1  0  0  0  0
  3  6  1  0  0  0  0
  7  8  1  0  0  0  0
  7 12  1  0  0  0  0
  8  9  1  0  0  0  0
  8 11  1  0  0  0  0
  8 13  1  0  0  0  0
  9 10  2  0  0  0  0
  9 17  1  0  0  0  0
 11 14  1  0  0  0  0
 11 15  1  0  0  0  0
 11 16  1  0  0  0  0
 17 18  1  0  0  0  0
 17 26  1  0  0  0  0
 18 19  1  0  0  0  0
 18 21  1  0  0  0  0
 18 27  1  0  0  0  0
 19 20  2  0  0  0  0
 19 32  1  0  0  0  0
 21 22  1  0  0  0  0
 21 28  1  0  0  0  0
 21 29  1  0  0  0  0
 22 23  1  0  0  0  0
 22 30  1  0  0  0  0
 22 31  1  0  0  0  0
 23 24  1  0  0  0  0
 23 25  2  0  0  0  0
 32 33  1  0  0  0  0
 32 37  1  0  0  0  0
 33 34  1  0  0  0  0
 33 36  1  0  0  0  0
 33 38  1  0  0  0  0
 34 35  2  0  0  0  0
 34 42  1  0  0  0  0
 36 39  1  0  0  0  0
 36 40  1  0  0  0  0
 36 41  1  0  0  0  0
 42 43  1  0  0  0  0
 42 44  1  0  0  0  0
 43 45  1  0  0  0  0
 43 46  1  0  0  0  0
 43 47  1  0  0  0  0
M  CHG  1  24  -1
M  END
$$$$

  -OEChem-05262216243D

 47 46  0     1  0  0  0  0  0999 V2000
   -0.1049   -5.7636    1.7562 C   0  0  0  0  0  0  0  0  0  0  0  0
    0.7635   -5.7708    2.6150 O   0  0  0  0  0  0  0  0  0  0  0  0
   -1.2086   -6.8045    1.7850 C   0  0  0  0  0  0  0  0  0  0  0  0
   -1.2835   -7.2969    0.8124 H   0  0  0  0  0  0  0  0  0  0  0  0
   -0.9966   -7.5591    2.5475 H   0  0  0  0  0  0  0  0  0  0  0  0
   -2.1631   -6.3257    2.0173 H   0  0  0  0  0  0  0  0  0  0  0  0
   -0.0949   -4.8136    0.7583 N   0  0  0  0  0  0  0  0  0  0  0  0
    0.7868   -3.6405    0.7274 C   0  0  2  0  0  0  0  0  0  0  0  0
    0.1642   -2.5070   -0.1152 C   0  0  0  0  0  0  0  0  0  0  0  0
   -0.7768   -2.7540   -0.8635 O   0  0  0  0  0  0  0  0  0  0  0  0
    2.1449   -4.0468    0.1428 C   0  0  0  0  0  0  0  0  0  0  0  0
   -0.8966   -4.7859    0.1280 H   0  0  0  0  0  0  0  0  0  0  0  0
    0.9258   -3.2614    1.7458 H   0  0  0  0  0  0  0  0  0  0  0  0
    2.0227   -4.4268   -0.8764 H   0  0  0  0  0  0  0  0  0  0  0  0
    2.8242   -3.1890    0.1148 H   0  0  0  0  0  0  0  0  0  0  0  0
    2.6055   -4.8295    0.7535 H   0  0  0  0  0  0  0  0  0  0  0  0
    0.7036   -1.2352   -0.0663 N   0  0  0  0  0  0  0  0  0  0  0  0
    0.0173   -0.0428   -0.6001 C   0  0  2  0  0  0  0  0  0  0  0  0
    0.8437    0.6349   -1.7116 C   0  0  0  0  0  0  0  0  0  0  0  0
    0.3046    1.2831   -2.6002 O   0  0  0  0  0  0  0  0  0  0  0  0
   -0.1544    0.9460    0.5633 C   0  0  0  0  0  0  0  0  0  0  0  0
   -1.1266    0.4205    1.6340 C   0  0  0  0  0  0  0  0  0  0  0  0
   -1.2499    1.4188    2.7836 C   0  0  0  0  0  0  0  0  0  0  0  0
   -0.2120    1.6347    3.4591 O   0  5  0  0  0  0  0  0  0  0  0  0
   -2.3638    1.9600    2.9852 O   0  0  0  0  0  0  0  0  0  0  0  0
    1.3328   -1.0752    0.7163 H   0  0  0  0  0  0  0  0  0  0  0  0
   -0.9669   -0.2909   -1.0126 H   0  0  0  0  0  0  0  0  0  0  0  0
   -0.5460    1.8934    0.1759 H   0  0  0  0  0  0  0  0  0  0  0  0
    0.8190    1.1574    1.0198 H   0  0  0  0  0  0  0  0  0  0  0  0
   -2.1105    0.2476    1.1872 H   0  0  0  0  0  0  0  0  0  0  0  0
   -0.7713   -0.5298    2.0410 H   0  0  0  0  0  0  0  0  0  0  0  0
    2.2236    0.5548   -1.6876 N   0  0  0  0  0  0  0  0  0  0  0  0
    3.1064    1.0272   -2.7580 C   0  0  2  0  0  0  0  0  0  0  0  0
    4.3044    0.0772   -2.9677 C   0  0  0  0  0  0  0  0  0  0  0  0
    4.5808   -0.7761   -2.1298 O   0  0  0  0  0  0  0  0  0  0  0  0
    3.5845    2.4341   -2.3894 C   0  0  0  0  0  0  0  0  0  0  0  0
    2.6194   -0.1124   -1.0288 H   0  0  0  0  0  0  0  0  0  0  0  0
    2.5559    1.0696   -3.7037 H   0  0  0  0  0  0  0  0  0  0  0  0
    4.1416    2.4142   -1.4471 H   0  0  0  0  0  0  0  0  0  0  0  0
    4.2336    2.8383   -3.1715 H   0  0  0  0  0  0  0  0  0  0  0  0
    2.7268    3.1043   -2.2719 H   0  0  0  0  0  0  0  0  0  0  0  0
    5.0771    0.1767   -4.1108 N   0  0  0  0  0  0  0  0  0  0  0  0
    6.2150   -0.6903   -4.3886 C   0  0  0  0  0  0  0  0  0  0  0  0
    4.8073    0.8743   -4.7981 H   0  0  0  0  0  0  0  0  0  0  0  0
    6.9766   -0.5844   -3.6089 H   0  0  0  0  0  0  0  0  0  0  0  0
    5.8980   -1.7376   -4.4325 H   0  0  0  0  0  0  0  0  0  0  0  0
    6.6656   -0.4245   -5.3495 H   0  0  0  0  0  0  0  0  0  0  0  0
  1  2  2  0  0  0  0
  1  3  1  0  0  0  0
  1  7  1  0  0  0  0
  3  4  1  0  0  0  0
  3  5  1  0  0  0  0
  3  6  1  0  0  0  0
  7  8  1  0  0  0  0
  7 12  1  0  0  0  0
  8  9  1  0  0  0  0
  8 11  1  0  0  0  0
  8 13  1  0  0  0  0
  9 10  2  0  0  0  0
  9 17  1  0  0  0  0
 11 14  1  0  0  0  0
 11 15  1  0  0  0  0
 11 16  1  0  0  0  0
 17 18  1  0  0  0  0
 17 26  1  0  0  0  0
 18 19  1  0  0  0  0
 18 21  1  0  0  0  0
 18 27  1  0  0  0  0
 19 20  2  0  0  0  0
 19 32  1  0  0  0  0
 21 22  1  0  0  0  0
 21 28  1  0  0  0  0
 21 29  1  0  0  0  0
 22 23  1  0  0  0  0
 22 30  1  0  0  0  0
 22 31  1  0  0  0  0
 23 24  1  0  0  0  0
 23 25  2  0  0  0  0
 32 33  1  0  0  0  0
 32 37  1  0  0  0  0
 33 34  1  0  0  0  0
 33 36  1  0  0  0  0
 33 38  1  0  0  0  0
 34 35  2  0  0  0  0
 34 42  1  0  0  0  0
 36 39  1  0  0  0  0
 36 40  1  0  0  0  0
 36 41  1  0  0  0  0
 42 43  1  0  0  0  0
 42 44  1  0  0  0  0
 43 45  1  0  0  0  0
 43 46  1  0  0  0  0
 43 47  1  0  0  0  0
M  CHG  1  24  -1
M  END
$$$$

  -OEChem-05262216243D

 47 46  0     1  0  0  0  0  0999 V2000
   -0.1466   -5.7547    1.8211 C   0  0  0  0  0  0  0  0  0  0  0  0
    0.7429   -5.7729    2.6577 O   0  0  0  0  0  0  0  0  0  0  0  0
   -1.2618   -6.7823    1.8762 C   0  0  0  0  0  0  0  0  0  0  0  0
   -1.3362   -7.3032    0.9188 H   0  0  0  0  0  0  0  0  0  0  0  0
   -1.0605   -7.5156    2.6618 H   0  0  0  0  0  0  0  0  0  0  0  0
   -2.2131   -6.2879    2.0888 H   0  0  0  0  0  0  0  0  0  0  0  0
   -0.1455   -4.8089    0.8192 N   0  0  0  0  0  0  0  0  0  0  0  0
    0.7689   -3.6633    0.7445 C   0  0  2  0  0  0  0  0  0  0  0  0
    0.1565   -2.5296   -0.1052 C   0  0  0  0  0  0  0  0  0  0  0  0
   -0.7908   -2.7722   -0.8469 O   0  0  0  0  0  0  0  0  0  0  0  0
    2.0986   -4.1207    0.1328 C   0  0  0  0  0  0  0  0  0  0  0  0
   -0.9569   -4.7750    0.2019 H   0  0  0  0  0  0  0  0  0  0  0  0
    0.9447   -3.2705    1.7519 H   0  0  0  0  0  0  0  0  0  0  0  0
    1.9393   -4.5138   -0.8763 H   0  0  0  0  0  0  0  0  0  0  0  0
    2.8026   -3.2851    0.0730 H   0  0  0  0  0  0  0  0  0  0  0  0
    2.5509   -4.9067    0.7453 H   0  0  0  0  0  0  0  0  0  0  0  0
    0.7120   -1.2640   -0.0782 N   0  0  0  0  0  0  0  0  0  0  0  0
    0.0264   -0.0697   -0.6111 C   0  0  2  0  0  0  0  0  0  0  0  0
    0.8361    0.5907   -1.7461 C   0  0  0  0  0  0  0  0  0  0  0  0
    0.3365    1.4354   -2.4791 O   0  0  0  0  0  0  0  0  0  0  0  0
   -0.1159    0.9235    0.5540 C   0  0  0  0  0  0  0  0  0  0  0  0
   -1.0747    0.4066    1.6415 C   0  0  0  0  0  0  0  0  0  0  0  0
   -1.1711    1.4052    2.7931 C   0  0  0  0  0  0  0  0  0  0  0  0
   -0.1224    1.6065    3.4559 O   0  5  0  0  0  0  0  0  0  0  0  0
   -2.2767    1.9560    3.0130 O   0  0  0  0  0  0  0  0  0  0  0  0
    1.3542   -1.0997    0.6933 H   0  0  0  0  0  0  0  0  0  0  0  0
   -0.9673   -0.3113   -1.0034 H   0  0  0  0  0  0  0  0  0  0  0  0
   -0.5069    1.8744    0.1737 H   0  0  0  0  0  0  0  0  0  0  0  0
    0.8673    1.1265    0.9929 H   0  0  0  0  0  0  0  0  0  0  0  0
   -2.0672    0.2429    1.2108 H   0  0  0  0  0  0  0  0  0  0  0  0
   -0.7220   -0.5474    2.0424 H   0  0  0  0  0  0  0  0  0  0  0  0
    2.1628    0.2505   -1.9318 N   0  0  0  0  0  0  0  0  0  0  0  0
    2.9972    0.7041   -3.0480 C   0  0  2  0  0  0  0  0  0  0  0  0
    4.0236   -0.3706   -3.4646 C   0  0  0  0  0  0  0  0  0  0  0  0
    4.2627   -1.3250   -2.7306 O   0  0  0  0  0  0  0  0  0  0  0  0
    3.7062    1.9929   -2.6222 C   0  0  0  0  0  0  0  0  0  0  0  0
    2.4899   -0.5612   -1.4110 H   0  0  0  0  0  0  0  0  0  0  0  0
    2.3666    0.9092   -3.9195 H   0  0  0  0  0  0  0  0  0  0  0  0
    4.3518    1.8067   -1.7580 H   0  0  0  0  0  0  0  0  0  0  0  0
    4.3192    2.3832   -3.4397 H   0  0  0  0  0  0  0  0  0  0  0  0
    2.9703    2.7558   -2.3483 H   0  0  0  0  0  0  0  0  0  0  0  0
    4.6805   -0.2712   -4.6782 N   0  0  0  0  0  0  0  0  0  0  0  0
    5.6383   -1.2606   -5.1550 C   0  0  0  0  0  0  0  0  0  0  0  0
    4.4400    0.5131   -5.2774 H   0  0  0  0  0  0  0  0  0  0  0  0
    6.4720   -1.3574   -4.4516 H   0  0  0  0  0  0  0  0  0  0  0  0
    5.1557   -2.2371   -5.2667 H   0  0  0  0  0  0  0  0  0  0  0  0
    6.0401   -0.9595   -6.1270 H   0  0  0  0  0  0  0  0  0  0  0  0
  1  2  2  0  0  0  0
  1  3  1  0  0  0  0
  1  7  1  0  0  0  0
  3  4  1  0  0  0  0
  3  5  1  0  0  0  0
  3  6  1  0  0  0  0
  7  8  1  0  0  0  0
  7 12  1  0  0  0  0
  8  9  1  0  0  0  0
  8 11  1  0  0  0  0
  8 13  1  0  0  0  0
  9 10  2  0  0  0  0
  9 17  1  0  0  0  0
 11 14  1  0  0  0  0
 11 15  1  0  0  0  0
 11 16  1  0  0  0  0
 17 18  1  0  0  0  0
 17 26  1  0  0  0  0
 18 19  1  0  0  0  0
 18 21  1  0  0  0  0
 18 27  1  0  0  0  0
 19 20  2  0  0  0  0
 19 32  1  0  0  0  0
 21 22  1  0  0  0  0
 21 28  1  0  0  0  0
 21 29  1  0  0  0  0
 22 23  1  0  0  0  0
 22 30  1  0  0  0  0
 22 31  1  0  0  0  0
 23 24  1  0  0  0  0
 23 25  2  0  0  0  0
 32 33  1  0  0  0  0
 32 37  1  0  0  0  0
 33 34  1  0  0  0  0
 33 36  1  0  0  0  0
 33 38  1  0  0  0  0
 34 35  2  0  0  0  0
 34 42  1  0  0  0  0
 36 39  1  0  0  0  0
 36 40  1  0  0  0  0
 36 41  1  0  0  0  0
 42 43  1  0  0  0  0
 42 44  1  0  0  0  0
 43 45  1  0  0  0  0
 43 46  1  0  0  0  0
 43 47  1  0  0  0  0
M  CHG  1  24  -1
M  END
$$$$

  -OEChem-05262216243D

 47 46  0     1  0  0  0  0  0999 V2000
   -0.1242   -5.7407    1.8539 C   0  0  0  0  0  0  0  0  0  0  0  0
    0.7967   -5.7605    2.6558 O   0  0  0  0  0  0  0  0  0  0  0  0
   -1.2481   -6.7545    1.9639 C   0  0  0  0  0  0  0  0  0  0  0  0
   -1.3099   -7.3442    1.0462 H   0  0  0  0  0  0  0  0  0  0  0  0
   -1.0683   -7.4289    2.8057 H   0  0  0  0  0  0  0  0  0  0  0  0
   -2.1989   -6.2397    2.1223 H   0  0  0  0  0  0  0  0  0  0  0  0
   -0.1494   -4.8062    0.8416 N   0  0  0  0  0  0  0  0  0  0  0  0
    0.7724   -3.6699    0.7237 C   0  0  2  0  0  0  0  0  0  0  0  0
    0.1356   -2.5328   -0.1021 C   0  0  0  0  0  0  0  0  0  0  0  0
   -0.8347   -2.7699   -0.8151 O   0  0  0  0  0  0  0  0  0  0  0  0
    2.0679   -4.1419    0.0532 C   0  0  0  0  0  0  0  0  0  0  0  0
   -0.9828   -4.7701    0.2545 H   0  0  0  0  0  0  0  0  0  0  0  0
    0.9978   -3.2749    1.7206 H   0  0  0  0  0  0  0  0  0  0  0  0
    1.8585   -4.5337   -0.9473 H   0  0  0  0  0  0  0  0  0  0  0  0
    2.7769   -3.3137   -0.0399 H   0  0  0  0  0  0  0  0  0  0  0  0
    2.5390   -4.9323    0.6456 H   0  0  0  0  0  0  0  0  0  0  0  0
    0.6999   -1.2712   -0.0961 N   0  0  0  0  0  0  0  0  0  0  0  0
    0.0112   -0.0738   -0.6173 C   0  0  2  0  0  0  0  0  0  0  0  0
    0.8026    0.5712   -1.7758 C   0  0  0  0  0  0  0  0  0  0  0  0
    0.3974    1.5717   -2.3549 O   0  0  0  0  0  0  0  0  0  0  0  0
   -0.1019    0.9147    0.5562 C   0  0  0  0  0  0  0  0  0  0  0  0
   -1.0426    0.3976    1.6597 C   0  0  0  0  0  0  0  0  0  0  0  0
   -1.1101    1.3903    2.8182 C   0  0  0  0  0  0  0  0  0  0  0  0
   -0.0557    1.5556    3.4820 O   0  5  0  0  0  0  0  0  0  0  0  0
   -2.1990    1.9719    3.0427 O   0  0  0  0  0  0  0  0  0  0  0  0
    1.3756   -1.1080    0.6466 H   0  0  0  0  0  0  0  0  0  0  0  0
   -0.9915   -0.3092   -0.9893 H   0  0  0  0  0  0  0  0  0  0  0  0
   -0.4948    1.8701    0.1906 H   0  0  0  0  0  0  0  0  0  0  0  0
    0.8907    1.1098    0.9768 H   0  0  0  0  0  0  0  0  0  0  0  0
   -2.0445    0.2421    1.2480 H   0  0  0  0  0  0  0  0  0  0  0  0
   -0.6881   -0.5603    2.0492 H   0  0  0  0  0  0  0  0  0  0  0  0
    1.9963    0.0085   -2.1873 N   0  0  0  0  0  0  0  0  0  0  0  0
    2.7782    0.4423   -3.3485 C   0  0  2  0  0  0  0  0  0  0  0  0
    3.5897   -0.7222   -3.9548 C   0  0  0  0  0  0  0  0  0  0  0  0
    3.7744   -1.7548   -3.3175 O   0  0  0  0  0  0  0  0  0  0  0  0
    3.7113    1.5752   -2.9098 C   0  0  0  0  0  0  0  0  0  0  0  0
    2.2226   -0.9005   -1.7864 H   0  0  0  0  0  0  0  0  0  0  0  0
    2.1008    0.8114   -4.1257 H   0  0  0  0  0  0  0  0  0  0  0  0
    4.3985    1.2252   -2.1330 H   0  0  0  0  0  0  0  0  0  0  0  0
    4.2975    1.9405   -3.7578 H   0  0  0  0  0  0  0  0  0  0  0  0
    3.1299    2.4114   -2.5085 H   0  0  0  0  0  0  0  0  0  0  0  0
    4.1149   -0.6131   -5.2299 N   0  0  0  0  0  0  0  0  0  0  0  0
    4.8600   -1.6818   -5.8822 C   0  0  0  0  0  0  0  0  0  0  0  0
    3.9156    0.2384   -5.7468 H   0  0  0  0  0  0  0  0  0  0  0  0
    5.7374   -1.9552   -5.2867 H   0  0  0  0  0  0  0  0  0  0  0  0
    4.2280   -2.5674   -6.0073 H   0  0  0  0  0  0  0  0  0  0  0  0
    5.2014   -1.3568   -6.8695 H   0  0  0  0  0  0  0  0  0  0  0  0
  1  2  2  0  0  0  0
  1  3  1  0  0  0  0
  1  7  1  0  0  0  0
  3  4  1  0  0  0  0
  3  5  1  0  0  0  0
  3  6  1  0  0  0  0
  7  8  1  0  0  0  0
  7 12  1  0  0  0  0
  8  9  1  0  0  0  0
  8 11  1  0  0  0  0
  8 13  1  0  0  0  0
  9 10  2  0  0  0  0
  9 17  1  0  0  0  0
 11 14  1  0  0  0  0
 11 15  1  0  0  0  0
 11 16  1  0  0  0  0
 17 18  1  0  0  0  0
 17 26  1  0  0  0  0
 18 19  1  0  0  0  0
 18 21  1  0  0  0  0
 18 27  1  0  0  0  0
 19 20  2  0  0  0  0
 19 32  1  0  0  0  0
 21 22  1  0  0  0  0
 21 28  1  0  0  0  0
 21 29  1  0  0  0  0
 22 23  1  0  0  0  0
 22 30  1  0  0  0  0
 22 31  1  0  0  0  0
 23 24  1  0  0  0  0
 23 25  2  0  0  0  0
 32 33  1  0  0  0  0
 32 37  1  0  0  0  0
 33 34  1  0  0  0  0
 33 36  1  0  0  0  0
 33 38  1  0  0  0  0
 34 35  2  0  0  0  0
 34 42  1  0  0  0  0
 36 39  1  0  0  0  0
 36 40  1  0  0  0  0
 36 41  1  0  0  0  0
 42 43  1  0  0  0  0
 42 44  1  0  0  0  0
 43 45  1  0  0  0  0
 43 46  1  0  0  0  0
 43 47  1  0  0  0  0
M  CHG  1  24  -1
M  END
$$$$

  -OEChem-05262216243D

 47 46  0     1  0  0  0  0  0999 V2000
   -0.0734   -5.7386    1.8573 C   0  0  0  0  0  0  0  0  0  0  0  0
    0.8668   -5.7559    2.6364 O   0  0  0  0  0  0  0  0  0  0  0  0
   -1.1980   -6.7471    2.0025 C   0  0  0  0  0  0  0  0  0  0  0  0
   -1.2986   -7.3286    1.0830 H   0  0  0  0  0  0  0  0  0  0  0  0
   -0.9893   -7.4294    2.8312 H   0  0  0  0  0  0  0  0  0  0  0  0
   -2.1390   -6.2280    2.2016 H   0  0  0  0  0  0  0  0  0  0  0  0
   -0.1226   -4.8090    0.8414 N   0  0  0  0  0  0  0  0  0  0  0  0
    0.7844   -3.6620    0.7100 C   0  0  2  0  0  0  0  0  0  0  0  0
    0.1188   -2.5242   -0.0927 C   0  0  0  0  0  0  0  0  0  0  0  0
   -0.8779   -2.7603   -0.7686 O   0  0  0  0  0  0  0  0  0  0  0  0
    2.0706   -4.1171    0.0106 C   0  0  0  0  0  0  0  0  0  0  0  0
   -0.9712   -4.7757    0.2765 H   0  0  0  0  0  0  0  0  0  0  0  0
    1.0275   -3.2715    1.7044 H   0  0  0  0  0  0  0  0  0  0  0  0
    1.8470   -4.5020   -0.9897 H   0  0  0  0  0  0  0  0  0  0  0  0
    2.7710   -3.2820   -0.0868 H   0  0  0  0  0  0  0  0  0  0  0  0
    2.5587   -4.9088    0.5872 H   0  0  0  0  0  0  0  0  0  0  0  0
    0.6855   -1.2635   -0.1168 N   0  0  0  0  0  0  0  0  0  0  0  0
   -0.0169   -0.0671   -0.6227 C   0  0  2  0  0  0  0  0  0  0  0  0
    0.7430    0.5609   -1.8137 C   0  0  0  0  0  0  0  0  0  0  0  0
    0.4836    1.6805   -2.2379 O   0  0  0  0  0  0  0  0  0  0  0  0
   -0.1027    0.9228    0.5536 C   0  0  0  0  0  0  0  0  0  0  0  0
   -1.0162    0.4041    1.6790 C   0  0  0  0  0  0  0  0  0  0  0  0
   -1.0573    1.3969    2.8385 C   0  0  0  0  0  0  0  0  0  0  0  0
    0.0049    1.5434    3.4943 O   0  5  0  0  0  0  0  0  0  0  0  0
   -2.1336    1.9994    3.0696 O   0  0  0  0  0  0  0  0  0  0  0  0
    1.3997   -1.0972    0.5883 H   0  0  0  0  0  0  0  0  0  0  0  0
   -1.0297   -0.3042   -0.9652 H   0  0  0  0  0  0  0  0  0  0  0  0
   -0.5075    1.8776    0.1995 H   0  0  0  0  0  0  0  0  0  0  0  0
    0.8995    1.1200    0.9499 H   0  0  0  0  0  0  0  0  0  0  0  0
   -2.0275    0.2478    1.2914 H   0  0  0  0  0  0  0  0  0  0  0  0
   -0.6515   -0.5535    2.0600 H   0  0  0  0  0  0  0  0  0  0  0  0
    1.7285   -0.1679   -2.4526 N   0  0  0  0  0  0  0  0  0  0  0  0
    2.4699    0.2636   -3.6413 C   0  0  2  0  0  0  0  0  0  0  0  0
    3.0112   -0.9392   -4.4417 C   0  0  0  0  0  0  0  0  0  0  0  0
    3.1130   -2.0442   -3.9177 O   0  0  0  0  0  0  0  0  0  0  0  0
    3.6260    1.1657   -3.1966 C   0  0  0  0  0  0  0  0  0  0  0  0
    1.8346   -1.1379   -2.1578 H   0  0  0  0  0  0  0  0  0  0  0  0
    1.8015    0.8277   -4.3002 H   0  0  0  0  0  0  0  0  0  0  0  0
    4.3007    0.6202   -2.5292 H   0  0  0  0  0  0  0  0  0  0  0  0
    4.1967    1.5140   -4.0624 H   0  0  0  0  0  0  0  0  0  0  0  0
    3.2421    2.0411   -2.6632 H   0  0  0  0  0  0  0  0  0  0  0  0
    3.3998   -0.7791   -5.7598 N   0  0  0  0  0  0  0  0  0  0  0  0
    3.9123   -1.8682   -6.5806 C   0  0  0  0  0  0  0  0  0  0  0  0
    3.2831    0.1409   -6.1743 H   0  0  0  0  0  0  0  0  0  0  0  0
    4.8102   -2.2997   -6.1261 H   0  0  0  0  0  0  0  0  0  0  0  0
    3.1577   -2.6544   -6.6872 H   0  0  0  0  0  0  0  0  0  0  0  0
    4.1729   -1.5001   -7.5773 H   0  0  0  0  0  0  0  0  0  0  0  0
  1  2  2  0  0  0  0
  1  3  1  0  0  0  0
  1  7  1  0  0  0  0
  3  4  1  0  0  0  0
  3  5  1  0  0  0  0
  3  6  1  0  0  0  0
  7  8  1  0  0  0  0
  7 12  1  0  0  0  0
  8  9  1  0  0  0  0
  8 11  1  0  0  0  0
  8 13  1  0  0  0  0
  9 10  2  0  0  0  0
  9 17  1  0  0  0  0
 11 14  1  0  0  0  0
 11 15  1  0  0  0  0
 11 16  1  0  0  0  0
 17 18  1  0  0  0  0
 17 26  1  0  0  0  0
 18 19  1  0  0  0  0
 18 21  1  0  0  0  0
 18 27  1  0  0  0  0
 19 20  2  0  0  0  0
 19 32  1  0  0  0  0
 21 22  1  0  0  0  0
 21 28  1  0  0  0  0
 21 29  1  0  0  0  0
 22 23  1  0  0  0  0
 22 30  1  0  0  0  0
 22 31  1  0  0  0  0
 23 24  1  0  0  0  0
 23 25  2  0  0  0  0
 32 33  1  0  0  0  0
 32 37  1  0  0  0  0
 33 34  1  0  0  0  0
 33 36  1  0  0  0  0
 33 38  1  0  0  0  0
 34 35  2  0  0  0  0
 34 42  1  0  0  0  0
 36 39  1  0  0  0  0
 36 40  1  0  0  0  0
 36 41  1  0  0  0  0
 42 43  1  0  0  0  0
 42 44  1  0  0  0  0
 43 45  1  0  0  0  0
 43 46  1  0  0  0  0
 43 47  1  0  0  0  0
M  CHG  1  24  -1
M  END
$$$$

  -OEChem-05262216243D

 47 46  0     1  0  0  0  0  0999 V2000
   -0.0153   -5.7261    1.8475 C   0  0  0  0  0  0  0  0  0  0  0  0
    0.9488   -5.7474    2.5967 O   0  0  0  0  0  0  0  0  0  0  0  0
   -1.1235   -6.7502    2.0082 C   0  0  0  0  0  0  0  0  0  0  0  0
   -1.2798   -7.2824    1.0668 H   0  0  0  0  0  0  0  0  0  0  0  0
   -0.8592   -7.4742    2.7839 H   0  0  0  0  0  0  0  0  0  0  0  0
   -2.0521   -6.2499    2.2945 H   0  0  0  0  0  0  0  0  0  0  0  0
   -0.1074   -4.7770    0.8528 N   0  0  0  0  0  0  0  0  0  0  0  0
    0.7949   -3.6296    0.6987 C   0  0  2  0  0  0  0  0  0  0  0  0
    0.1132   -2.5014   -0.1038 C   0  0  0  0  0  0  0  0  0  0  0  0
   -0.8929   -2.7446   -0.7631 O   0  0  0  0  0  0  0  0  0  0  0  0
    2.0710   -4.0862   -0.0176 C   0  0  0  0  0  0  0  0  0  0  0  0
   -0.9701   -4.7455    0.3095 H   0  0  0  0  0  0  0  0  0  0  0  0
    1.0517   -3.2305    1.6864 H   0  0  0  0  0  0  0  0  0  0  0  0
    1.8298   -4.4864   -1.0075 H   0  0  0  0  0  0  0  0  0  0  0  0
    2.7634   -3.2480   -0.1397 H   0  0  0  0  0  0  0  0  0  0  0  0
    2.5757   -4.8662    0.5605 H   0  0  0  0  0  0  0  0  0  0  0  0
    0.6762   -1.2404   -0.1518 N   0  0  0  0  0  0  0  0  0  0  0  0
   -0.0464   -0.0462   -0.6308 C   0  0  2  0  0  0  0  0  0  0  0  0
    0.6767    0.5700   -1.8511 C   0  0  0  0  0  0  0  0  0  0  0  0
    0.6324    1.7659   -2.1139 O   0  0  0  0  0  0  0  0  0  0  0  0
   -0.1112    0.9378    0.5538 C   0  0  0  0  0  0  0  0  0  0  0  0
   -0.9943    0.4028    1.6962 C   0  0  0  0  0  0  0  0  0  0  0  0
   -1.0192    1.3848    2.8654 C   0  0  0  0  0  0  0  0  0  0  0  0
    0.0434    1.5055    3.5254 O   0  5  0  0  0  0  0  0  0  0  0  0
   -2.0862    2.0022    3.1014 O   0  0  0  0  0  0  0  0  0  0  0  0
    1.4176   -1.0722    0.5239 H   0  0  0  0  0  0  0  0  0  0  0  0
   -1.0675   -0.2881   -0.9434 H   0  0  0  0  0  0  0  0  0  0  0  0
   -0.5326    1.8916    0.2166 H   0  0  0  0  0  0  0  0  0  0  0  0
    0.8986    1.1411    0.9272 H   0  0  0  0  0  0  0  0  0  0  0  0
   -2.0125    0.2405    1.3303 H   0  0  0  0  0  0  0  0  0  0  0  0
   -0.6134   -0.5547    2.0609 H   0  0  0  0  0  0  0  0  0  0  0  0
    1.3928   -0.2562   -2.6972 N   0  0  0  0  0  0  0  0  0  0  0  0
    2.1144    0.1775   -3.8985 C   0  0  2  0  0  0  0  0  0  0  0  0
    2.3505   -0.9867   -4.8835 C   0  0  0  0  0  0  0  0  0  0  0  0
    2.3070   -2.1510   -4.4997 O   0  0  0  0  0  0  0  0  0  0  0  0
    3.4578    0.7825   -3.4761 C   0  0  0  0  0  0  0  0  0  0  0  0
    1.3308   -1.2577   -2.5150 H   0  0  0  0  0  0  0  0  0  0  0  0
    1.5226    0.9383   -4.4181 H   0  0  0  0  0  0  0  0  0  0  0  0
    4.0610    0.0388   -2.9457 H   0  0  0  0  0  0  0  0  0  0  0  0
    4.0164    1.1262   -4.3517 H   0  0  0  0  0  0  0  0  0  0  0  0
    3.2993    1.6387   -2.8129 H   0  0  0  0  0  0  0  0  0  0  0  0
    2.6377   -0.7251   -6.2116 N   0  0  0  0  0  0  0  0  0  0  0  0
    2.8692   -1.7687   -7.2018 C   0  0  0  0  0  0  0  0  0  0  0  0
    2.6462    0.2470   -6.5061 H   0  0  0  0  0  0  0  0  0  0  0  0
    3.7232   -2.3896   -6.9113 H   0  0  0  0  0  0  0  0  0  0  0  0
    1.9848   -2.4071   -7.2981 H   0  0  0  0  0  0  0  0  0  0  0  0
    3.0825   -1.3230   -8.1780 H   0  0  0  0  0  0  0  0  0  0  0  0
  1  2  2  0  0  0  0
  1  3  1  0  0  0  0
  1  7  1  0  0  0  0
  3  4  1  0  0  0  0
  3  5  1  0  0  0  0
  3  6  1  0  0  0  0
  7  8  1  0  0  0  0
  7 12  1  0  0  0  0
  8  9  1  0  0  0  0
  8 11  1  0  0  0  0
  8 13  1  0  0  0  0
  9 10  2  0  0  0  0
  9 17  1  0  0  0  0
 11 14  1  0  0  0  0
 11 15  1  0  0  0  0
 11 16  1  0  0  0  0
 17 18  1  0  0  0  0
 17 26  1  0  0  0  0
 18 19  1  0  0  0  0
 18 21  1  0  0  0  0
 18 27  1  0  0  0  0
 19 20  2  0  0  0  0
 19 32  1  0  0  0  0
 21 22  1  0  0  0  0
 21 28  1  0  0  0  0
 21 29  1  0  0  0  0
 22 23  1  0  0  0  0
 22 30  1  0  0  0  0
 22 31  1  0  0  0  0
 23 24  1  0  0  0  0
 23 25  2  0  0  0  0
 32 33  1  0  0  0  0
 32 37  1  0  0  0  0
 33 34  1  0  0  0  0
 33 36  1  0  0  0  0
 33 38  1  0  0  0  0
 34 35  2  0  0  0  0
 34 42  1  0  0  0  0
 36 39  1  0  0  0  0
 36 40  1  0  0  0  0
 36 41  1  0  0  0  0
 42 43  1  0  0  0  0
 42 44  1  0  0  0  0
 43 45  1  0  0  0  0
 43 46  1  0  0  0  0
 43 47  1  0  0  0  0
M  CHG  1  24  -1
M  END
$$$$

  -OEChem-05262216243D

 47 46  0     1  0  0  0  0  0999 V2000
    0.0260   -5.7116    1.8248 C   0  0  0  0  0  0  0  0  0  0  0  0
    0.9712   -5.7214    2.5978 O   0  0  0  0  0  0  0  0  0  0  0  0
   -1.0734   -6.7488    1.9581 C   0  0  0  0  0  0  0  0  0  0  0  0
   -1.2188   -7.2640    1.0056 H   0  0  0  0  0  0  0  0  0  0  0  0
   -0.8071   -7.4860    2.7208 H   0  0  0  0  0  0  0  0  0  0  0  0
   -2.0084   -6.2623    2.2474 H   0  0  0  0  0  0  0  0  0  0  0  0
   -0.0531   -4.7649    0.8270 N   0  0  0  0  0  0  0  0  0  0  0  0
    0.8310   -3.6000    0.7000 C   0  0  2  0  0  0  0  0  0  0  0  0
    0.1449   -2.4838   -0.1164 C   0  0  0  0  0  0  0  0  0  0  0  0
   -0.8491   -2.7431   -0.7884 O   0  0  0  0  0  0  0  0  0  0  0  0
    2.1344   -4.0301    0.0163 C   0  0  0  0  0  0  0  0  0  0  0  0
   -0.9049   -4.7433    0.2661 H   0  0  0  0  0  0  0  0  0  0  0  0
    1.0542   -3.1989    1.6950 H   0  0  0  0  0  0  0  0  0  0  0  0
    1.9279   -4.4261   -0.9832 H   0  0  0  0  0  0  0  0  0  0  0  0
    2.8164   -3.1798   -0.0791 H   0  0  0  0  0  0  0  0  0  0  0  0
    2.6361   -4.8066    0.6018 H   0  0  0  0  0  0  0  0  0  0  0  0
    0.6898   -1.2153   -0.1722 N   0  0  0  0  0  0  0  0  0  0  0  0
   -0.0596   -0.0353   -0.6414 C   0  0  2  0  0  0  0  0  0  0  0  0
    0.6457    0.5787   -1.8714 C   0  0  0  0  0  0  0  0  0  0  0  0
    0.8346    1.7824   -2.0031 O   0  0  0  0  0  0  0  0  0  0  0  0
   -0.1366    0.9502    0.5413 C   0  0  0  0  0  0  0  0  0  0  0  0
   -0.9998    0.4008    1.6913 C   0  0  0  0  0  0  0  0  0  0  0  0
   -1.0359    1.3867    2.8571 C   0  0  0  0  0  0  0  0  0  0  0  0
    0.0223    1.5169    3.5223 O   0  5  0  0  0  0  0  0  0  0  0  0
   -2.1077    1.9988    3.0843 O   0  0  0  0  0  0  0  0  0  0  0  0
    1.4342   -1.0329    0.4965 H   0  0  0  0  0  0  0  0  0  0  0  0
   -1.0793   -0.2943   -0.9446 H   0  0  0  0  0  0  0  0  0  0  0  0
   -0.5790    1.8938    0.2032 H   0  0  0  0  0  0  0  0  0  0  0  0
    0.8713    1.1751    0.9073 H   0  0  0  0  0  0  0  0  0  0  0  0
   -2.0176    0.2149    1.3349 H   0  0  0  0  0  0  0  0  0  0  0  0
   -0.5950   -0.5469    2.0558 H   0  0  0  0  0  0  0  0  0  0  0  0
    1.0891   -0.2637   -2.8741 N   0  0  0  0  0  0  0  0  0  0  0  0
    1.7870    0.1704   -4.0898 C   0  0  2  0  0  0  0  0  0  0  0  0
    1.6623   -0.8510   -5.2384 C   0  0  0  0  0  0  0  0  0  0  0  0
    1.4581   -2.0373   -5.0052 O   0  0  0  0  0  0  0  0  0  0  0  0
    3.2652    0.3972   -3.7543 C   0  0  0  0  0  0  0  0  0  0  0  0
    0.8638   -1.2542   -2.7756 H   0  0  0  0  0  0  0  0  0  0  0  0
    1.3474    1.1111   -4.4372 H   0  0  0  0  0  0  0  0  0  0  0  0
    3.7225   -0.5315   -3.3983 H   0  0  0  0  0  0  0  0  0  0  0  0
    3.8109    0.7388   -4.6389 H   0  0  0  0  0  0  0  0  0  0  0  0
    3.3670    1.1572   -2.9733 H   0  0  0  0  0  0  0  0  0  0  0  0
    1.8097   -0.4356   -6.5498 N   0  0  0  0  0  0  0  0  0  0  0  0
    1.6914   -1.3319   -7.6923 C   0  0  0  0  0  0  0  0  0  0  0  0
    1.9398    0.5585   -6.7131 H   0  0  0  0  0  0  0  0  0  0  0  0
    2.4127   -2.1520   -7.6118 H   0  0  0  0  0  0  0  0  0  0  0  0
    0.6820   -1.7530   -7.7454 H   0  0  0  0  0  0  0  0  0  0  0  0
    1.8901   -0.7882   -8.6208 H   0  0  0  0  0  0  0  0  0  0  0  0
  1  2  2  0  0  0  0
  1  3  1  0  0  0  0
  1  7  1  0  0  0  0
  3  4  1  0  0  0  0
  3  5  1  0  0  0  0
  3  6  1  0  0  0  0
  7  8  1  0  0  0  0
  7 12  1  0  0  0  0
  8  9  1  0  0  0  0
  8 11  1  0  0  0  0
  8 13  1  0  0  0  0
  9 10  2  0  0  0  0
  9 17  1  0  0  0  0
 11 14  1  0  0  0  0
 11 15  1  0  0  0  0
 11 16  1  0  0  0  0
 17 18  1  0  0  0  0
 17 26  1  0  0  0  0
 18 19  1  0  0  0  0
 18 21  1  0  0  0  0
 18 27  1  0  0  0  0
 19 20  2  0  0  0  0
 19 32  1  0  0  0  0
 21 22  1  0  0  0  0
 21 28  1  0  0  0  0
 21 29  1  0  0  0  0
 22 23  1  0  0  0  0
 22 30  1  0  0  0  0
 22 31  1  0  0  0  0
 23 24  1  0  0  0  0
 23 25  2  0  0  0  0
 32 33  1  0  0  0  0
 32 37  1  0  0  0  0
 33 34  1  0  0  0  0
 33 36  1  0  0  0  0
 33 38  1  0  0  0  0
 34 35  2  0  0  0  0
 34 42  1  0  0  0  0
 36 39  1  0  0  0  0
 36 40  1  0  0  0  0
 36 41  1  0  0  0  0
 42 43  1  0  0  0  0
 42 44  1  0  0  0  0
 43 45  1  0  0  0  0
 43 46  1  0  0  0  0
 43 47  1  0  0  0  0
M  CHG  1  24  -1
M  END
$$$$

  -OEChem-05262216243D

 47 46  0     1  0  0  0  0  0999 V2000
    0.0822   -5.7041    1.7994 C   0  0  0  0  0  0  0  0  0  0  0  0
    1.0398   -5.7113    2.5573 O   0  0  0  0  0  0  0  0  0  0  0  0
   -1.0078   -6.7501    1.9451 C   0  0  0  0  0  0  0  0  0  0  0  0
   -1.1372   -7.2889    1.0033 H   0  0  0  0  0  0  0  0  0  0  0  0
   -0.7424   -7.4655    2.7283 H   0  0  0  0  0  0  0  0  0  0  0  0
   -1.9509   -6.2678    2.2136 H   0  0  0  0  0  0  0  0  0  0  0  0
   -0.0170   -4.7533    0.8069 N   0  0  0  0  0  0  0  0  0  0  0  0
    0.8552   -3.5793    0.6766 C   0  0  2  0  0  0  0  0  0  0  0  0
    0.1547   -2.4668   -0.1317 C   0  0  0  0  0  0  0  0  0  0  0  0
   -0.8460   -2.7298   -0.7925 O   0  0  0  0  0  0  0  0  0  0  0  0
    2.1587   -3.9930   -0.0163 C   0  0  0  0  0  0  0  0  0  0  0  0
   -0.8769   -4.7348    0.2584 H   0  0  0  0  0  0  0  0  0  0  0  0
    1.0797   -3.1790    1.6715 H   0  0  0  0  0  0  0  0  0  0  0  0
    1.9490   -4.3968   -1.0118 H   0  0  0  0  0  0  0  0  0  0  0  0
    2.8270   -3.1331   -0.1223 H   0  0  0  0  0  0  0  0  0  0  0  0
    2.6767   -4.7591    0.5689 H   0  0  0  0  0  0  0  0  0  0  0  0
    0.6903   -1.1951   -0.1875 N   0  0  0  0  0  0  0  0  0  0  0  0
   -0.0698   -0.0201   -0.6456 C   0  0  2  0  0  0  0  0  0  0  0  0
    0.6251    0.5978   -1.8777 C   0  0  0  0  0  0  0  0  0  0  0  0
    1.0728    1.7388   -1.8919 O   0  0  0  0  0  0  0  0  0  0  0  0
   -0.1576    0.9624    0.5382 C   0  0  0  0  0  0  0  0  0  0  0  0
   -1.0158    0.4004    1.6858 C   0  0  0  0  0  0  0  0  0  0  0  0
   -1.0638    1.3827    2.8534 C   0  0  0  0  0  0  0  0  0  0  0  0
   -0.0403    1.4535    3.5785 O   0  5  0  0  0  0  0  0  0  0  0  0
   -2.1086    2.0594    3.0154 O   0  0  0  0  0  0  0  0  0  0  0  0
    1.4452   -1.0098    0.4683 H   0  0  0  0  0  0  0  0  0  0  0  0
   -1.0889   -0.2857   -0.9447 H   0  0  0  0  0  0  0  0  0  0  0  0
   -0.6073    1.9024    0.1991 H   0  0  0  0  0  0  0  0  0  0  0  0
    0.8478    1.1954    0.9068 H   0  0  0  0  0  0  0  0  0  0  0  0
   -2.0315    0.2052    1.3287 H   0  0  0  0  0  0  0  0  0  0  0  0
   -0.6020   -0.5447    2.0477 H   0  0  0  0  0  0  0  0  0  0  0  0
    0.7817   -0.1809   -3.0091 N   0  0  0  0  0  0  0  0  0  0  0  0
    1.4506    0.2566   -4.2405 C   0  0  2  0  0  0  0  0  0  0  0  0
    0.9726   -0.5192   -5.4848 C   0  0  0  0  0  0  0  0  0  0  0  0
    0.5175   -1.6528   -5.3828 O   0  0  0  0  0  0  0  0  0  0  0  0
    2.9627    0.0818   -4.0642 C   0  0  0  0  0  0  0  0  0  0  0  0
    0.3811   -1.1198   -2.9843 H   0  0  0  0  0  0  0  0  0  0  0  0
    1.2294    1.3153   -4.4112 H   0  0  0  0  0  0  0  0  0  0  0  0
    3.2080   -0.9707   -3.8894 H   0  0  0  0  0  0  0  0  0  0  0  0
    3.4945    0.4210   -4.9582 H   0  0  0  0  0  0  0  0  0  0  0  0
    3.3168    0.6685   -3.2106 H   0  0  0  0  0  0  0  0  0  0  0  0
    1.0826    0.0537   -6.7394 N   0  0  0  0  0  0  0  0  0  0  0  0
    0.6364   -0.6016   -7.9622 C   0  0  0  0  0  0  0  0  0  0  0  0
    1.4211    1.0103   -6.7871 H   0  0  0  0  0  0  0  0  0  0  0  0
    1.1326   -1.5705   -8.0814 H   0  0  0  0  0  0  0  0  0  0  0  0
   -0.4466   -0.7604   -7.9378 H   0  0  0  0  0  0  0  0  0  0  0  0
    0.8772    0.0175   -8.8316 H   0  0  0  0  0  0  0  0  0  0  0  0
  1  2  2  0  0  0  0
  1  3  1  0  0  0  0
  1  7  1  0  0  0  0
  3  4  1  0  0  0  0
  3  5  1  0  0  0  0
  3  6  1  0  0  0  0
  7  8  1  0  0  0  0
  7 12  1  0  0  0  0
  8  9  1  0  0  0  0
  8 11  1  0  0  0  0
  8 13  1  0  0  0  0
  9 10  2  0  0  0  0
  9 17  1  0  0  0  0
 11 14  1  0  0  0  0
 11 15  1  0  0  0  0
 11 16  1  0  0  0  0
 17 18  1  0  0  0  0
 17 26  1  0  0  0  0
 18 19  1  0  0  0  0
 18 21  1  0  0  0  0
 18 27  1  0  0  0  0
 19 20  2  0  0  0  0
 19 32  1  0  0  0  0
 21 22  1  0  0  0  0
 21 28  1  0  0  0  0
 21 29  1  0  0  0  0
 22 23  1  0  0  0  0
 22 30  1  0  0  0  0
 22 31  1  0  0  0  0
 23 24  1  0  0  0  0
 23 25  2  0  0  0  0
 32 33  1  0  0  0  0
 32 37  1  0  0  0  0
 33 34  1  0  0  0  0
 33 36  1  0  0  0  0
 33 38  1  0  0  0  0
 34 35  2  0  0  0  0
 34 42  1  0  0  0  0
 36 39  1  0  0  0  0
 36 40  1  0  0  0  0
 36 41  1  0  0  0  0
 42 43  1  0  0  0  0
 42 44  1  0  0  0  0
 43 45  1  0  0  0  0
 43 46  1  0  0  0  0
 43 47  1  0  0  0  0
M  CHG  1  24  -1
M  END
$$$$

  -OEChem-05262216243D

 47 46  0     1  0  0  0  0  0999 V2000
    0.1388   -5.6960    1.7798 C   0  0  0  0  0  0  0  0  0  0  0  0
    1.1236   -5.7093    2.5019 O   0  0  0  0  0  0  0  0  0  0  0  0
   -0.9542   -6.7323    1.9698 C   0  0  0  0  0  0  0  0  0  0  0  0
   -1.1383   -7.2588    1.0300 H   0  0  0  0  0  0  0  0  0  0  0  0
   -0.6566   -7.4607    2.7294 H   0  0  0  0  0  0  0  0  0  0  0  0
   -1.8773   -6.2439    2.2924 H   0  0  0  0  0  0  0  0  0  0  0  0
    0.0109   -4.7464    0.7891 N   0  0  0  0  0  0  0  0  0  0  0  0
    0.8871   -3.5795    0.6238 C   0  0  2  0  0  0  0  0  0  0  0  0
    0.1616   -2.4578   -0.1501 C   0  0  0  0  0  0  0  0  0  0  0  0
   -0.8559   -2.7170   -0.7872 O   0  0  0  0  0  0  0  0  0  0  0  0
    2.1556   -4.0029   -0.1267 C   0  0  0  0  0  0  0  0  0  0  0  0
   -0.8708   -4.7191    0.2768 H   0  0  0  0  0  0  0  0  0  0  0  0
    1.1590   -3.1846    1.6091 H   0  0  0  0  0  0  0  0  0  0  0  0
    1.9002   -4.3990   -1.1147 H   0  0  0  0  0  0  0  0  0  0  0  0
    2.8276   -3.1491   -0.2562 H   0  0  0  0  0  0  0  0  0  0  0  0
    2.6902   -4.7776    0.4315 H   0  0  0  0  0  0  0  0  0  0  0  0
    0.6858   -1.1809   -0.1965 N   0  0  0  0  0  0  0  0  0  0  0  0
   -0.0828   -0.0064   -0.6381 C   0  0  2  0  0  0  0  0  0  0  0  0
    0.6007    0.6292   -1.8656 C   0  0  0  0  0  0  0  0  0  0  0  0
    1.2965    1.6361   -1.7922 O   0  0  0  0  0  0  0  0  0  0  0  0
   -0.1818    0.9694    0.5488 C   0  0  0  0  0  0  0  0  0  0  0  0
   -1.0368    0.3930    1.6907 C   0  0  0  0  0  0  0  0  0  0  0  0
   -1.0958    1.3702    2.8615 C   0  0  0  0  0  0  0  0  0  0  0  0
   -0.1241    1.3679    3.6573 O   0  5  0  0  0  0  0  0  0  0  0  0
   -2.0932    2.1275    2.9465 O   0  0  0  0  0  0  0  0  0  0  0  0
    1.4641   -0.9973    0.4319 H   0  0  0  0  0  0  0  0  0  0  0  0
   -1.1015   -0.2774   -0.9347 H   0  0  0  0  0  0  0  0  0  0  0  0
   -0.6359    1.9077    0.2111 H   0  0  0  0  0  0  0  0  0  0  0  0
    0.8204    1.2067    0.9233 H   0  0  0  0  0  0  0  0  0  0  0  0
   -2.0508    0.1913    1.3321 H   0  0  0  0  0  0  0  0  0  0  0  0
   -0.6164   -0.5512    2.0466 H   0  0  0  0  0  0  0  0  0  0  0  0
    0.4815   -0.0008   -3.0898 N   0  0  0  0  0  0  0  0  0  0  0  0
    1.1129    0.4567   -4.3332 C   0  0  2  0  0  0  0  0  0  0  0  0
    0.3474   -0.0048   -5.5907 C   0  0  0  0  0  0  0  0  0  0  0  0
   -0.3887   -0.9844   -5.5546 O   0  0  0  0  0  0  0  0  0  0  0  0
    2.5511   -0.0708   -4.3684 C   0  0  0  0  0  0  0  0  0  0  0  0
   -0.0983   -0.8403   -3.1262 H   0  0  0  0  0  0  0  0  0  0  0  0
    1.1305    1.5515   -4.3459 H   0  0  0  0  0  0  0  0  0  0  0  0
    2.5561   -1.1654   -4.3516 H   0  0  0  0  0  0  0  0  0  0  0  0
    3.0625    0.2678   -5.2744 H   0  0  0  0  0  0  0  0  0  0  0  0
    3.1112    0.2932   -3.5012 H   0  0  0  0  0  0  0  0  0  0  0  0
    0.5046    0.6755   -6.7855 N   0  0  0  0  0  0  0  0  0  0  0  0
   -0.1998    0.3170   -8.0098 C   0  0  0  0  0  0  0  0  0  0  0  0
    1.0907    1.5051   -6.7780 H   0  0  0  0  0  0  0  0  0  0  0  0
    0.0407   -0.7104   -8.3031 H   0  0  0  0  0  0  0  0  0  0  0  0
   -1.2824    0.3992   -7.8663 H   0  0  0  0  0  0  0  0  0  0  0  0
    0.0935    0.9861   -8.8244 H   0  0  0  0  0  0  0  0  0  0  0  0
  1  2  2  0  0  0  0
  1  3  1  0  0  0  0
  1  7  1  0  0  0  0
  3  4  1  0  0  0  0
  3  5  1  0  0  0  0
  3  6  1  0  0  0  0
  7  8  1  0  0  0  0
  7 12  1  0  0  0  0
  8  9  1  0  0  0  0
  8 11  1  0  0  0  0
  8 13  1  0  0  0  0
  9 10  2  0  0  0  0
  9 17  1  0  0  0  0
 11 14  1  0  0  0  0
 11 15  1  0  0  0  0
 11 16  1  0  0  0  0
 17 18  1  0  0  0  0
 17 26  1  0  0  0  0
 18 19  1  0  0  0  0
 18 21  1  0  0  0  0
 18 27  1  0  0  0  0
 19 20  2  0  0  0  0
 19 32  1  0  0  0  0
 21 22  1  0  0  0  0
 21 28  1  0  0  0  0
 21 29  1  0  0  0  0
 22 23  1  0  0  0  0
 22 30  1  0  0  0  0
 22 31  1  0  0  0  0
 23 24  1  0  0  0  0
 23 25  2  0  0  0  0
 32 33  1  0  0  0  0
 32 37  1  0  0  0  0
 33 34  1  0  0  0  0
 33 36  1  0  0  0  0
 33 38  1  0  0  0  0
 34 35  2  0  0  0  0
 34 42  1  0  0  0  0
 36 39  1  0  0  0  0
 36 40  1  0  0  0  0
 36 41  1  0  0  0  0
 42 43  1  0  0  0  0
 42 44  1  0  0  0  0
 43 45  1  0  0  0  0
 43 46  1  0  0  0  0
 43 47  1  0  0  0  0
M  CHG  1  24  -1
M  END
$$$$

  -OEChem-05262216243D

 47 46  0     1  0  0  0  0  0999 V2000
    0.1832   -5.7427    1.7468 C   0  0  0  0  0  0  0  0  0  0  0  0
    1.1819   -5.7639    2.4493 O   0  0  0  0  0  0  0  0  0  0  0  0
   -0.8932   -6.7971    1.9285 C   0  0  0  0  0  0  0  0  0  0  0  0
   -1.0768   -7.3122    0.9825 H   0  0  0  0  0  0  0  0  0  0  0  0
   -0.5803   -7.5321    2.6755 H   0  0  0  0  0  0  0  0  0  0  0  0
   -1.8199   -6.3250    2.2643 H   0  0  0  0  0  0  0  0  0  0  0  0
    0.0222   -4.7679    0.7860 N   0  0  0  0  0  0  0  0  0  0  0  0
    0.8776   -3.5841    0.6358 C   0  0  2  0  0  0  0  0  0  0  0  0
    0.1321   -2.4640   -0.1206 C   0  0  0  0  0  0  0  0  0  0  0  0
   -0.9046   -2.7228   -0.7267 O   0  0  0  0  0  0  0  0  0  0  0  0
    2.1510   -3.9732   -0.1239 C   0  0  0  0  0  0  0  0  0  0  0  0
   -0.8692   -4.7396    0.2908 H   0  0  0  0  0  0  0  0  0  0  0  0
    1.1446   -3.1984    1.6259 H   0  0  0  0  0  0  0  0  0  0  0  0
    1.8997   -4.3527   -1.1193 H   0  0  0  0  0  0  0  0  0  0  0  0
    2.8100   -3.1071   -0.2367 H   0  0  0  0  0  0  0  0  0  0  0  0
    2.6972   -4.7507    0.4185 H   0  0  0  0  0  0  0  0  0  0  0  0
    0.6595   -1.1891   -0.1794 N   0  0  0  0  0  0  0  0  0  0  0  0
   -0.0926   -0.0140   -0.6426 C   0  0  2  0  0  0  0  0  0  0  0  0
    0.6050    0.6064   -1.8691 C   0  0  0  0  0  0  0  0  0  0  0  0
    1.5116    1.4247   -1.7579 O   0  0  0  0  0  0  0  0  0  0  0  0
   -0.1876    0.9867    0.5233 C   0  0  0  0  0  0  0  0  0  0  0  0
   -1.0545    0.4440    1.6717 C   0  0  0  0  0  0  0  0  0  0  0  0
   -1.1079    1.4476    2.8202 C   0  0  0  0  0  0  0  0  0  0  0  0
   -0.2633    1.3142    3.7400 O   0  5  0  0  0  0  0  0  0  0  0  0
   -1.9621    2.3655    2.7556 O   0  0  0  0  0  0  0  0  0  0  0  0
    1.4608   -1.0061    0.4192 H   0  0  0  0  0  0  0  0  0  0  0  0
   -1.1120   -0.2808   -0.9398 H   0  0  0  0  0  0  0  0  0  0  0  0
   -0.6275    1.9237    0.1639 H   0  0  0  0  0  0  0  0  0  0  0  0
    0.8151    1.2190    0.8997 H   0  0  0  0  0  0  0  0  0  0  0  0
   -2.0695    0.2494    1.3133 H   0  0  0  0  0  0  0  0  0  0  0  0
   -0.6478   -0.4992    2.0466 H   0  0  0  0  0  0  0  0  0  0  0  0
    0.2590    0.1746   -3.1357 N   0  0  0  0  0  0  0  0  0  0  0  0
    0.8445    0.6859   -4.3807 C   0  0  2  0  0  0  0  0  0  0  0  0
   -0.1332    0.5993   -5.5707 C   0  0  0  0  0  0  0  0  0  0  0  0
   -1.0413   -0.2244   -5.5779 O   0  0  0  0  0  0  0  0  0  0  0  0
    2.1167   -0.1119   -4.6826 C   0  0  0  0  0  0  0  0  0  0  0  0
   -0.4853   -0.5197   -3.2074 H   0  0  0  0  0  0  0  0  0  0  0  0
    1.1042    1.7416   -4.2496 H   0  0  0  0  0  0  0  0  0  0  0  0
    1.8797   -1.1723   -4.8148 H   0  0  0  0  0  0  0  0  0  0  0  0
    2.5924    0.2568   -5.5961 H   0  0  0  0  0  0  0  0  0  0  0  0
    2.8306   -0.0144   -3.8586 H   0  0  0  0  0  0  0  0  0  0  0  0
    0.0224    1.4424   -6.6568 N   0  0  0  0  0  0  0  0  0  0  0  0
   -0.8784    1.4462   -7.8021 C   0  0  0  0  0  0  0  0  0  0  0  0
    0.7509    2.1479   -6.5997 H   0  0  0  0  0  0  0  0  0  0  0  0
   -0.9023    0.4583   -8.2737 H   0  0  0  0  0  0  0  0  0  0  0  0
   -1.8933    1.7134   -7.4896 H   0  0  0  0  0  0  0  0  0  0  0  0
   -0.5411    2.1747   -8.5453 H   0  0  0  0  0  0  0  0  0  0  0  0
  1  2  2  0  0  0  0
  1  3  1  0  0  0  0
  1  7  1  0  0  0  0
  3  4  1  0  0  0  0
  3  5  1  0  0  0  0
  3  6  1  0  0  0  0
  7  8  1  0  0  0  0
  7 12  1  0  0  0  0
  8  9  1  0  0  0  0
  8 11  1  0  0  0  0
  8 13  1  0  0  0  0
  9 10  2  0  0  0  0
  9 17  1  0  0  0  0
 11 14  1  0  0  0  0
 11 15  1  0  0  0  0
 11 16  1  0  0  0  0
 17 18  1  0  0  0  0
 17 26  1  0  0  0  0
 18 19  1  0  0  0  0
 18 21  1  0  0  0  0
 18 27  1  0  0  0  0
 19 20  2  0  0  0  0
 19 32  1  0  0  0  0
 21 22  1  0  0  0  0
 21 28  1  0  0  0  0
 21 29  1  0  0  0  0
 22 23  1  0  0  0  0
 22 30  1  0  0  0  0
 22 31  1  0  0  0  0
 23 24  1  0  0  0  0
 23 25  2  0  0  0  0
 32 33  1  0  0  0  0
 32 37  1  0  0  0  0
 33 34  1  0  0  0  0
 33 36  1  0  0  0  0
 33 38  1  0  0  0  0
 34 35  2  0  0  0  0
 34 42  1  0  0  0  0
 36 39  1  0  0  0  0
 36 40  1  0  0  0  0
 36 41  1  0  0  0  0
 42 43  1  0  0  0  0
 42 44  1  0  0  0  0
 43 45  1  0  0  0  0
 43 46  1  0  0  0  0
 43 47  1  0  0  0  0
M  CHG  1  24  -1
M  END
$$$$

  -OEChem-05262216243D

 47 46  0     1  0  0  0  0  0999 V2000
    0.2315   -5.7545    1.7304 C   0  0  0  0  0  0  0  0  0  0  0  0
    1.2533   -5.7733    2.3990 O   0  0  0  0  0  0  0  0  0  0  0  0
   -0.8403   -6.8061    1.9523 C   0  0  0  0  0  0  0  0  0  0  0  0
   -1.0172   -7.3603    1.0273 H   0  0  0  0  0  0  0  0  0  0  0  0
   -0.5265   -7.5079    2.7301 H   0  0  0  0  0  0  0  0  0  0  0  0
   -1.7715   -6.3271    2.2652 H   0  0  0  0  0  0  0  0  0  0  0  0
    0.0415   -4.7858    0.7692 N   0  0  0  0  0  0  0  0  0  0  0  0
    0.8927   -3.6030    0.5876 C   0  0  2  0  0  0  0  0  0  0  0  0
    0.1119   -2.4719   -0.1157 C   0  0  0  0  0  0  0  0  0  0  0  0
   -0.9552   -2.7242   -0.6695 O   0  0  0  0  0  0  0  0  0  0  0  0
    2.1241   -3.9918   -0.2392 C   0  0  0  0  0  0  0  0  0  0  0  0
   -0.8690   -4.7533    0.3105 H   0  0  0  0  0  0  0  0  0  0  0  0
    1.2127   -3.2279    1.5659 H   0  0  0  0  0  0  0  0  0  0  0  0
    1.8209   -4.3765   -1.2182 H   0  0  0  0  0  0  0  0  0  0  0  0
    2.7739   -3.1245   -0.3911 H   0  0  0  0  0  0  0  0  0  0  0  0
    2.7011   -4.7661    0.2760 H   0  0  0  0  0  0  0  0  0  0  0  0
    0.6308   -1.1933   -0.1751 N   0  0  0  0  0  0  0  0  0  0  0  0
   -0.1187   -0.0142   -0.6325 C   0  0  2  0  0  0  0  0  0  0  0  0
    0.5729    0.6156   -1.8571 C   0  0  0  0  0  0  0  0  0  0  0  0
    1.6490    1.1956   -1.7539 O   0  0  0  0  0  0  0  0  0  0  0  0
   -0.2111    0.9970    0.5233 C   0  0  0  0  0  0  0  0  0  0  0  0
   -1.0770    0.4674    1.6788 C   0  0  0  0  0  0  0  0  0  0  0  0
   -1.1293    1.4816    2.8191 C   0  0  0  0  0  0  0  0  0  0  0  0
   -0.4205    1.2533    3.8301 O   0  5  0  0  0  0  0  0  0  0  0  0
   -1.8394    2.5045    2.6554 O   0  0  0  0  0  0  0  0  0  0  0  0
    1.4819   -1.0177    0.3525 H   0  0  0  0  0  0  0  0  0  0  0  0
   -1.1383   -0.2830   -0.9255 H   0  0  0  0  0  0  0  0  0  0  0  0
   -0.6516    1.9301    0.1545 H   0  0  0  0  0  0  0  0  0  0  0  0
    0.7921    1.2331    0.8960 H   0  0  0  0  0  0  0  0  0  0  0  0
   -2.0933    0.2713    1.3254 H   0  0  0  0  0  0  0  0  0  0  0  0
   -0.6706   -0.4743    2.0590 H   0  0  0  0  0  0  0  0  0  0  0  0
    0.0332    0.4448   -3.1181 N   0  0  0  0  0  0  0  0  0  0  0  0
    0.6033    1.0003   -4.3511 C   0  0  2  0  0  0  0  0  0  0  0  0
   -0.4731    1.2855   -5.4183 C   0  0  0  0  0  0  0  0  0  0  0  0
   -1.5298    0.6636   -5.4251 O   0  0  0  0  0  0  0  0  0  0  0  0
    1.6385    0.0123   -4.8975 C   0  0  0  0  0  0  0  0  0  0  0  0
   -0.8579   -0.0462   -3.1860 H   0  0  0  0  0  0  0  0  0  0  0  0
    1.0974    1.9510   -4.1245 H   0  0  0  0  0  0  0  0  0  0  0  0
    1.1642   -0.9457   -5.1333 H   0  0  0  0  0  0  0  0  0  0  0  0
    2.1015    0.4064   -5.8070 H   0  0  0  0  0  0  0  0  0  0  0  0
    2.4255   -0.1613   -4.1570 H   0  0  0  0  0  0  0  0  0  0  0  0
   -0.2415    2.2373   -6.3952 N   0  0  0  0  0  0  0  0  0  0  0  0
   -1.2220    2.5986   -7.4106 C   0  0  0  0  0  0  0  0  0  0  0  0
    0.6154    2.7779   -6.3239 H   0  0  0  0  0  0  0  0  0  0  0  0
   -1.5141    1.7183   -7.9926 H   0  0  0  0  0  0  0  0  0  0  0  0
   -2.1156    3.0265   -6.9446 H   0  0  0  0  0  0  0  0  0  0  0  0
   -0.7993    3.3396   -8.0957 H   0  0  0  0  0  0  0  0  0  0  0  0
  1  2  2  0  0  0  0
  1  3  1  0  0  0  0
  1  7  1  0  0  0  0
  3  4  1  0  0  0  0
  3  5  1  0  0  0  0
  3  6  1  0  0  0  0
  7  8  1  0  0  0  0
  7 12  1  0  0  0  0
  8  9  1  0  0  0  0
  8 11  1  0  0  0  0
  8 13  1  0  0  0  0
  9 10  2  0  0  0  0
  9 17  1  0  0  0  0
 11 14  1  0  0  0  0
 11 15  1  0  0  0  0
 11 16  1  0  0  0  0
 17 18  1  0  0  0  0
 17 26  1  0  0  0  0
 18 19  1  0  0  0  0
 18 21  1  0  0  0  0
 18 27  1  0  0  0  0
 19 20  2  0  0  0  0
 19 32  1  0  0  0  0
 21 22  1  0  0  0  0
 21 28  1  0  0  0  0
 21 29  1  0  0  0  0
 22 23  1  0  0  0  0
 22 30  1  0  0  0  0
 22 31  1  0  0  0  0
 23 24  1  0  0  0  0
 23 25  2  0  0  0  0
 32 33  1  0  0  0  0
 32 37  1  0  0  0  0
 33 34  1  0  0  0  0
 33 36  1  0  0  0  0
 33 38  1  0  0  0  0
 34 35  2  0  0  0  0
 34 42  1  0  0  0  0
 36 39  1  0  0  0  0
 36 40  1  0  0  0  0
 36 41  1  0  0  0  0
 42 43  1  0  0  0  0
 42 44  1  0  0  0  0
 43 45  1  0  0  0  0
 43 46  1  0  0  0  0
 43 47  1  0  0  0  0
M  CHG  1  24  -1
M  END
$$$$

  -OEChem-05262216243D

 47 46  0     1  0  0  0  0  0999 V2000
    0.2768   -5.7869    1.6892 C   0  0  0  0  0  0  0  0  0  0  0  0
    1.3259   -5.8135    2.3137 O   0  0  0  0  0  0  0  0  0  0  0  0
   -0.7831   -6.8437    1.9422 C   0  0  0  0  0  0  0  0  0  0  0  0
   -0.9969   -7.3862    1.0182 H   0  0  0  0  0  0  0  0  0  0  0  0
   -0.4364   -7.5547    2.6975 H   0  0  0  0  0  0  0  0  0  0  0  0
   -1.7016   -6.3710    2.2992 H   0  0  0  0  0  0  0  0  0  0  0  0
    0.0448   -4.8049    0.7507 N   0  0  0  0  0  0  0  0  0  0  0  0
    0.8791   -3.6116    0.5598 C   0  0  2  0  0  0  0  0  0  0  0  0
    0.0653   -2.4730   -0.0921 C   0  0  0  0  0  0  0  0  0  0  0  0
   -1.0308   -2.7170   -0.5905 O   0  0  0  0  0  0  0  0  0  0  0  0
    2.0828   -3.9720   -0.3181 C   0  0  0  0  0  0  0  0  0  0  0  0
   -0.8849   -4.7682    0.3327 H   0  0  0  0  0  0  0  0  0  0  0  0
    1.2314   -3.2524    1.5330 H   0  0  0  0  0  0  0  0  0  0  0  0
    1.7474   -4.3240   -1.2987 H   0  0  0  0  0  0  0  0  0  0  0  0
    2.7271   -3.0995   -0.4621 H   0  0  0  0  0  0  0  0  0  0  0  0
    2.6761   -4.7615    0.1528 H   0  0  0  0  0  0  0  0  0  0  0  0
    0.5845   -1.1954   -0.1595 N   0  0  0  0  0  0  0  0  0  0  0  0
   -0.1507   -0.0115   -0.6263 C   0  0  2  0  0  0  0  0  0  0  0  0
    0.5485    0.6117   -1.8496 C   0  0  0  0  0  0  0  0  0  0  0  0
    1.7270    0.9507   -1.7946 O   0  0  0  0  0  0  0  0  0  0  0  0
   -0.2270    1.0138    0.5163 C   0  0  0  0  0  0  0  0  0  0  0  0
   -1.0957    0.5124    1.6823 C   0  0  0  0  0  0  0  0  0  0  0  0
   -1.1328    1.5411    2.8115 C   0  0  0  0  0  0  0  0  0  0  0  0
   -0.5353    1.2550    3.8783 O   0  5  0  0  0  0  0  0  0  0  0  0
   -1.7162    2.6304    2.5851 O   0  0  0  0  0  0  0  0  0  0  0  0
    1.4824   -1.0329    0.2883 H   0  0  0  0  0  0  0  0  0  0  0  0
   -1.1722   -0.2756   -0.9179 H   0  0  0  0  0  0  0  0  0  0  0  0
   -0.6537    1.9489    0.1368 H   0  0  0  0  0  0  0  0  0  0  0  0
    0.7808    1.2381    0.8828 H   0  0  0  0  0  0  0  0  0  0  0  0
   -2.1158    0.3241    1.3353 H   0  0  0  0  0  0  0  0  0  0  0  0
   -0.6982   -0.4292    2.0719 H   0  0  0  0  0  0  0  0  0  0  0  0
   -0.1176    0.7214   -3.0556 N   0  0  0  0  0  0  0  0  0  0  0  0
    0.4458    1.3370   -4.2629 C   0  0  2  0  0  0  0  0  0  0  0  0
   -0.6416    1.9769   -5.1496 C   0  0  0  0  0  0  0  0  0  0  0  0
   -1.7921    1.5534   -5.1283 O   0  0  0  0  0  0  0  0  0  0  0  0
    1.2037    0.2627   -5.0482 C   0  0  0  0  0  0  0  0  0  0  0  0
   -1.1027    0.4590   -3.0753 H   0  0  0  0  0  0  0  0  0  0  0  0
    1.1422    2.1314   -3.9745 H   0  0  0  0  0  0  0  0  0  0  0  0
    0.5227   -0.5386   -5.3522 H   0  0  0  0  0  0  0  0  0  0  0  0
    1.6594    0.6934   -5.9447 H   0  0  0  0  0  0  0  0  0  0  0  0
    1.9976   -0.1700   -4.4312 H   0  0  0  0  0  0  0  0  0  0  0  0
   -0.3218    3.0256   -5.9933 N   0  0  0  0  0  0  0  0  0  0  0  0
   -1.3058    3.7132   -6.8193 C   0  0  0  0  0  0  0  0  0  0  0  0
    0.6210    3.3994   -5.9360 H   0  0  0  0  0  0  0  0  0  0  0  0
   -1.7920    3.0086   -7.5022 H   0  0  0  0  0  0  0  0  0  0  0  0
   -2.0712    4.1819   -6.1919 H   0  0  0  0  0  0  0  0  0  0  0  0
   -0.8208    4.4920   -7.4153 H   0  0  0  0  0  0  0  0  0  0  0  0
  1  2  2  0  0  0  0
  1  3  1  0  0  0  0
  1  7  1  0  0  0  0
  3  4  1  0  0  0  0
  3  5  1  0  0  0  0
  3  6  1  0  0  0  0
  7  8  1  0  0  0  0
  7 12  1  0  0  0  0
  8  9  1  0  0  0  0
  8 11  1  0  0  0  0
  8 13  1  0  0  0  0
  9 10  2  0  0  0  0
  9 17  1  0  0  0  0
 11 14  1  0  0  0  0
 11 15  1  0  0  0  0
 11 16  1  0  0  0  0
 17 18  1  0  0  0  0
 17 26  1  0  0  0  0
 18 19  1  0  0  0  0
 18 21  1  0  0  0  0
 18 27  1  0  0  0  0
 19 20  2  0  0  0  0
 19 32  1  0  0  0  0
 21 22  1  0  0  0  0
 21 28  1  0  0  0  0
 21 29  1  0  0  0  0
 22 23  1  0  0  0  0
 22 30  1  0  0  0  0
 22 31  1  0  0  0  0
 23 24  1  0  0  0  0
 23 25  2  0  0  0  0
 32 33  1  0  0  0  0
 32 37  1  0  0  0  0
 33 34  1  0  0  0  0
 33 36  1  0  0  0  0
 33 38  1  0  0  0  0
 34 35  2  0  0  0  0
 34 42  1  0  0  0  0
 36 39  1  0  0  0  0
 36 40  1  0  0  0  0
 36 41  1  0  0  0  0
 42 43  1  0  0  0  0
 42 44  1  0  0  0  0
 43 45  1  0  0  0  0
 43 46  1  0  0  0  0
 43 47  1  0  0  0  0
M  CHG  1  24  -1
M  END
$$$$

  -OEChem-05262216243D

 47 46  0     1  0  0  0  0  0999 V2000
    0.3378   -5.8158    1.6285 C   0  0  0  0  0  0  0  0  0  0  0  0
    1.4103   -5.8472    2.2123 O   0  0  0  0  0  0  0  0  0  0  0  0
   -0.6946   -6.8994    1.8790 C   0  0  0  0  0  0  0  0  0  0  0  0
   -0.9037   -7.4365    0.9507 H   0  0  0  0  0  0  0  0  0  0  0  0
   -0.3240   -7.6100    2.6229 H   0  0  0  0  0  0  0  0  0  0  0  0
   -1.6206   -6.4522    2.2492 H   0  0  0  0  0  0  0  0  0  0  0  0
    0.0565   -4.8064    0.7342 N   0  0  0  0  0  0  0  0  0  0  0  0
    0.8751   -3.6027    0.5419 C   0  0  2  0  0  0  0  0  0  0  0  0
    0.0252   -2.4501   -0.0347 C   0  0  0  0  0  0  0  0  0  0  0  0
   -1.1026   -2.6823   -0.4629 O   0  0  0  0  0  0  0  0  0  0  0  0
    2.0382   -3.9295   -0.4022 C   0  0  0  0  0  0  0  0  0  0  0  0
   -0.8928   -4.7615    0.3629 H   0  0  0  0  0  0  0  0  0  0  0  0
    1.2714   -3.2714    1.5081 H   0  0  0  0  0  0  0  0  0  0  0  0
    1.6598   -4.2587   -1.3751 H   0  0  0  0  0  0  0  0  0  0  0  0
    2.6690   -3.0484   -0.5539 H   0  0  0  0  0  0  0  0  0  0  0  0
    2.6591   -4.7262    0.0186 H   0  0  0  0  0  0  0  0  0  0  0  0
    0.5504   -1.1764   -0.1228 N   0  0  0  0  0  0  0  0  0  0  0  0
   -0.1727    0.0086   -0.6055 C   0  0  2  0  0  0  0  0  0  0  0  0
    0.5296    0.6100   -1.8376 C   0  0  0  0  0  0  0  0  0  0  0  0
    1.7537    0.6984   -1.8820 O   0  0  0  0  0  0  0  0  0  0  0  0
   -0.2338    1.0642    0.5101 C   0  0  0  0  0  0  0  0  0  0  0  0
   -1.1033    0.6090    1.6990 C   0  0  0  0  0  0  0  0  0  0  0  0
   -1.1626    1.6346    2.8379 C   0  0  0  0  0  0  0  0  0  0  0  0
   -1.8425    1.3170    3.8438 O   0  5  0  0  0  0  0  0  0  0  0  0
   -0.5405    2.7203    2.7122 O   0  0  0  0  0  0  0  0  0  0  0  0
    1.5046   -1.0370    0.1987 H   0  0  0  0  0  0  0  0  0  0  0  0
   -1.1958   -0.2532   -0.8931 H   0  0  0  0  0  0  0  0  0  0  0  0
   -0.6508    1.9943    0.1081 H   0  0  0  0  0  0  0  0  0  0  0  0
    0.7800    1.2852    0.8623 H   0  0  0  0  0  0  0  0  0  0  0  0
   -2.1217    0.4164    1.3495 H   0  0  0  0  0  0  0  0  0  0  0  0
   -0.7089   -0.3254    2.1073 H   0  0  0  0  0  0  0  0  0  0  0  0
   -0.2072    0.9965   -2.9411 N   0  0  0  0  0  0  0  0  0  0  0  0
    0.3552    1.6555   -4.1252 C   0  0  2  0  0  0  0  0  0  0  0  0
   -0.6574    2.6141   -4.7841 C   0  0  0  0  0  0  0  0  0  0  0  0
   -1.8618    2.4006   -4.6984 O   0  0  0  0  0  0  0  0  0  0  0  0
    0.7929    0.5771   -5.1204 C   0  0  0  0  0  0  0  0  0  0  0  0
   -1.2231    0.9570   -2.8647 H   0  0  0  0  0  0  0  0  0  0  0  0
    1.2268    2.2500   -3.8318 H   0  0  0  0  0  0  0  0  0  0  0  0
   -0.0639   -0.0335   -5.4229 H   0  0  0  0  0  0  0  0  0  0  0  0
    1.2293    1.0339   -6.0135 H   0  0  0  0  0  0  0  0  0  0  0  0
    1.5431   -0.0768   -4.6646 H   0  0  0  0  0  0  0  0  0  0  0  0
   -0.2129    3.7191   -5.4880 N   0  0  0  0  0  0  0  0  0  0  0  0
   -1.1123    4.7085   -6.0674 C   0  0  0  0  0  0  0  0  0  0  0  0
    0.7843    3.9118   -5.4706 H   0  0  0  0  0  0  0  0  0  0  0  0
   -1.7823    4.2380   -6.7947 H   0  0  0  0  0  0  0  0  0  0  0  0
   -1.7157    5.1808   -5.2851 H   0  0  0  0  0  0  0  0  0  0  0  0
   -0.5385    5.4866   -6.5798 H   0  0  0  0  0  0  0  0  0  0  0  0
  1  2  2  0  0  0  0
  1  3  1  0  0  0  0
  1  7  1  0  0  0  0
  3  4  1  0  0  0  0
  3  5  1  0  0  0  0
  3  6  1  0  0  0  0
  7  8  1  0  0  0  0
  7 12  1  0  0  0  0
  8  9  1  0  0  0  0
  8 11  1  0  0  0  0
  8 13  1  0  0  0  0
  9 10  2  0  0  0  0
  9 17  1  0  0  0  0
 11 14  1  0  0  0  0
 11 15  1  0  0  0  0
 11 16  1  0  0  0  0
 17 18  1  0  0  0  0
 17 26  1  0  0  0  0
 18 19  1  0  0  0  0
 18 21  1  0  0  0  0
 18 27  1  0  0  0  0
 19 20  2  0  0  0  0
 19 32  1  0  0  0  0
 21 22  1  0  0  0  0
 21 28  1  0  0  0  0
 21 29  1  0  0  0  0
 22 23  1  0  0  0  0
 22 30  1  0  0  0  0
 22 31  1  0  0  0  0
 23 24  1  0  0  0  0
 23 25  2  0  0  0  0
 32 33  1  0  0  0  0
 32 37  1  0  0  0  0
 33 34  1  0  0  0  0
 33 36  1  0  0  0  0
 33 38  1  0  0  0  0
 34 35  2  0  0  0  0
 34 42  1  0  0  0  0
 36 39  1  0  0  0  0
 36 40  1  0  0  0  0
 36 41  1  0  0  0  0
 42 43  1  0  0  0  0
 42 44  1  0  0  0  0
 43 45  1  0  0  0  0
 43 46  1  0  0  0  0
 43 47  1  0  0  0  0
M  CHG  1  24  -1
M  END
$$$$

  -OEChem-05262216243D

 47 46  0     1  0  0  0  0  0999 V2000
    0.3870   -5.8356    1.5676 C   0  0  0  0  0  0  0  0  0  0  0  0
    1.4883   -5.8810    2.0943 O   0  0  0  0  0  0  0  0  0  0  0  0
   -0.6278   -6.9321    1.8343 C   0  0  0  0  0  0  0  0  0  0  0  0
   -0.8719   -7.4479    0.9023 H   0  0  0  0  0  0  0  0  0  0  0  0
   -0.2223   -7.6578    2.5447 H   0  0  0  0  0  0  0  0  0  0  0  0
   -1.5404   -6.5009    2.2539 H   0  0  0  0  0  0  0  0  0  0  0  0
    0.0574   -4.8011    0.7194 N   0  0  0  0  0  0  0  0  0  0  0  0
    0.8656   -3.5927    0.5127 C   0  0  2  0  0  0  0  0  0  0  0  0
   -0.0144   -2.4224    0.0220 C   0  0  0  0  0  0  0  0  0  0  0  0
   -1.1697   -2.6406   -0.3336 O   0  0  0  0  0  0  0  0  0  0  0  0
    1.9674   -3.8960   -0.5097 C   0  0  0  0  0  0  0  0  0  0  0  0
   -0.9107   -4.7466    0.4019 H   0  0  0  0  0  0  0  0  0  0  0  0
    1.3216   -3.2898    1.4615 H   0  0  0  0  0  0  0  0  0  0  0  0
    1.5278   -4.1897   -1.4682 H   0  0  0  0  0  0  0  0  0  0  0  0
    2.5960   -3.0147   -0.6700 H   0  0  0  0  0  0  0  0  0  0  0  0
    2.6051   -4.7110   -0.1537 H   0  0  0  0  0  0  0  0  0  0  0  0
    0.5128   -1.1501   -0.0748 N   0  0  0  0  0  0  0  0  0  0  0  0
   -0.2063    0.0322   -0.5719 C   0  0  2  0  0  0  0  0  0  0  0  0
    0.4993    0.6265   -1.8065 C   0  0  0  0  0  0  0  0  0  0  0  0
    1.7117    0.4999   -1.9598 O   0  0  0  0  0  0  0  0  0  0  0  0
   -0.2640    1.1011    0.5312 C   0  0  0  0  0  0  0  0  0  0  0  0
   -1.1342    0.6692    1.7280 C   0  0  0  0  0  0  0  0  0  0  0  0
   -1.1846    1.7143    2.8498 C   0  0  0  0  0  0  0  0  0  0  0  0
   -1.8581    1.4158    3.8659 O   0  5  0  0  0  0  0  0  0  0  0  0
   -0.5637    2.7981    2.6992 O   0  0  0  0  0  0  0  0  0  0  0  0
    1.5022   -1.0361    0.1279 H   0  0  0  0  0  0  0  0  0  0  0  0
   -1.2285   -0.2298   -0.8624 H   0  0  0  0  0  0  0  0  0  0  0  0
   -0.6774    2.0279    0.1187 H   0  0  0  0  0  0  0  0  0  0  0  0
    0.7509    1.3229    0.8795 H   0  0  0  0  0  0  0  0  0  0  0  0
   -2.1544    0.4781    1.3835 H   0  0  0  0  0  0  0  0  0  0  0  0
   -0.7443   -0.2612    2.1499 H   0  0  0  0  0  0  0  0  0  0  0  0
   -0.2305    1.2846   -2.7783 N   0  0  0  0  0  0  0  0  0  0  0  0
    0.3586    1.9749   -3.9313 C   0  0  2  0  0  0  0  0  0  0  0  0
   -0.4942    3.1815   -4.3727 C   0  0  0  0  0  0  0  0  0  0  0  0
   -1.7152    3.1484   -4.2673 O   0  0  0  0  0  0  0  0  0  0  0  0
    0.4992    0.9735   -5.0811 C   0  0  0  0  0  0  0  0  0  0  0  0
   -1.2236    1.4327   -2.6004 H   0  0  0  0  0  0  0  0  0  0  0  0
    1.3499    2.3544   -3.6623 H   0  0  0  0  0  0  0  0  0  0  0  0
   -0.4811    0.5756   -5.3624 H   0  0  0  0  0  0  0  0  0  0  0  0
    0.9453    1.4560   -5.9560 H   0  0  0  0  0  0  0  0  0  0  0  0
    1.1410    0.1390   -4.7811 H   0  0  0  0  0  0  0  0  0  0  0  0
    0.1120    4.3075   -4.9006 N   0  0  0  0  0  0  0  0  0  0  0  0
   -0.6218    5.5197   -5.2417 C   0  0  0  0  0  0  0  0  0  0  0  0
    1.1272    4.3381   -4.8849 H   0  0  0  0  0  0  0  0  0  0  0  0
   -1.3795    5.3077   -6.0035 H   0  0  0  0  0  0  0  0  0  0  0  0
   -1.1174    5.9292   -4.3549 H   0  0  0  0  0  0  0  0  0  0  0  0
    0.0628    6.2764   -5.6369 H   0  0  0  0  0  0  0  0  0  0  0  0
  1  2  2  0  0  0  0
  1  3  1  0  0  0  0
  1  7  1  0  0  0  0
  3  4  1  0  0  0  0
  3  5  1  0  0  0  0
  3  6  1  0  0  0  0
  7  8  1  0  0  0  0
  7 12  1  0  0  0  0
  8  9  1  0  0  0  0
  8 11  1  0  0  0  0
  8 13  1  0  0  0  0
  9 10  2  0  0  0  0
  9 17  1  0  0  0  0
 11 14  1  0  0  0  0
 11 15  1  0  0  0  0
 11 16  1  0  0  0  0
 17 18  1  0  0  0  0
 17 26  1  0  0  0  0
 18 19  1  0  0  0  0
 18 21  1  0  0  0  0
 18 27  1  0  0  0  0
 19 20  2  0  0  0  0
 19 32  1  0  0  0  0
 21 22  1  0  0  0  0
 21 28  1  0  0  0  0
 21 29  1  0  0  0  0
 22 23  1  0  0  0  0
 22 30  1  0  0  0  0
 22 31  1  0  0  0  0
 23 24  1  0  0  0  0
 23 25  2  0  0  0  0
 32 33  1  0  0  0  0
 32 37  1  0  0  0  0
 33 34  1  0  0  0  0
 33 36  1  0  0  0  0
 33 38  1  0  0  0  0
 34 35  2  0  0  0  0
 34 42  1  0  0  0  0
 36 39  1  0  0  0  0
 36 40  1  0  0  0  0
 36 41  1  0  0  0  0
 42 43  1  0  0  0  0
 42 44  1  0  0  0  0
 43 45  1  0  0  0  0
 43 46  1  0  0  0  0
 43 47  1  0  0  0  0
M  CHG  1  24  -1
M  END
$$$$

  -OEChem-05262216243D

 47 46  0     1  0  0  0  0  0999 V2000
    0.4016   -5.8424    1.5084 C   0  0  0  0  0  0  0  0  0  0  0  0
    1.5234   -5.9052    1.9878 O   0  0  0  0  0  0  0  0  0  0  0  0
   -0.6099   -6.9360    1.7983 C   0  0  0  0  0  0  0  0  0  0  0  0
   -0.9020   -7.4287    0.8676 H   0  0  0  0  0  0  0  0  0  0  0  0
   -0.1792   -7.6806    2.4733 H   0  0  0  0  0  0  0  0  0  0  0  0
   -1.4976   -6.5068    2.2696 H   0  0  0  0  0  0  0  0  0  0  0  0
    0.0445   -4.7888    0.6958 N   0  0  0  0  0  0  0  0  0  0  0  0
    0.8520   -3.5820    0.4787 C   0  0  2  0  0  0  0  0  0  0  0  0
   -0.0395   -2.3962    0.0515 C   0  0  0  0  0  0  0  0  0  0  0  0
   -1.2100   -2.5996   -0.2607 O   0  0  0  0  0  0  0  0  0  0  0  0
    1.9056   -3.8697   -0.5978 C   0  0  0  0  0  0  0  0  0  0  0  0
   -0.9351   -4.7225    0.4184 H   0  0  0  0  0  0  0  0  0  0  0  0
    1.3512   -3.3015    1.4125 H   0  0  0  0  0  0  0  0  0  0  0  0
    1.4221   -4.1441   -1.5407 H   0  0  0  0  0  0  0  0  0  0  0  0
    2.5301   -2.9877   -0.7711 H   0  0  0  0  0  0  0  0  0  0  0  0
    2.5551   -4.6934   -0.2859 H   0  0  0  0  0  0  0  0  0  0  0  0
    0.4935   -1.1257   -0.0343 N   0  0  0  0  0  0  0  0  0  0  0  0
   -0.2220    0.0591   -0.5315 C   0  0  2  0  0  0  0  0  0  0  0  0
    0.4917    0.6607   -1.7599 C   0  0  0  0  0  0  0  0  0  0  0  0
    1.6505    0.3524   -2.0299 O   0  0  0  0  0  0  0  0  0  0  0  0
   -0.2739    1.1166    0.5837 C   0  0  0  0  0  0  0  0  0  0  0  0
   -1.1451    0.6782    1.7771 C   0  0  0  0  0  0  0  0  0  0  0  0
   -1.1855    1.7151    2.9067 C   0  0  0  0  0  0  0  0  0  0  0  0
   -1.9216    1.4506    3.8880 O   0  5  0  0  0  0  0  0  0  0  0  0
   -0.4940    2.7603    2.7959 O   0  0  0  0  0  0  0  0  0  0  0  0
    1.4970   -1.0334    0.0989 H   0  0  0  0  0  0  0  0  0  0  0  0
   -1.2440   -0.1961   -0.8290 H   0  0  0  0  0  0  0  0  0  0  0  0
   -0.6823    2.0516    0.1850 H   0  0  0  0  0  0  0  0  0  0  0  0
    0.7432    1.3264    0.9332 H   0  0  0  0  0  0  0  0  0  0  0  0
   -2.1668    0.4950    1.4320 H   0  0  0  0  0  0  0  0  0  0  0  0
   -0.7606   -0.2574    2.1917 H   0  0  0  0  0  0  0  0  0  0  0  0
   -0.1583    1.5747   -2.5677 N   0  0  0  0  0  0  0  0  0  0  0  0
    0.4743    2.3030   -3.6731 C   0  0  2  0  0  0  0  0  0  0  0  0
   -0.1913    3.6739   -3.9079 C   0  0  0  0  0  0  0  0  0  0  0  0
   -1.3964    3.8144   -3.7332 O   0  0  0  0  0  0  0  0  0  0  0  0
    0.3851    1.4465   -4.9394 C   0  0  0  0  0  0  0  0  0  0  0  0
   -1.0921    1.8716   -2.2843 H   0  0  0  0  0  0  0  0  0  0  0  0
    1.5274    2.4840   -3.4342 H   0  0  0  0  0  0  0  0  0  0  0  0
   -0.6611    1.2421   -5.1887 H   0  0  0  0  0  0  0  0  0  0  0  0
    0.8512    1.9628   -5.7839 H   0  0  0  0  0  0  0  0  0  0  0  0
    0.9004    0.4925   -4.7898 H   0  0  0  0  0  0  0  0  0  0  0  0
    0.5648    4.7524   -4.3308 N   0  0  0  0  0  0  0  0  0  0  0  0
    0.0192    6.0962   -4.4716 C   0  0  0  0  0  0  0  0  0  0  0  0
    1.5720    4.6268   -4.3661 H   0  0  0  0  0  0  0  0  0  0  0  0
   -0.8097    6.1008   -5.1870 H   0  0  0  0  0  0  0  0  0  0  0  0
   -0.3453    6.4637   -3.5065 H   0  0  0  0  0  0  0  0  0  0  0  0
    0.7911    6.7809   -4.8352 H   0  0  0  0  0  0  0  0  0  0  0  0
  1  2  2  0  0  0  0
  1  3  1  0  0  0  0
  1  7  1  0  0  0  0
  3  4  1  0  0  0  0
  3  5  1  0  0  0  0
  3  6  1  0  0  0  0
  7  8  1  0  0  0  0
  7 12  1  0  0  0  0
  8  9  1  0  0  0  0
  8 11  1  0  0  0  0
  8 13  1  0  0  0  0
  9 10  2  0  0  0  0
  9 17  1  0  0  0  0
 11 14  1  0  0  0  0
 11 15  1  0  0  0  0
 11 16  1  0  0  0  0
 17 18  1  0  0  0  0
 17 26  1  0  0  0  0
 18 19  1  0  0  0  0
 18 21  1  0  0  0  0
 18 27  1  0  0  0  0
 19 20  2  0  0  0  0
 19 32  1  0  0  0  0
 21 22  1  0  0  0  0
 21 28  1  0  0  0  0
 21 29  1  0  0  0  0
 22 23  1  0  0  0  0
 22 30  1  0  0  0  0
 22 31  1  0  0  0  0
 23 24  1  0  0  0  0
 23 25  2  0  0  0  0
 32 33  1  0  0  0  0
 32 37  1  0  0  0  0
 33 34  1  0  0  0  0
 33 36  1  0  0  0  0
 33 38  1  0  0  0  0
 34 35  2  0  0  0  0
 34 42  1  0  0  0  0
 36 39  1  0  0  0  0
 36 40  1  0  0  0  0
 36 41  1  0  0  0  0
 42 43  1  0  0  0  0
 42 44  1  0  0  0  0
 43 45  1  0  0  0  0
 43 46  1  0  0  0  0
 43 47  1  0  0  0  0
M  CHG  1  24  -1
M  END
$$$$

  -OEChem-05262216243D

 47 46  0     1  0  0  0  0  0999 V2000
    0.3621   -5.8230    1.4736 C   0  0  0  0  0  0  0  0  0  0  0  0
    1.4931   -5.9108    1.9260 O   0  0  0  0  0  0  0  0  0  0  0  0
   -0.6773   -6.8731    1.8201 C   0  0  0  0  0  0  0  0  0  0  0  0
   -1.0624   -7.3331    0.9069 H   0  0  0  0  0  0  0  0  0  0  0  0
   -0.2338   -7.6509    2.4477 H   0  0  0  0  0  0  0  0  0  0  0  0
   -1.5051   -6.4110    2.3637 H   0  0  0  0  0  0  0  0  0  0  0  0
    0.0154   -4.7734    0.6517 N   0  0  0  0  0  0  0  0  0  0  0  0
    0.8442   -3.5852    0.4128 C   0  0  2  0  0  0  0  0  0  0  0  0
   -0.0360   -2.3744    0.0345 C   0  0  0  0  0  0  0  0  0  0  0  0
   -1.2193   -2.5501   -0.2478 O   0  0  0  0  0  0  0  0  0  0  0  0
    1.8445   -3.8893   -0.7077 C   0  0  0  0  0  0  0  0  0  0  0  0
   -0.9684   -4.6840    0.3971 H   0  0  0  0  0  0  0  0  0  0  0  0
    1.3890   -3.3258    1.3272 H   0  0  0  0  0  0  0  0  0  0  0  0
    1.3165   -4.1420   -1.6327 H   0  0  0  0  0  0  0  0  0  0  0  0
    2.4829   -3.0212   -0.8978 H   0  0  0  0  0  0  0  0  0  0  0  0
    2.4845   -4.7321   -0.4288 H   0  0  0  0  0  0  0  0  0  0  0  0
    0.5068   -1.1058   -0.0034 N   0  0  0  0  0  0  0  0  0  0  0  0
   -0.2085    0.0923   -0.4710 C   0  0  2  0  0  0  0  0  0  0  0  0
    0.2679    0.5313   -1.8754 C   0  0  0  0  0  0  0  0  0  0  0  0
    1.1973   -0.0434   -2.4376 O   0  0  0  0  0  0  0  0  0  0  0  0
    0.0529    1.2156    0.5488 C   0  0  0  0  0  0  0  0  0  0  0  0
   -0.5941    0.9232    1.9116 C   0  0  0  0  0  0  0  0  0  0  0  0
   -0.2837    2.0535    2.8897 C   0  0  0  0  0  0  0  0  0  0  0  0
    0.8331    2.0279    3.4640 O   0  5  0  0  0  0  0  0  0  0  0  0
   -1.1314    2.9716    3.0083 O   0  0  0  0  0  0  0  0  0  0  0  0
    1.5109   -1.0285    0.1282 H   0  0  0  0  0  0  0  0  0  0  0  0
   -1.2867   -0.0897   -0.5257 H   0  0  0  0  0  0  0  0  0  0  0  0
   -0.3548    2.1612    0.1759 H   0  0  0  0  0  0  0  0  0  0  0  0
    1.1322    1.3523    0.6796 H   0  0  0  0  0  0  0  0  0  0  0  0
   -1.6777    0.8226    1.7981 H   0  0  0  0  0  0  0  0  0  0  0  0
   -0.2131   -0.0151    2.3247 H   0  0  0  0  0  0  0  0  0  0  0  0
   -0.2838    1.6384   -2.4950 N   0  0  0  0  0  0  0  0  0  0  0  0
    0.1970    2.2139   -3.7577 C   0  0  2  0  0  0  0  0  0  0  0  0
   -0.1532    3.7109   -3.8772 C   0  0  0  0  0  0  0  0  0  0  0  0
   -1.1727    4.1516   -3.3595 O   0  0  0  0  0  0  0  0  0  0  0  0
   -0.4172    1.4360   -4.9264 C   0  0  0  0  0  0  0  0  0  0  0  0
   -1.0025    2.1547   -1.9869 H   0  0  0  0  0  0  0  0  0  0  0  0
    1.2876    2.1267   -3.8010 H   0  0  0  0  0  0  0  0  0  0  0  0
   -1.5096    1.4980   -4.8953 H   0  0  0  0  0  0  0  0  0  0  0  0
   -0.0714    1.8442   -5.8806 H   0  0  0  0  0  0  0  0  0  0  0  0
   -0.1272    0.3818   -4.8767 H   0  0  0  0  0  0  0  0  0  0  0  0
    0.6740    4.5672   -4.5818 N   0  0  0  0  0  0  0  0  0  0  0  0
    0.4545    6.0066   -4.6485 C   0  0  0  0  0  0  0  0  0  0  0  0
    1.5507    4.1879   -4.9265 H   0  0  0  0  0  0  0  0  0  0  0  0
   -0.5268    6.2261   -5.0820 H   0  0  0  0  0  0  0  0  0  0  0  0
    0.5040    6.4474   -3.6472 H   0  0  0  0  0  0  0  0  0  0  0  0
    1.2197    6.4772   -5.2728 H   0  0  0  0  0  0  0  0  0  0  0  0
  1  2  2  0  0  0  0
  1  3  1  0  0  0  0
  1  7  1  0  0  0  0
  3  4  1  0  0  0  0
  3  5  1  0  0  0  0
  3  6  1  0  0  0  0
  7  8  1  0  0  0  0
  7 12  1  0  0  0  0
  8  9  1  0  0  0  0
  8 11  1  0  0  0  0
  8 13  1  0  0  0  0
  9 10  2  0  0  0  0
  9 17  1  0  0  0  0
 11 14  1  0  0  0  0
 11 15  1  0  0  0  0
 11 16  1  0  0  0  0
 17 18  1  0  0  0  0
 17 26  1  0  0  0  0
 18 19  1  0  0  0  0
 18 21  1  0  0  0  0
 18 27  1  0  0  0  0
 19 20  2  0  0  0  0
 19 32  1  0  0  0  0
 21 22  1  0  0  0  0
 21 28  1  0  0  0  0
 21 29  1  0  0  0  0
 22 23  1  0  0  0  0
 22 30  1  0  0  0  0
 22 31  1  0  0  0  0
 23 24  1  0  0  0  0
 23 25  2  0  0  0  0
 32 33  1  0  0  0  0
 32 37  1  0  0  0  0
 33 34  1  0  0  0  0
 33 36  1  0  0  0  0
 33 38  1  0  0  0  0
 34 35  2  0  0  0  0
 34 42  1  0  0  0  0
 36 39  1  0  0  0  0
 36 40  1  0  0  0  0
 36 41  1  0  0  0  0
 42 43  1  0  0  0  0
 42 44  1  0  0  0  0
 43 45  1  0  0  0  0
 43 46  1  0  0  0  0
 43 47  1  0  0  0  0
M  CHG  1  24  -1
M  END
$$$$

  -OEChem-05262216243D

 47 46  0     1  0  0  0  0  0999 V2000
    0.3691   -5.8176    1.4295 C   0  0  0  0  0  0  0  0  0  0  0  0
    1.5000   -5.9082    1.8817 O   0  0  0  0  0  0  0  0  0  0  0  0
   -0.6654   -6.8797    1.7537 C   0  0  0  0  0  0  0  0  0  0  0  0
   -1.0715   -7.2990    0.8301 H   0  0  0  0  0  0  0  0  0  0  0  0
   -0.2113   -7.6854    2.3373 H   0  0  0  0  0  0  0  0  0  0  0  0
   -1.4802   -6.4391    2.3339 H   0  0  0  0  0  0  0  0  0  0  0  0
    0.0180   -4.7547    0.6269 N   0  0  0  0  0  0  0  0  0  0  0  0
    0.8454   -3.5634    0.3996 C   0  0  2  0  0  0  0  0  0  0  0  0
   -0.0344   -2.3456    0.0444 C   0  0  0  0  0  0  0  0  0  0  0  0
   -1.2169   -2.5173   -0.2434 O   0  0  0  0  0  0  0  0  0  0  0  0
    1.8342   -3.8524   -0.7346 C   0  0  0  0  0  0  0  0  0  0  0  0
   -0.9649   -4.6665    0.3687 H   0  0  0  0  0  0  0  0  0  0  0  0
    1.3986   -3.3179    1.3126 H   0  0  0  0  0  0  0  0  0  0  0  0
    1.2964   -4.0976   -1.6560 H   0  0  0  0  0  0  0  0  0  0  0  0
    2.4672   -2.9800   -0.9235 H   0  0  0  0  0  0  0  0  0  0  0  0
    2.4797   -4.6958   -0.4710 H   0  0  0  0  0  0  0  0  0  0  0  0
    0.5088   -1.0760    0.0357 N   0  0  0  0  0  0  0  0  0  0  0  0
   -0.2012    0.1270   -0.4285 C   0  0  2  0  0  0  0  0  0  0  0  0
    0.3034    0.5846   -1.8197 C   0  0  0  0  0  0  0  0  0  0  0  0
    1.0618   -0.1219   -2.4795 O   0  0  0  0  0  0  0  0  0  0  0  0
    0.0361    1.2253    0.6264 C   0  0  0  0  0  0  0  0  0  0  0  0
   -0.6404    0.8994    1.9673 C   0  0  0  0  0  0  0  0  0  0  0  0
   -0.3521    2.0058    2.9788 C   0  0  0  0  0  0  0  0  0  0  0  0
    0.7773    2.0014    3.5287 O   0  5  0  0  0  0  0  0  0  0  0  0
   -1.2311    2.8851    3.1502 O   0  0  0  0  0  0  0  0  0  0  0  0
    1.5093   -1.0013    0.1905 H   0  0  0  0  0  0  0  0  0  0  0  0
   -1.2777   -0.0550   -0.5103 H   0  0  0  0  0  0  0  0  0  0  0  0
   -0.3666    2.1806    0.2744 H   0  0  0  0  0  0  0  0  0  0  0  0
    1.1122    1.3600    0.7834 H   0  0  0  0  0  0  0  0  0  0  0  0
   -1.7210    0.7995    1.8277 H   0  0  0  0  0  0  0  0  0  0  0  0
   -0.2662   -0.0478    2.3661 H   0  0  0  0  0  0  0  0  0  0  0  0
    0.0056    1.8430   -2.3128 N   0  0  0  0  0  0  0  0  0  0  0  0
    0.5313    2.3970   -3.5667 C   0  0  2  0  0  0  0  0  0  0  0  0
    0.5364    3.9389   -3.5604 C   0  0  0  0  0  0  0  0  0  0  0  0
   -0.3195    4.5594   -2.9413 O   0  0  0  0  0  0  0  0  0  0  0  0
   -0.3212    1.8811   -4.7306 C   0  0  0  0  0  0  0  0  0  0  0  0
   -0.5652    2.4565   -1.7306 H   0  0  0  0  0  0  0  0  0  0  0  0
    1.5657    2.0652   -3.7022 H   0  0  0  0  0  0  0  0  0  0  0  0
   -1.3622    2.1978   -4.6099 H   0  0  0  0  0  0  0  0  0  0  0  0
    0.0538    2.2693   -5.6823 H   0  0  0  0  0  0  0  0  0  0  0  0
   -0.2921    0.7876   -4.7692 H   0  0  0  0  0  0  0  0  0  0  0  0
    1.4979    4.6353   -4.2709 N   0  0  0  0  0  0  0  0  0  0  0  0
    1.6084    6.0882   -4.2443 C   0  0  0  0  0  0  0  0  0  0  0  0
    2.2337    4.0935   -4.7140 H   0  0  0  0  0  0  0  0  0  0  0  0
    0.6800    6.5500   -4.5966 H   0  0  0  0  0  0  0  0  0  0  0  0
    1.8121    6.4374   -3.2265 H   0  0  0  0  0  0  0  0  0  0  0  0
    2.4251    6.4167   -4.8937 H   0  0  0  0  0  0  0  0  0  0  0  0
  1  2  2  0  0  0  0
  1  3  1  0  0  0  0
  1  7  1  0  0  0  0
  3  4  1  0  0  0  0
  3  5  1  0  0  0  0
  3  6  1  0  0  0  0
  7  8  1  0  0  0  0
  7 12  1  0  0  0  0
  8  9  1  0  0  0  0
  8 11  1  0  0  0  0
  8 13  1  0  0  0  0
  9 10  2  0  0  0  0
  9 17  1  0  0  0  0
 11 14  1  0  0  0  0
 11 15  1  0  0  0  0
 11 16  1  0  0  0  0
 17 18  1  0  0  0  0
 17 26  1  0  0  0  0
 18 19  1  0  0  0  0
 18 21  1  0  0  0  0
 18 27  1  0  0  0  0
 19 20  2  0  0  0  0
 19 32  1  0  0  0  0
 21 22  1  0  0  0  0
 21 28  1  0  0  0  0
 21 29  1  0  0  0  0
 22 23  1  0  0  0  0
 22 30  1  0  0  0  0
 22 31  1  0  0  0  0
 23 24  1  0  0  0  0
 23 25  2  0  0  0  0
 32 33  1  0  0  0  0
 32 37  1  0  0  0  0
 33 34  1  0  0  0  0
 33 36  1  0  0  0  0
 33 38  1  0  0  0  0
 34 35  2  0  0  0  0
 34 42  1  0  0  0  0
 36 39  1  0  0  0  0
 36 40  1  0  0  0  0
 36 41  1  0  0  0  0
 42 43  1  0  0  0  0
 42 44  1  0  0  0  0
 43 45  1  0  0  0  0
 43 46  1  0  0  0  0
 43 47  1  0  0  0  0
M  CHG  1  24  -1
M  END
$$$$

  -OEChem-05262216243D

 47 46  0     1  0  0  0  0  0999 V2000
    0.3543   -5.8000    1.4217 C   0  0  0  0  0  0  0  0  0  0  0  0
    1.4721   -5.8877    1.9063 O   0  0  0  0  0  0  0  0  0  0  0  0
   -0.6914   -6.8556    1.7317 C   0  0  0  0  0  0  0  0  0  0  0  0
   -1.0858   -7.2758    0.8033 H   0  0  0  0  0  0  0  0  0  0  0  0
   -0.2505   -7.6618    2.3243 H   0  0  0  0  0  0  0  0  0  0  0  0
   -1.5124   -6.4094    2.2984 H   0  0  0  0  0  0  0  0  0  0  0  0
    0.0285   -4.7443    0.5989 N   0  0  0  0  0  0  0  0  0  0  0  0
    0.8613   -3.5532    0.3924 C   0  0  2  0  0  0  0  0  0  0  0  0
   -0.0095   -2.3367    0.0116 C   0  0  0  0  0  0  0  0  0  0  0  0
   -1.1826   -2.5104   -0.3112 O   0  0  0  0  0  0  0  0  0  0  0  0
    1.8832   -3.8433   -0.7120 C   0  0  0  0  0  0  0  0  0  0  0  0
   -0.9464   -4.6569    0.3114 H   0  0  0  0  0  0  0  0  0  0  0  0
    1.3874   -3.3063    1.3208 H   0  0  0  0  0  0  0  0  0  0  0  0
    1.3732   -4.0857   -1.6498 H   0  0  0  0  0  0  0  0  0  0  0  0
    2.5238   -2.9724   -0.8805 H   0  0  0  0  0  0  0  0  0  0  0  0
    2.5184   -4.6888   -0.4307 H   0  0  0  0  0  0  0  0  0  0  0  0
    0.5284   -1.0648    0.0386 N   0  0  0  0  0  0  0  0  0  0  0  0
   -0.1789    0.1463   -0.4089 C   0  0  2  0  0  0  0  0  0  0  0  0
    0.3524    0.6283   -1.7836 C   0  0  0  0  0  0  0  0  0  0  0  0
    0.8819   -0.1614   -2.5613 O   0  0  0  0  0  0  0  0  0  0  0  0
    0.0126    1.2138    0.6866 C   0  0  0  0  0  0  0  0  0  0  0  0
   -0.7041    0.8342    1.9918 C   0  0  0  0  0  0  0  0  0  0  0  0
   -0.4637    1.9080    3.0493 C   0  0  0  0  0  0  0  0  0  0  0  0
    0.6559    1.9116    3.6190 O   0  5  0  0  0  0  0  0  0  0  0  0
   -1.3698    2.7552    3.2391 O   0  0  0  0  0  0  0  0  0  0  0  0
    1.5108   -0.9809    0.2789 H   0  0  0  0  0  0  0  0  0  0  0  0
   -1.2512   -0.0415   -0.5234 H   0  0  0  0  0  0  0  0  0  0  0  0
   -0.3997    2.1722    0.3550 H   0  0  0  0  0  0  0  0  0  0  0  0
    1.0808    1.3614    0.8811 H   0  0  0  0  0  0  0  0  0  0  0  0
   -1.7781    0.7259    1.8122 H   0  0  0  0  0  0  0  0  0  0  0  0
   -0.3312   -0.1211    2.3712 H   0  0  0  0  0  0  0  0  0  0  0  0
    0.3421    1.9646   -2.1453 N   0  0  0  0  0  0  0  0  0  0  0  0
    0.9164    2.4990   -3.3866 C   0  0  2  0  0  0  0  0  0  0  0  0
    1.3131    3.9831   -3.2532 C   0  0  0  0  0  0  0  0  0  0  0  0
    0.7446    4.7091   -2.4467 O   0  0  0  0  0  0  0  0  0  0  0  0
   -0.1067    2.3292   -4.5138 C   0  0  0  0  0  0  0  0  0  0  0  0
   -0.0164    2.6377   -1.4672 H   0  0  0  0  0  0  0  0  0  0  0  0
    1.8238    1.9390   -3.6349 H   0  0  0  0  0  0  0  0  0  0  0  0
   -1.0220    2.8838   -4.2834 H   0  0  0  0  0  0  0  0  0  0  0  0
    0.2999    2.7017   -5.4586 H   0  0  0  0  0  0  0  0  0  0  0  0
   -0.3621    1.2725   -4.6411 H   0  0  0  0  0  0  0  0  0  0  0  0
    2.3090    4.5112   -4.0552 N   0  0  0  0  0  0  0  0  0  0  0  0
    2.7790    5.8857   -3.9402 C   0  0  0  0  0  0  0  0  0  0  0  0
    2.7998    3.8722   -4.6731 H   0  0  0  0  0  0  0  0  0  0  0  0
    1.9552    6.5877   -4.1066 H   0  0  0  0  0  0  0  0  0  0  0  0
    3.1989    6.0636   -2.9445 H   0  0  0  0  0  0  0  0  0  0  0  0
    3.5556    6.0826   -4.6851 H   0  0  0  0  0  0  0  0  0  0  0  0
  1  2  2  0  0  0  0
  1  3  1  0  0  0  0
  1  7  1  0  0  0  0
  3  4  1  0  0  0  0
  3  5  1  0  0  0  0
  3  6  1  0  0  0  0
  7  8  1  0  0  0  0
  7 12  1  0  0  0  0
  8  9  1  0  0  0  0
  8 11  1  0  0  0  0
  8 13  1  0  0  0  0
  9 10  2  0  0  0  0
  9 17  1  0  0  0  0
 11 14  1  0  0  0  0
 11 15  1  0  0  0  0
 11 16  1  0  0  0  0
 17 18  1  0  0  0  0
 17 26  1  0  0  0  0
 18 19  1  0  0  0  0
 18 21  1  0  0  0  0
 18 27  1  0  0  0  0
 19 20  2  0  0  0  0
 19 32  1  0  0  0  0
 21 22  1  0  0  0  0
 21 28  1  0  0  0  0
 21 29  1  0  0  0  0
 22 23  1  0  0  0  0
 22 30  1  0  0  0  0
 22 31  1  0  0  0  0
 23 24  1  0  0  0  0
 23 25  2  0  0  0  0
 32 33  1  0  0  0  0
 32 37  1  0  0  0  0
 33 34  1  0  0  0  0
 33 36  1  0  0  0  0
 33 38  1  0  0  0  0
 34 35  2  0  0  0  0
 34 42  1  0  0  0  0
 36 39  1  0  0  0  0
 36 40  1  0  0  0  0
 36 41  1  0  0  0  0
 42 43  1  0  0  0  0
 42 44  1  0  0  0  0
 43 45  1  0  0  0  0
 43 46  1  0  0  0  0
 43 47  1  0  0  0  0
M  CHG  1  24  -1
M  END
$$$$

  -OEChem-05262216243D

 47 46  0     1  0  0  0  0  0999 V2000
    0.3272   -5.7706    1.4722 C   0  0  0  0  0  0  0  0  0  0  0  0
    1.4264   -5.8473    1.9993 O   0  0  0  0  0  0  0  0  0  0  0  0
   -0.7390   -6.8036    1.7881 C   0  0  0  0  0  0  0  0  0  0  0  0
   -1.0500   -7.3103    0.8715 H   0  0  0  0  0  0  0  0  0  0  0  0
   -0.3496   -7.5471    2.4891 H   0  0  0  0  0  0  0  0  0  0  0  0
   -1.6072   -6.3160    2.2389 H   0  0  0  0  0  0  0  0  0  0  0  0
    0.0410   -4.7477    0.5950 N   0  0  0  0  0  0  0  0  0  0  0  0
    0.8818   -3.5615    0.3928 C   0  0  2  0  0  0  0  0  0  0  0  0
    0.0258   -2.3524   -0.0407 C   0  0  0  0  0  0  0  0  0  0  0  0
   -1.1319   -2.5340   -0.4102 O   0  0  0  0  0  0  0  0  0  0  0  0
    1.9390   -3.8724   -0.6715 C   0  0  0  0  0  0  0  0  0  0  0  0
   -0.9238   -4.6632    0.2742 H   0  0  0  0  0  0  0  0  0  0  0  0
    1.3773   -3.2970    1.3334 H   0  0  0  0  0  0  0  0  0  0  0  0
    1.4596   -4.1299   -1.6213 H   0  0  0  0  0  0  0  0  0  0  0  0
    2.5863   -3.0052   -0.8332 H   0  0  0  0  0  0  0  0  0  0  0  0
    2.5626   -4.7138   -0.3547 H   0  0  0  0  0  0  0  0  0  0  0  0
    0.5561   -1.0778    0.0103 N   0  0  0  0  0  0  0  0  0  0  0  0
   -0.1472    0.1373   -0.4317 C   0  0  2  0  0  0  0  0  0  0  0  0
    0.4049    0.6400   -1.7909 C   0  0  0  0  0  0  0  0  0  0  0  0
    0.6967   -0.1582   -2.6763 O   0  0  0  0  0  0  0  0  0  0  0  0
   -0.0001    1.1810    0.6924 C   0  0  0  0  0  0  0  0  0  0  0  0
   -0.7567    0.7595    1.9620 C   0  0  0  0  0  0  0  0  0  0  0  0
   -0.5645    1.8058    3.0552 C   0  0  0  0  0  0  0  0  0  0  0  0
    0.3934    1.6391    3.8498 O   0  5  0  0  0  0  0  0  0  0  0  0
   -1.3250    2.8044    3.0442 O   0  0  0  0  0  0  0  0  0  0  0  0
    1.5075   -0.9833    0.3505 H   0  0  0  0  0  0  0  0  0  0  0  0
   -1.2152   -0.0571   -0.5752 H   0  0  0  0  0  0  0  0  0  0  0  0
   -0.4138    2.1415    0.3669 H   0  0  0  0  0  0  0  0  0  0  0  0
    1.0590    1.3353    0.9274 H   0  0  0  0  0  0  0  0  0  0  0  0
   -1.8234    0.6511    1.7450 H   0  0  0  0  0  0  0  0  0  0  0  0
   -0.3918   -0.2054    2.3259 H   0  0  0  0  0  0  0  0  0  0  0  0
    0.6835    1.9761   -2.0249 N   0  0  0  0  0  0  0  0  0  0  0  0
    1.3177    2.4996   -3.2427 C   0  0  2  0  0  0  0  0  0  0  0  0
    2.1190    3.7911   -2.9794 C   0  0  0  0  0  0  0  0  0  0  0  0
    1.9151    4.4576   -1.9724 O   0  0  0  0  0  0  0  0  0  0  0  0
    0.2249    2.7579   -4.2846 C   0  0  0  0  0  0  0  0  0  0  0  0
    0.5472    2.6283   -1.2517 H   0  0  0  0  0  0  0  0  0  0  0  0
    2.0217    1.7588   -3.6350 H   0  0  0  0  0  0  0  0  0  0  0  0
   -0.4928    3.4943   -3.9089 H   0  0  0  0  0  0  0  0  0  0  0  0
    0.6609    3.1370   -5.2136 H   0  0  0  0  0  0  0  0  0  0  0  0
   -0.3123    1.8309   -4.5094 H   0  0  0  0  0  0  0  0  0  0  0  0
    3.0742    4.2158   -3.8862 N   0  0  0  0  0  0  0  0  0  0  0  0
    3.8703    5.4223   -3.6999 C   0  0  0  0  0  0  0  0  0  0  0  0
    3.2365    3.6369   -4.7044 H   0  0  0  0  0  0  0  0  0  0  0  0
    3.2229    6.3045   -3.6600 H   0  0  0  0  0  0  0  0  0  0  0  0
    4.4434    5.3627   -2.7686 H   0  0  0  0  0  0  0  0  0  0  0  0
    4.5718    5.5454   -4.5304 H   0  0  0  0  0  0  0  0  0  0  0  0
  1  2  2  0  0  0  0
  1  3  1  0  0  0  0
  1  7  1  0  0  0  0
  3  4  1  0  0  0  0
  3  5  1  0  0  0  0
  3  6  1  0  0  0  0
  7  8  1  0  0  0  0
  7 12  1  0  0  0  0
  8  9  1  0  0  0  0
  8 11  1  0  0  0  0
  8 13  1  0  0  0  0
  9 10  2  0  0  0  0
  9 17  1  0  0  0  0
 11 14  1  0  0  0  0
 11 15  1  0  0  0  0
 11 16  1  0  0  0  0
 17 18  1  0  0  0  0
 17 26  1  0  0  0  0
 18 19  1  0  0  0  0
 18 21  1  0  0  0  0
 18 27  1  0  0  0  0
 19 20  2  0  0  0  0
 19 32  1  0  0  0  0
 21 22  1  0  0  0  0
 21 28  1  0  0  0  0
 21 29  1  0  0  0  0
 22 23  1  0  0  0  0
 22 30  1  0  0  0  0
 22 31  1  0  0  0  0
 23 24  1  0  0  0  0
 23 25  2  0  0  0  0
 32 33  1  0  0  0  0
 32 37  1  0  0  0  0
 33 34  1  0  0  0  0
 33 36  1  0  0  0  0
 33 38  1  0  0  0  0
 34 35  2  0  0  0  0
 34 42  1  0  0  0  0
 36 39  1  0  0  0  0
 36 40  1  0  0  0  0
 36 41  1  0  0  0  0
 42 43  1  0  0  0  0
 42 44  1  0  0  0  0
 43 45  1  0  0  0  0
 43 46  1  0  0  0  0
 43 47  1  0  0  0  0
M  CHG  1  24  -1
M  END
$$$$

  -OEChem-05262216243D

 47 46  0     1  0  0  0  0  0999 V2000
    0.3889   -5.8317    1.3331 C   0  0  0  0  0  0  0  0  0  0  0  0
    1.4176   -5.8935    1.9891 O   0  0  0  0  0  0  0  0  0  0  0  0
   -0.6041   -6.9793    1.3696 C   0  0  0  0  0  0  0  0  0  0  0  0
   -0.7057   -7.4154    0.3728 H   0  0  0  0  0  0  0  0  0  0  0  0
   -0.2619   -7.7543    2.0611 H   0  0  0  0  0  0  0  0  0  0  0  0
   -1.5803   -6.6165    1.7017 H   0  0  0  0  0  0  0  0  0  0  0  0
    0.1222   -4.7298    0.5507 N   0  0  0  0  0  0  0  0  0  0  0  0
    0.8935   -3.4805    0.5641 C   0  0  2  0  0  0  0  0  0  0  0  0
    0.0212   -2.2934    0.0992 C   0  0  0  0  0  0  0  0  0  0  0  0
   -1.1208   -2.5049   -0.3005 O   0  0  0  0  0  0  0  0  0  0  0  0
    2.1138   -3.6387   -0.3510 C   0  0  0  0  0  0  0  0  0  0  0  0
   -0.8027   -4.6721    0.1233 H   0  0  0  0  0  0  0  0  0  0  0  0
    1.2276   -3.2653    1.5848 H   0  0  0  0  0  0  0  0  0  0  0  0
    1.7950   -3.8307   -1.3806 H   0  0  0  0  0  0  0  0  0  0  0  0
    2.7246   -2.7311   -0.3393 H   0  0  0  0  0  0  0  0  0  0  0  0
    2.7365   -4.4740   -0.0164 H   0  0  0  0  0  0  0  0  0  0  0  0
    0.5329   -1.0093    0.1203 N   0  0  0  0  0  0  0  0  0  0  0  0
   -0.1826    0.1836   -0.3589 C   0  0  2  0  0  0  0  0  0  0  0  0
    0.3797    0.6484   -1.7252 C   0  0  0  0  0  0  0  0  0  0  0  0
    0.4063   -0.1265   -2.6753 O   0  0  0  0  0  0  0  0  0  0  0  0
   -0.0715    1.2781    0.7197 C   0  0  0  0  0  0  0  0  0  0  0  0
   -0.8339    0.9097    2.0080 C   0  0  0  0  0  0  0  0  0  0  0  0
   -0.7165    1.9753    3.1039 C   0  0  0  0  0  0  0  0  0  0  0  0
   -1.2578    1.7143    4.2052 O   0  5  0  0  0  0  0  0  0  0  0  0
   -0.0892    3.0352    2.8499 O   0  0  0  0  0  0  0  0  0  0  0  0
    1.4676   -0.8882    0.4958 H   0  0  0  0  0  0  0  0  0  0  0  0
   -1.2453   -0.0339   -0.5089 H   0  0  0  0  0  0  0  0  0  0  0  0
   -0.4937    2.2135    0.3366 H   0  0  0  0  0  0  0  0  0  0  0  0
    0.9824    1.4598    0.9585 H   0  0  0  0  0  0  0  0  0  0  0  0
   -1.8926    0.7646    1.7750 H   0  0  0  0  0  0  0  0  0  0  0  0
   -0.4483   -0.0315    2.4095 H   0  0  0  0  0  0  0  0  0  0  0  0
    0.9320    1.9054   -1.9071 N   0  0  0  0  0  0  0  0  0  0  0  0
    1.5840    2.3611   -3.1433 C   0  0  2  0  0  0  0  0  0  0  0  0
    2.8232    3.2408   -2.8760 C   0  0  0  0  0  0  0  0  0  0  0  0
    3.0254    3.7230   -1.7686 O   0  0  0  0  0  0  0  0  0  0  0  0
    0.5460    3.1286   -3.9666 C   0  0  0  0  0  0  0  0  0  0  0  0
    1.0335    2.4941   -1.0790 H   0  0  0  0  0  0  0  0  0  0  0  0
    1.9307    1.4982   -3.7210 H   0  0  0  0  0  0  0  0  0  0  0  0
    0.1987    4.0093   -3.4169 H   0  0  0  0  0  0  0  0  0  0  0  0
    0.9744    3.4569   -4.9182 H   0  0  0  0  0  0  0  0  0  0  0  0
   -0.3156    2.4877   -4.1788 H   0  0  0  0  0  0  0  0  0  0  0  0
    3.7268    3.4917   -3.8938 N   0  0  0  0  0  0  0  0  0  0  0  0
    4.9238    4.3046   -3.7193 C   0  0  0  0  0  0  0  0  0  0  0  0
    3.5499    3.0581   -4.7947 H   0  0  0  0  0  0  0  0  0  0  0  0
    4.6569    5.3135   -3.3870 H   0  0  0  0  0  0  0  0  0  0  0  0
    5.5881    3.8525   -2.9753 H   0  0  0  0  0  0  0  0  0  0  0  0
    5.4667    4.3853   -4.6658 H   0  0  0  0  0  0  0  0  0  0  0  0
  1  2  2  0  0  0  0
  1  3  1  0  0  0  0
  1  7  1  0  0  0  0
  3  4  1  0  0  0  0
  3  5  1  0  0  0  0
  3  6  1  0  0  0  0
  7  8  1  0  0  0  0
  7 12  1  0  0  0  0
  8  9  1  0  0  0  0
  8 11  1  0  0  0  0
  8 13  1  0  0  0  0
  9 10  2  0  0  0  0
  9 17  1  0  0  0  0
 11 14  1  0  0  0  0
 11 15  1  0  0  0  0
 11 16  1  0  0  0  0
 17 18  1  0  0  0  0
 17 26  1  0  0  0  0
 18 19  1  0  0  0  0
 18 21  1  0  0  0  0
 18 27  1  0  0  0  0
 19 20  2  0  0  0  0
 19 32  1  0  0  0  0
 21 22  1  0  0  0  0
 21 28  1  0  0  0  0
 21 29  1  0  0  0  0
 22 23  1  0  0  0  0
 22 30  1  0  0  0  0
 22 31  1  0  0  0  0
 23 24  1  0  0  0  0
 23 25  2  0  0  0  0
 32 33  1  0  0  0  0
 32 37  1  0  0  0  0
 33 34  1  0  0  0  0
 33 36  1  0  0  0  0
 33 38  1  0  0  0  0
 34 35  2  0  0  0  0
 34 42  1  0  0  0  0
 36 39  1  0  0  0  0
 36 40  1  0  0  0  0
 36 41  1  0  0  0  0
 42 43  1  0  0  0  0
 42 44  1  0  0  0  0
 43 45  1  0  0  0  0
 43 46  1  0  0  0  0
 43 47  1  0  0  0  0
M  CHG  1  24  -1
M  END
$$$$

  -OEChem-05262216243D

 47 46  0     1  0  0  0  0  0999 V2000
    1.1933   -5.4368    1.0535 C   0  0  0  0  0  0  0  0  0  0  0  0
    2.1598   -5.3095    1.7897 O   0  0  0  0  0  0  0  0  0  0  0  0
    0.4269   -6.7462    1.0266 C   0  0  0  0  0  0  0  0  0  0  0  0
    0.4105   -7.1475    0.0104 H   0  0  0  0  0  0  0  0  0  0  0  0
    0.9030   -7.4766    1.6866 H   0  0  0  0  0  0  0  0  0  0  0  0
   -0.6001   -6.5835    1.3630 H   0  0  0  0  0  0  0  0  0  0  0  0
    0.7927   -4.3986    0.2412 N   0  0  0  0  0  0  0  0  0  0  0  0
    1.3357   -3.0359    0.2908 C   0  0  2  0  0  0  0  0  0  0  0  0
    0.3167   -2.0146   -0.2588 C   0  0  0  0  0  0  0  0  0  0  0  0
   -0.6790   -2.4139   -0.8549 O   0  0  0  0  0  0  0  0  0  0  0  0
    2.6293   -2.9843   -0.5312 C   0  0  0  0  0  0  0  0  0  0  0  0
   -0.0818   -4.5120   -0.2722 H   0  0  0  0  0  0  0  0  0  0  0  0
    1.5508   -2.7657    1.3302 H   0  0  0  0  0  0  0  0  0  0  0  0
    2.4257   -3.2373   -1.5766 H   0  0  0  0  0  0  0  0  0  0  0  0
    3.0691   -1.9830   -0.4946 H   0  0  0  0  0  0  0  0  0  0  0  0
    3.3617   -3.6953   -0.1367 H   0  0  0  0  0  0  0  0  0  0  0  0
    0.5457   -0.6609   -0.1001 N   0  0  0  0  0  0  0  0  0  0  0  0
   -0.3082    0.4037   -0.6505 C   0  0  2  0  0  0  0  0  0  0  0  0
    0.3684    1.0615   -1.8756 C   0  0  0  0  0  0  0  0  0  0  0  0
    0.5666    0.4168   -2.8995 O   0  0  0  0  0  0  0  0  0  0  0  0
   -0.5711    1.4362    0.4597 C   0  0  0  0  0  0  0  0  0  0  0  0
   -1.4280    0.8816    1.6120 C   0  0  0  0  0  0  0  0  0  0  0  0
   -1.6594    1.9160    2.7206 C   0  0  0  0  0  0  0  0  0  0  0  0
   -2.3442    1.5489    3.7046 O   0  5  0  0  0  0  0  0  0  0  0  0
   -1.1440    3.0574    2.5936 O   0  0  0  0  0  0  0  0  0  0  0  0
    1.3558   -0.3914    0.4490 H   0  0  0  0  0  0  0  0  0  0  0  0
   -1.2719    0.0031   -0.9832 H   0  0  0  0  0  0  0  0  0  0  0  0
   -1.0973    2.2977    0.0329 H   0  0  0  0  0  0  0  0  0  0  0  0
    0.3824    1.7920    0.8660 H   0  0  0  0  0  0  0  0  0  0  0  0
   -2.3984    0.5600    1.2229 H   0  0  0  0  0  0  0  0  0  0  0  0
   -0.9390    0.0094    2.0543 H   0  0  0  0  0  0  0  0  0  0  0  0
    0.9485    2.3168   -1.7897 N   0  0  0  0  0  0  0  0  0  0  0  0
    1.7620    2.9401   -2.8460 C   0  0  2  0  0  0  0  0  0  0  0  0
    3.2023    2.3675   -2.9111 C   0  0  0  0  0  0  0  0  0  0  0  0
    4.1902    3.0943   -2.9091 O   0  0  0  0  0  0  0  0  0  0  0  0
    1.7324    4.4538   -2.6000 C   0  0  0  0  0  0  0  0  0  0  0  0
    0.8370    2.8127   -0.9073 H   0  0  0  0  0  0  0  0  0  0  0  0
    1.2962    2.7500   -3.8188 H   0  0  0  0  0  0  0  0  0  0  0  0
    2.2042    4.6973   -1.6427 H   0  0  0  0  0  0  0  0  0  0  0  0
    2.2701    4.9790   -3.3955 H   0  0  0  0  0  0  0  0  0  0  0  0
    0.7003    4.8173   -2.5841 H   0  0  0  0  0  0  0  0  0  0  0  0
    3.3836    0.9999   -2.9899 N   0  0  0  0  0  0  0  0  0  0  0  0
    4.6795    0.3435   -3.0783 C   0  0  0  0  0  0  0  0  0  0  0  0
    2.5279    0.4398   -3.0498 H   0  0  0  0  0  0  0  0  0  0  0  0
    5.2066    0.6588   -3.9845 H   0  0  0  0  0  0  0  0  0  0  0  0
    5.2942    0.5909   -2.2066 H   0  0  0  0  0  0  0  0  0  0  0  0
    4.5489   -0.7424   -3.1123 H   0  0  0  0  0  0  0  0  0  0  0  0
  1  2  2  0  0  0  0
  1  3  1  0  0  0  0
  1  7  1  0  0  0  0
  3  4  1  0  0  0  0
  3  5  1  0  0  0  0
  3  6  1  0  0  0  0
  7  8  1  0  0  0  0
  7 12  1  0  0  0  0
  8  9  1  0  0  0  0
  8 11  1  0  0  0  0
  8 13  1  0  0  0  0
  9 10  2  0  0  0  0
  9 17  1  0  0  0  0
 11 14  1  0  0  0  0
 11 15  1  0  0  0  0
 11 16  1  0  0  0  0
 17 18  1  0  0  0  0
 17 26  1  0  0  0  0
 18 19  1  0  0  0  0
 18 21  1  0  0  0  0
 18 27  1  0  0  0  0
 19 20  2  0  0  0  0
 19 32  1  0  0  0  0
 21 22  1  0  0  0  0
 21 28  1  0  0  0  0
 21 29  1  0  0  0  0
 22 23  1  0  0  0  0
 22 30  1  0  0  0  0
 22 31  1  0  0  0  0
 23 24  1  0  0  0  0
 23 25  2  0  0  0  0
 32 33  1  0  0  0  0
 32 37  1  0  0  0  0
 33 34  1  0  0  0  0
 33 36  1  0  0  0  0
 33 38  1  0  0  0  0
 34 35  2  0  0  0  0
 34 42  1  0  0  0  0
 36 39  1  0  0  0  0
 36 40  1  0  0  0  0
 36 41  1  0  0  0  0
 42 43  1  0  0  0  0
 42 44  1  0  0  0  0
 43 45  1  0  0  0  0
 43 46  1  0  0  0  0
 43 47  1  0  0  0  0
M  CHG  1  24  -1
M  END
$$$$

  -OEChem-05262216243D

 47 46  0     1  0  0  0  0  0999 V2000
    0.2179   -5.7697    1.5512 C   0  0  0  0  0  0  0  0  0  0  0  0
    1.1790   -5.7968    2.3044 O   0  0  0  0  0  0  0  0  0  0  0  0
   -0.8371   -6.8581    1.6278 C   0  0  0  0  0  0  0  0  0  0  0  0
   -0.9158   -7.3693    0.6654 H   0  0  0  0  0  0  0  0  0  0  0  0
   -0.5709   -7.5897    2.3957 H   0  0  0  0  0  0  0  0  0  0  0  0
   -1.8061   -6.4196    1.8796 H   0  0  0  0  0  0  0  0  0  0  0  0
    0.0796   -4.7559    0.6288 N   0  0  0  0  0  0  0  0  0  0  0  0
    0.9046   -3.5423    0.5837 C   0  0  2  0  0  0  0  0  0  0  0  0
    0.1354   -2.3825   -0.0854 C   0  0  0  0  0  0  0  0  0  0  0  0
   -0.9217   -2.6180   -0.6630 O   0  0  0  0  0  0  0  0  0  0  0  0
    2.1943   -3.8428   -0.1878 C   0  0  0  0  0  0  0  0  0  0  0  0
   -0.7930   -4.7169    0.1014 H   0  0  0  0  0  0  0  0  0  0  0  0
    1.1545   -3.2302    1.6034 H   0  0  0  0  0  0  0  0  0  0  0  0
    1.9628   -4.1479   -1.2133 H   0  0  0  0  0  0  0  0  0  0  0  0
    2.8355   -2.9568   -0.2239 H   0  0  0  0  0  0  0  0  0  0  0  0
    2.7508   -4.6497    0.2990 H   0  0  0  0  0  0  0  0  0  0  0  0
    0.6294   -1.0931   -0.0197 N   0  0  0  0  0  0  0  0  0  0  0  0
   -0.0812    0.0963   -0.5171 C   0  0  2  0  0  0  0  0  0  0  0  0
    0.5223    0.6059   -1.8452 C   0  0  0  0  0  0  0  0  0  0  0  0
    0.1182    0.1843   -2.9221 O   0  0  0  0  0  0  0  0  0  0  0  0
   -0.0168    1.1790    0.5743 C   0  0  0  0  0  0  0  0  0  0  0  0
   -0.8179    0.7903    1.8247 C   0  0  0  0  0  0  0  0  0  0  0  0
   -0.6922    1.8910    2.8736 C   0  0  0  0  0  0  0  0  0  0  0  0
    0.3119    1.8468    3.6263 O   0  5  0  0  0  0  0  0  0  0  0  0
   -1.5425    2.8139    2.8621 O   0  0  0  0  0  0  0  0  0  0  0  0
    1.4289   -0.9436    0.5893 H   0  0  0  0  0  0  0  0  0  0  0  0
   -1.1356   -0.1321   -0.7077 H   0  0  0  0  0  0  0  0  0  0  0  0
   -0.4267    2.1162    0.1802 H   0  0  0  0  0  0  0  0  0  0  0  0
    1.0238    1.3656    0.8613 H   0  0  0  0  0  0  0  0  0  0  0  0
   -1.8714    0.6457    1.5674 H   0  0  0  0  0  0  0  0  0  0  0  0
   -0.4448   -0.1476    2.2457 H   0  0  0  0  0  0  0  0  0  0  0  0
    1.5454    1.5386   -1.8495 N   0  0  0  0  0  0  0  0  0  0  0  0
    2.2471    2.0113   -3.0495 C   0  0  2  0  0  0  0  0  0  0  0  0
    3.7744    2.0966   -2.8471 C   0  0  0  0  0  0  0  0  0  0  0  0
    4.2641    2.0525   -1.7242 O   0  0  0  0  0  0  0  0  0  0  0  0
    1.6717    3.3824   -3.4119 C   0  0  0  0  0  0  0  0  0  0  0  0
    1.9480    1.7852   -0.9464 H   0  0  0  0  0  0  0  0  0  0  0  0
    2.0753    1.3209   -3.8814 H   0  0  0  0  0  0  0  0  0  0  0  0
    1.8369    4.0943   -2.5968 H   0  0  0  0  0  0  0  0  0  0  0  0
    2.1453    3.7718   -4.3174 H   0  0  0  0  0  0  0  0  0  0  0  0
    0.5948    3.3037   -3.5921 H   0  0  0  0  0  0  0  0  0  0  0  0
    4.6106    2.2259   -3.9419 N   0  0  0  0  0  0  0  0  0  0  0  0
    6.0621    2.3014   -3.8382 C   0  0  0  0  0  0  0  0  0  0  0  0
    4.1789    2.2389   -4.8609 H   0  0  0  0  0  0  0  0  0  0  0  0
    6.3585    3.1641   -3.2324 H   0  0  0  0  0  0  0  0  0  0  0  0
    6.4604    1.3917   -3.3768 H   0  0  0  0  0  0  0  0  0  0  0  0
    6.5063    2.4092   -4.8321 H   0  0  0  0  0  0  0  0  0  0  0  0
  1  2  2  0  0  0  0
  1  3  1  0  0  0  0
  1  7  1  0  0  0  0
  3  4  1  0  0  0  0
  3  5  1  0  0  0  0
  3  6  1  0  0  0  0
  7  8  1  0  0  0  0
  7 12  1  0  0  0  0
  8  9  1  0  0  0  0
  8 11  1  0  0  0  0
  8 13  1  0  0  0  0
  9 10  2  0  0  0  0
  9 17  1  0  0  0  0
 11 14  1  0  0  0  0
 11 15  1  0  0  0  0
 11 16  1  0  0  0  0
 17 18  1  0  0  0  0
 17 26  1  0  0  0  0
 18 19  1  0  0  0  0
 18 21  1  0  0  0  0
 18 27  1  0  0  0  0
 19 20  2  0  0  0  0
 19 32  1  0  0  0  0
 21 22  1  0  0  0  0
 21 28  1  0  0  0  0
 21 29  1  0  0  0  0
 22 23  1  0  0  0  0
 22 30  1  0  0  0  0
 22 31  1  0  0  0  0
 23 24  1  0  0  0  0
 23 25  2  0  0  0  0
 32 33  1  0  0  0  0
 32 37  1  0  0  0  0
 33 34  1  0  0  0  0
 33 36  1  0  0  0  0
 33 38  1  0  0  0  0
 34 35  2  0  0  0  0
 34 42  1  0  0  0  0
 36 39  1  0  0  0  0
 36 40  1  0  0  0  0
 36 41  1  0  0  0  0
 42 43  1  0  0  0  0
 42 44  1  0  0  0  0
 43 45  1  0  0  0  0
 43 46  1  0  0  0  0
 43 47  1  0  0  0  0
M  CHG  1  24  -1
M  END
$$$$

  -OEChem-05262216243D

 47 46  0     1  0  0  0  0  0999 V2000
    0.1472   -5.7628    1.6019 C   0  0  0  0  0  0  0  0  0  0  0  0
    1.0830   -5.7850    2.3863 O   0  0  0  0  0  0  0  0  0  0  0  0
   -0.9193   -6.8407    1.6639 C   0  0  0  0  0  0  0  0  0  0  0  0
   -0.9871   -7.3542    0.7018 H   0  0  0  0  0  0  0  0  0  0  0  0
   -0.6732   -7.5721    2.4387 H   0  0  0  0  0  0  0  0  0  0  0  0
   -1.8875   -6.3912    1.8982 H   0  0  0  0  0  0  0  0  0  0  0  0
    0.0473   -4.7628    0.6595 N   0  0  0  0  0  0  0  0  0  0  0  0
    0.8851   -3.5578    0.6195 C   0  0  2  0  0  0  0  0  0  0  0  0
    0.1516   -2.4076   -0.1041 C   0  0  0  0  0  0  0  0  0  0  0  0
   -0.8743   -2.6484   -0.7329 O   0  0  0  0  0  0  0  0  0  0  0  0
    2.2001   -3.8839   -0.0978 C   0  0  0  0  0  0  0  0  0  0  0  0
   -0.8057   -4.7278    0.1008 H   0  0  0  0  0  0  0  0  0  0  0  0
    1.0993   -3.2264    1.6414 H   0  0  0  0  0  0  0  0  0  0  0  0
    2.0034   -4.2135   -1.1230 H   0  0  0  0  0  0  0  0  0  0  0  0
    2.8480   -3.0026   -0.1331 H   0  0  0  0  0  0  0  0  0  0  0  0
    2.7342   -4.6807    0.4290 H   0  0  0  0  0  0  0  0  0  0  0  0
    0.6507   -1.1206   -0.0435 N   0  0  0  0  0  0  0  0  0  0  0  0
   -0.0562    0.0668   -0.5518 C   0  0  2  0  0  0  0  0  0  0  0  0
    0.5536    0.5632   -1.8794 C   0  0  0  0  0  0  0  0  0  0  0  0
   -0.0211    0.3867   -2.9468 O   0  0  0  0  0  0  0  0  0  0  0  0
    0.0318    1.1619    0.5244 C   0  0  0  0  0  0  0  0  0  0  0  0
   -0.7578    0.7974    1.7909 C   0  0  0  0  0  0  0  0  0  0  0  0
   -0.6126    1.9062    2.8302 C   0  0  0  0  0  0  0  0  0  0  0  0
    0.5102    2.0187    3.3829 O   0  5  0  0  0  0  0  0  0  0  0  0
   -1.5933    2.6614    3.0342 O   0  0  0  0  0  0  0  0  0  0  0  0
    1.4081   -0.9653    0.6162 H   0  0  0  0  0  0  0  0  0  0  0  0
   -1.1135   -0.1545   -0.7356 H   0  0  0  0  0  0  0  0  0  0  0  0
   -0.3739    2.0969    0.1218 H   0  0  0  0  0  0  0  0  0  0  0  0
    1.0779    1.3445    0.7933 H   0  0  0  0  0  0  0  0  0  0  0  0
   -1.8148    0.6587    1.5446 H   0  0  0  0  0  0  0  0  0  0  0  0
   -0.3886   -0.1378    2.2204 H   0  0  0  0  0  0  0  0  0  0  0  0
    1.7609    1.2390   -1.8812 N   0  0  0  0  0  0  0  0  0  0  0  0
    2.4830    1.6649   -3.0856 C   0  0  2  0  0  0  0  0  0  0  0  0
    3.9996    1.3983   -2.9842 C   0  0  0  0  0  0  0  0  0  0  0  0
    4.5187    1.1182   -1.9090 O   0  0  0  0  0  0  0  0  0  0  0  0
    2.2067    3.1568   -3.2894 C   0  0  0  0  0  0  0  0  0  0  0  0
    2.2670    1.2751   -0.9978 H   0  0  0  0  0  0  0  0  0  0  0  0
    2.1189    1.1108   -3.9570 H   0  0  0  0  0  0  0  0  0  0  0  0
    2.5674    3.7341   -2.4318 H   0  0  0  0  0  0  0  0  0  0  0  0
    2.7061    3.5217   -4.1915 H   0  0  0  0  0  0  0  0  0  0  0  0
    1.1309    3.3286   -3.3964 H   0  0  0  0  0  0  0  0  0  0  0  0
    4.7924    1.4731   -4.1158 N   0  0  0  0  0  0  0  0  0  0  0  0
    6.2295    1.2336   -4.1046 C   0  0  0  0  0  0  0  0  0  0  0  0
    4.3330    1.6851   -4.9965 H   0  0  0  0  0  0  0  0  0  0  0  0
    6.7316    1.9494   -3.4451 H   0  0  0  0  0  0  0  0  0  0  0  0
    6.4462    0.2189   -3.7543 H   0  0  0  0  0  0  0  0  0  0  0  0
    6.6382    1.3460   -5.1133 H   0  0  0  0  0  0  0  0  0  0  0  0
  1  2  2  0  0  0  0
  1  3  1  0  0  0  0
  1  7  1  0  0  0  0
  3  4  1  0  0  0  0
  3  5  1  0  0  0  0
  3  6  1  0  0  0  0
  7  8  1  0  0  0  0
  7 12  1  0  0  0  0
  8  9  1  0  0  0  0
  8 11  1  0  0  0  0
  8 13  1  0  0  0  0
  9 10  2  0  0  0  0
  9 17  1  0  0  0  0
 11 14  1  0  0  0  0
 11 15  1  0  0  0  0
 11 16  1  0  0  0  0
 17 18  1  0  0  0  0
 17 26  1  0  0  0  0
 18 19  1  0  0  0  0
 18 21  1  0  0  0  0
 18 27  1  0  0  0  0
 19 20  2  0  0  0  0
 19 32  1  0  0  0  0
 21 22  1  0  0  0  0
 21 28  1  0  0  0  0
 21 29  1  0  0  0  0
 22 23  1  0  0  0  0
 22 30  1  0  0  0  0
 22 31  1  0  0  0  0
 23 24  1  0  0  0  0
 23 25  2  0  0  0  0
 32 33  1  0  0  0  0
 32 37  1  0  0  0  0
 33 34  1  0  0  0  0
 33 36  1  0  0  0  0
 33 38  1  0  0  0  0
 34 35  2  0  0  0  0
 34 42  1  0  0  0  0
 36 39  1  0  0  0  0
 36 40  1  0  0  0  0
 36 41  1  0  0  0  0
 42 43  1  0  0  0  0
 42 44  1  0  0  0  0
 43 45  1  0  0  0  0
 43 46  1  0  0  0  0
 43 47  1  0  0  0  0
M  CHG  1  24  -1
M  END
$$$$

  -OEChem-05262216243D

 47 46  0     1  0  0  0  0  0999 V2000
    0.0895   -5.7460    1.6616 C   0  0  0  0  0  0  0  0  0  0  0  0
    1.0033   -5.7506    2.4719 O   0  0  0  0  0  0  0  0  0  0  0  0
   -0.9771   -6.8243    1.7159 C   0  0  0  0  0  0  0  0  0  0  0  0
   -1.0496   -7.3264    0.7481 H   0  0  0  0  0  0  0  0  0  0  0  0
   -0.7264   -7.5657    2.4797 H   0  0  0  0  0  0  0  0  0  0  0  0
   -1.9446   -6.3786    1.9604 H   0  0  0  0  0  0  0  0  0  0  0  0
    0.0173   -4.7672    0.6945 N   0  0  0  0  0  0  0  0  0  0  0  0
    0.8726   -3.5749    0.6401 C   0  0  2  0  0  0  0  0  0  0  0  0
    0.1690   -2.4284   -0.1179 C   0  0  0  0  0  0  0  0  0  0  0  0
   -0.8314   -2.6717   -0.7854 O   0  0  0  0  0  0  0  0  0  0  0  0
    2.1908   -3.9392   -0.0524 C   0  0  0  0  0  0  0  0  0  0  0  0
   -0.8181   -4.7440    0.1092 H   0  0  0  0  0  0  0  0  0  0  0  0
    1.0791   -3.2250    1.6576 H   0  0  0  0  0  0  0  0  0  0  0  0
    2.0026   -4.2847   -1.0741 H   0  0  0  0  0  0  0  0  0  0  0  0
    2.8552   -3.0707   -0.0948 H   0  0  0  0  0  0  0  0  0  0  0  0
    2.7021   -4.7362    0.4966 H   0  0  0  0  0  0  0  0  0  0  0  0
    0.6728   -1.1429   -0.0582 N   0  0  0  0  0  0  0  0  0  0  0  0
   -0.0375    0.0421   -0.5695 C   0  0  2  0  0  0  0  0  0  0  0  0
    0.5710    0.5321   -1.8987 C   0  0  0  0  0  0  0  0  0  0  0  0
   -0.1090    0.6290   -2.9132 O   0  0  0  0  0  0  0  0  0  0  0  0
    0.0713    1.1489    0.4916 C   0  0  0  0  0  0  0  0  0  0  0  0
   -0.7007    0.7999    1.7744 C   0  0  0  0  0  0  0  0  0  0  0  0
   -0.5407    1.9158    2.8042 C   0  0  0  0  0  0  0  0  0  0  0  0
    0.5965    2.0472    3.3222 O   0  5  0  0  0  0  0  0  0  0  0  0
   -1.5301    2.6479    3.0466 O   0  0  0  0  0  0  0  0  0  0  0  0
    1.3924   -0.9825    0.6418 H   0  0  0  0  0  0  0  0  0  0  0  0
   -1.0977   -0.1760   -0.7424 H   0  0  0  0  0  0  0  0  0  0  0  0
   -0.3375    2.0805    0.0841 H   0  0  0  0  0  0  0  0  0  0  0  0
    1.1228    1.3319    0.7383 H   0  0  0  0  0  0  0  0  0  0  0  0
   -1.7613    0.6592    1.5445 H   0  0  0  0  0  0  0  0  0  0  0  0
   -0.3253   -0.1312    2.2074 H   0  0  0  0  0  0  0  0  0  0  0  0
    1.8970    0.9222   -1.9465 N   0  0  0  0  0  0  0  0  0  0  0  0
    2.6179    1.2817   -3.1723 C   0  0  2  0  0  0  0  0  0  0  0  0
    4.0455    0.6955   -3.1969 C   0  0  0  0  0  0  0  0  0  0  0  0
    4.5440    0.2128   -2.1850 O   0  0  0  0  0  0  0  0  0  0  0  0
    2.6551    2.8093   -3.2646 C   0  0  0  0  0  0  0  0  0  0  0  0
    2.4597    0.7215   -1.1219 H   0  0  0  0  0  0  0  0  0  0  0  0
    2.0920    0.8828   -4.0458 H   0  0  0  0  0  0  0  0  0  0  0  0
    3.1969    3.2312   -2.4119 H   0  0  0  0  0  0  0  0  0  0  0  0
    3.1506    3.1278   -4.1865 H   0  0  0  0  0  0  0  0  0  0  0  0
    1.6367    3.2111   -3.2633 H   0  0  0  0  0  0  0  0  0  0  0  0
    4.7801    0.7078   -4.3694 N   0  0  0  0  0  0  0  0  0  0  0  0
    6.1322    0.1747   -4.4744 C   0  0  0  0  0  0  0  0  0  0  0  0
    4.3360    1.0977   -5.1955 H   0  0  0  0  0  0  0  0  0  0  0  0
    6.8076    0.7110   -3.7998 H   0  0  0  0  0  0  0  0  0  0  0  0
    6.1459   -0.8892   -4.2158 H   0  0  0  0  0  0  0  0  0  0  0  0
    6.5037    0.2868   -5.4974 H   0  0  0  0  0  0  0  0  0  0  0  0
  1  2  2  0  0  0  0
  1  3  1  0  0  0  0
  1  7  1  0  0  0  0
  3  4  1  0  0  0  0
  3  5  1  0  0  0  0
  3  6  1  0  0  0  0
  7  8  1  0  0  0  0
  7 12  1  0  0  0  0
  8  9  1  0  0  0  0
  8 11  1  0  0  0  0
  8 13  1  0  0  0  0
  9 10  2  0  0  0  0
  9 17  1  0  0  0  0
 11 14  1  0  0  0  0
 11 15  1  0  0  0  0
 11 16  1  0  0  0  0
 17 18  1  0  0  0  0
 17 26  1  0  0  0  0
 18 19  1  0  0  0  0
 18 21  1  0  0  0  0
 18 27  1  0  0  0  0
 19 20  2  0  0  0  0
 19 32  1  0  0  0  0
 21 22  1  0  0  0  0
 21 28  1  0  0  0  0
 21 29  1  0  0  0  0
 22 23  1  0  0  0  0
 22 30  1  0  0  0  0
 22 31  1  0  0  0  0
 23 24  1  0  0  0  0
 23 25  2  0  0  0  0
 32 33  1  0  0  0  0
 32 37  1  0  0  0  0
 33 34  1  0  0  0  0
 33 36  1  0  0  0  0
 33 38  1  0  0  0  0
 34 35  2  0  0  0  0
 34 42  1  0  0  0  0
 36 39  1  0  0  0  0
 36 40  1  0  0  0  0
 36 41  1  0  0  0  0
 42 43  1  0  0  0  0
 42 44  1  0  0  0  0
 43 45  1  0  0  0  0
 43 46  1  0  0  0  0
 43 47  1  0  0  0  0
M  CHG  1  24  -1
M  END
$$$$

  -OEChem-05262216243D

 47 46  0     1  0  0  0  0  0999 V2000
    0.0617   -5.7330    1.6972 C   0  0  0  0  0  0  0  0  0  0  0  0
    0.9580   -5.7281    2.5265 O   0  0  0  0  0  0  0  0  0  0  0  0
   -1.0109   -6.8056    1.7464 C   0  0  0  0  0  0  0  0  0  0  0  0
   -1.0580   -7.3308    0.7894 H   0  0  0  0  0  0  0  0  0  0  0  0
   -0.7863   -7.5290    2.5350 H   0  0  0  0  0  0  0  0  0  0  0  0
   -1.9829   -6.3503    1.9523 H   0  0  0  0  0  0  0  0  0  0  0  0
    0.0139   -4.7697    0.7132 N   0  0  0  0  0  0  0  0  0  0  0  0
    0.8732   -3.5807    0.6590 C   0  0  2  0  0  0  0  0  0  0  0  0
    0.1811   -2.4407   -0.1182 C   0  0  0  0  0  0  0  0  0  0  0  0
   -0.8003   -2.6887   -0.8122 O   0  0  0  0  0  0  0  0  0  0  0  0
    2.1990   -3.9536   -0.0147 C   0  0  0  0  0  0  0  0  0  0  0  0
   -0.8083   -4.7536    0.1095 H   0  0  0  0  0  0  0  0  0  0  0  0
    1.0688   -3.2206    1.6751 H   0  0  0  0  0  0  0  0  0  0  0  0
    2.0219   -4.3140   -1.0330 H   0  0  0  0  0  0  0  0  0  0  0  0
    2.8640   -3.0858   -0.0641 H   0  0  0  0  0  0  0  0  0  0  0  0
    2.7054   -4.7417    0.5509 H   0  0  0  0  0  0  0  0  0  0  0  0
    0.6871   -1.1563   -0.0633 N   0  0  0  0  0  0  0  0  0  0  0  0
   -0.0289    0.0238   -0.5790 C   0  0  2  0  0  0  0  0  0  0  0  0
    0.5742    0.5069   -1.9123 C   0  0  0  0  0  0  0  0  0  0  0  0
   -0.1381    0.8610   -2.8439 O   0  0  0  0  0  0  0  0  0  0  0  0
    0.1005    1.1360    0.4722 C   0  0  0  0  0  0  0  0  0  0  0  0
   -0.6538    0.7962    1.7686 C   0  0  0  0  0  0  0  0  0  0  0  0
   -0.4746    1.9162    2.7903 C   0  0  0  0  0  0  0  0  0  0  0  0
    0.6737    2.0510    3.2821 O   0  5  0  0  0  0  0  0  0  0  0  0
   -1.4619    2.6414    3.0598 O   0  0  0  0  0  0  0  0  0  0  0  0
    1.3714   -0.9887    0.6704 H   0  0  0  0  0  0  0  0  0  0  0  0
   -1.0909   -0.1922   -0.7405 H   0  0  0  0  0  0  0  0  0  0  0  0
   -0.3122    2.0658    0.0646 H   0  0  0  0  0  0  0  0  0  0  0  0
    1.1573    1.3174    0.6989 H   0  0  0  0  0  0  0  0  0  0  0  0
   -1.7180    0.6593    1.5538 H   0  0  0  0  0  0  0  0  0  0  0  0
   -0.2773   -0.1345    2.2014 H   0  0  0  0  0  0  0  0  0  0  0  0
    1.9470    0.6009   -2.0456 N   0  0  0  0  0  0  0  0  0  0  0  0
    2.6440    0.8901   -3.3027 C   0  0  2  0  0  0  0  0  0  0  0  0
    3.9108    0.0228   -3.4662 C   0  0  0  0  0  0  0  0  0  0  0  0
    4.3560   -0.6215   -2.5211 O   0  0  0  0  0  0  0  0  0  0  0  0
    2.9969    2.3798   -3.3137 C   0  0  0  0  0  0  0  0  0  0  0  0
    2.4965    0.1662   -1.3071 H   0  0  0  0  0  0  0  0  0  0  0  0
    1.9889    0.6698   -4.1521 H   0  0  0  0  0  0  0  0  0  0  0  0
    3.6625    2.6208   -2.4787 H   0  0  0  0  0  0  0  0  0  0  0  0
    3.4953    2.6517   -4.2487 H   0  0  0  0  0  0  0  0  0  0  0  0
    2.0880    2.9827   -3.2191 H   0  0  0  0  0  0  0  0  0  0  0  0
    4.5558   -0.0423   -4.6886 N   0  0  0  0  0  0  0  0  0  0  0  0
    5.7479   -0.8463   -4.9251 C   0  0  0  0  0  0  0  0  0  0  0  0
    4.1499    0.4791   -5.4600 H   0  0  0  0  0  0  0  0  0  0  0  0
    6.5612   -0.5282   -4.2644 H   0  0  0  0  0  0  0  0  0  0  0  0
    5.5383   -1.9054   -4.7423 H   0  0  0  0  0  0  0  0  0  0  0  0
    6.0799   -0.7330   -5.9614 H   0  0  0  0  0  0  0  0  0  0  0  0
  1  2  2  0  0  0  0
  1  3  1  0  0  0  0
  1  7  1  0  0  0  0
  3  4  1  0  0  0  0
  3  5  1  0  0  0  0
  3  6  1  0  0  0  0
  7  8  1  0  0  0  0
  7 12  1  0  0  0  0
  8  9  1  0  0  0  0
  8 11  1  0  0  0  0
  8 13  1  0  0  0  0
  9 10  2  0  0  0  0
  9 17  1  0  0  0  0
 11 14  1  0  0  0  0
 11 15  1  0  0  0  0
 11 16  1  0  0  0  0
 17 18  1  0  0  0  0
 17 26  1  0  0  0  0
 18 19  1  0  0  0  0
 18 21  1  0  0  0  0
 18 27  1  0  0  0  0
 19 20  2  0  0  0  0
 19 32  1  0  0  0  0
 21 22  1  0  0  0  0
 21 28  1  0  0  0  0
 21 29  1  0  0  0  0
 22 23  1  0  0  0  0
 22 30  1  0  0  0  0
 22 31  1  0  0  0  0
 23 24  1  0  0  0  0
 23 25  2  0  0  0  0
 32 33  1  0  0  0  0
 32 37  1  0  0  0  0
 33 34  1  0  0  0  0
 33 36  1  0  0  0  0
 33 38  1  0  0  0  0
 34 35  2  0  0  0  0
 34 42  1  0  0  0  0
 36 39  1  0  0  0  0
 36 40  1  0  0  0  0
 36 41  1  0  0  0  0
 42 43  1  0  0  0  0
 42 44  1  0  0  0  0
 43 45  1  0  0  0  0
 43 46  1  0  0  0  0
 43 47  1  0  0  0  0
M  CHG  1  24  -1
M  END
$$$$

  -OEChem-05262216243D

 47 46  0     1  0  0  0  0  0999 V2000
    0.0234   -5.7397    1.7416 C   0  0  0  0  0  0  0  0  0  0  0  0
    0.9126   -5.7369    2.5785 O   0  0  0  0  0  0  0  0  0  0  0  0
   -1.0520   -6.8094    1.7830 C   0  0  0  0  0  0  0  0  0  0  0  0
   -1.0859   -7.3414    0.8290 H   0  0  0  0  0  0  0  0  0  0  0  0
   -0.8403   -7.5273    2.5806 H   0  0  0  0  0  0  0  0  0  0  0  0
   -2.0256   -6.3496    1.9708 H   0  0  0  0  0  0  0  0  0  0  0  0
   -0.0155   -4.7765    0.7572 N   0  0  0  0  0  0  0  0  0  0  0  0
    0.8539   -3.5951    0.7010 C   0  0  2  0  0  0  0  0  0  0  0  0
    0.1824   -2.4569   -0.0967 C   0  0  0  0  0  0  0  0  0  0  0  0
   -0.7900   -2.7026   -0.8039 O   0  0  0  0  0  0  0  0  0  0  0  0
    2.1834   -3.9862    0.0455 C   0  0  0  0  0  0  0  0  0  0  0  0
   -0.8306   -4.7622    0.1443 H   0  0  0  0  0  0  0  0  0  0  0  0
    1.0403   -3.2280    1.7162 H   0  0  0  0  0  0  0  0  0  0  0  0
    2.0138   -4.3520   -0.9722 H   0  0  0  0  0  0  0  0  0  0  0  0
    2.8573   -3.1252   -0.0029 H   0  0  0  0  0  0  0  0  0  0  0  0
    2.6756   -4.7753    0.6224 H   0  0  0  0  0  0  0  0  0  0  0  0
    0.7024   -1.1773   -0.0567 N   0  0  0  0  0  0  0  0  0  0  0  0
   -0.0060    0.0040   -0.5844 C   0  0  2  0  0  0  0  0  0  0  0  0
    0.5921    0.4715   -1.9260 C   0  0  0  0  0  0  0  0  0  0  0  0
   -0.0858    1.0701   -2.7525 O   0  0  0  0  0  0  0  0  0  0  0  0
    0.1395    1.1239    0.4567 C   0  0  0  0  0  0  0  0  0  0  0  0
   -0.6137    0.7988    1.7582 C   0  0  0  0  0  0  0  0  0  0  0  0
   -0.4262    1.9190    2.7788 C   0  0  0  0  0  0  0  0  0  0  0  0
    0.7323    2.0723    3.2411 O   0  5  0  0  0  0  0  0  0  0  0  0
   -1.4223    2.6155    3.0896 O   0  0  0  0  0  0  0  0  0  0  0  0
    1.3757   -1.0046    0.6864 H   0  0  0  0  0  0  0  0  0  0  0  0
   -1.0703   -0.2047   -0.7399 H   0  0  0  0  0  0  0  0  0  0  0  0
   -0.2651    2.0557    0.0448 H   0  0  0  0  0  0  0  0  0  0  0  0
    1.1991    1.2959    0.6760 H   0  0  0  0  0  0  0  0  0  0  0  0
   -1.6793    0.6693    1.5456 H   0  0  0  0  0  0  0  0  0  0  0  0
   -0.2436   -0.1327    2.1948 H   0  0  0  0  0  0  0  0  0  0  0  0
    1.9343    0.2660   -2.1846 N   0  0  0  0  0  0  0  0  0  0  0  0
    2.5793    0.5093   -3.4782 C   0  0  2  0  0  0  0  0  0  0  0  0
    3.6413   -0.5643   -3.7971 C   0  0  0  0  0  0  0  0  0  0  0  0
    4.0403   -1.3308   -2.9252 O   0  0  0  0  0  0  0  0  0  0  0  0
    3.2096    1.9041   -3.4416 C   0  0  0  0  0  0  0  0  0  0  0  0
    2.4153   -0.3624   -1.5438 H   0  0  0  0  0  0  0  0  0  0  0  0
    1.8314    0.4734   -4.2774 H   0  0  0  0  0  0  0  0  0  0  0  0
    3.9706    1.9595   -2.6565 H   0  0  0  0  0  0  0  0  0  0  0  0
    3.6780    2.1406   -4.4014 H   0  0  0  0  0  0  0  0  0  0  0  0
    2.4430    2.6586   -3.2372 H   0  0  0  0  0  0  0  0  0  0  0  0
    4.1506   -0.6765   -5.0783 N   0  0  0  0  0  0  0  0  0  0  0  0
    5.1380   -1.6762   -5.4641 C   0  0  0  0  0  0  0  0  0  0  0  0
    3.7803   -0.0478   -5.7849 H   0  0  0  0  0  0  0  0  0  0  0  0
    6.0483   -1.5650   -4.8656 H   0  0  0  0  0  0  0  0  0  0  0  0
    4.7399   -2.6856   -5.3169 H   0  0  0  0  0  0  0  0  0  0  0  0
    5.4019   -1.5583   -6.5192 H   0  0  0  0  0  0  0  0  0  0  0  0
  1  2  2  0  0  0  0
  1  3  1  0  0  0  0
  1  7  1  0  0  0  0
  3  4  1  0  0  0  0
  3  5  1  0  0  0  0
  3  6  1  0  0  0  0
  7  8  1  0  0  0  0
  7 12  1  0  0  0  0
  8  9  1  0  0  0  0
  8 11  1  0  0  0  0
  8 13  1  0  0  0  0
  9 10  2  0  0  0  0
  9 17  1  0  0  0  0
 11 14  1  0  0  0  0
 11 15  1  0  0  0  0
 11 16  1  0  0  0  0
 17 18  1  0  0  0  0
 17 26  1  0  0  0  0
 18 19  1  0  0  0  0
 18 21  1  0  0  0  0
 18 27  1  0  0  0  0
 19 20  2  0  0  0  0
 19 32  1  0  0  0  0
 21 22  1  0  0  0  0
 21 28  1  0  0  0  0
 21 29  1  0  0  0  0
 22 23  1  0  0  0  0
 22 30  1  0  0  0  0
 22 31  1  0  0  0  0
 23 24  1  0  0  0  0
 23 25  2  0  0  0  0
 32 33  1  0  0  0  0
 32 37  1  0  0  0  0
 33 34  1  0  0  0  0
 33 36  1  0  0  0  0
 33 38  1  0  0  0  0
 34 35  2  0  0  0  0
 34 42  1  0  0  0  0
 36 39  1  0  0  0  0
 36 40  1  0  0  0  0
 36 41  1  0  0  0  0
 42 43  1  0  0  0  0
 42 44  1  0  0  0  0
 43 45  1  0  0  0  0
 43 46  1  0  0  0  0
 43 47  1  0  0  0  0
M  CHG  1  24  -1
M  END
$$$$

  -OEChem-05262216243D

 47 46  0     1  0  0  0  0  0999 V2000
   -0.0258   -5.7423    1.7978 C   0  0  0  0  0  0  0  0  0  0  0  0
    0.8642   -5.7377    2.6337 O   0  0  0  0  0  0  0  0  0  0  0  0
   -1.1174   -6.7950    1.8593 C   0  0  0  0  0  0  0  0  0  0  0  0
   -1.1635   -7.3422    0.9146 H   0  0  0  0  0  0  0  0  0  0  0  0
   -0.9139   -7.5029    2.6676 H   0  0  0  0  0  0  0  0  0  0  0  0
   -2.0834   -6.3185    2.0437 H   0  0  0  0  0  0  0  0  0  0  0  0
   -0.0513   -4.7937    0.7988 N   0  0  0  0  0  0  0  0  0  0  0  0
    0.8287   -3.6204    0.7325 C   0  0  2  0  0  0  0  0  0  0  0  0
    0.1697   -2.4855   -0.0799 C   0  0  0  0  0  0  0  0  0  0  0  0
   -0.8065   -2.7281   -0.7833 O   0  0  0  0  0  0  0  0  0  0  0  0
    2.1588   -4.0276    0.0879 C   0  0  0  0  0  0  0  0  0  0  0  0
   -0.8660   -4.7774    0.1855 H   0  0  0  0  0  0  0  0  0  0  0  0
    1.0137   -3.2433    1.7444 H   0  0  0  0  0  0  0  0  0  0  0  0
    1.9928   -4.4020   -0.9272 H   0  0  0  0  0  0  0  0  0  0  0  0
    2.8390   -3.1720    0.0352 H   0  0  0  0  0  0  0  0  0  0  0  0
    2.6422   -4.8141    0.6755 H   0  0  0  0  0  0  0  0  0  0  0  0
    0.7075   -1.2128   -0.0649 N   0  0  0  0  0  0  0  0  0  0  0  0
    0.0009   -0.0326   -0.5970 C   0  0  2  0  0  0  0  0  0  0  0  0
    0.5764    0.4139   -1.9567 C   0  0  0  0  0  0  0  0  0  0  0  0
   -0.0201    1.2090   -2.6728 O   0  0  0  0  0  0  0  0  0  0  0  0
    0.1826    1.0936    0.4327 C   0  0  0  0  0  0  0  0  0  0  0  0
   -0.5483    0.7879    1.7526 C   0  0  0  0  0  0  0  0  0  0  0  0
   -0.3278    1.9109    2.7636 C   0  0  0  0  0  0  0  0  0  0  0  0
    0.8482    2.0775    3.1744 O   0  5  0  0  0  0  0  0  0  0  0  0
   -1.3190    2.5885    3.1275 O   0  0  0  0  0  0  0  0  0  0  0  0
    1.3890   -1.0347    0.6697 H   0  0  0  0  0  0  0  0  0  0  0  0
   -1.0686   -0.2303   -0.7287 H   0  0  0  0  0  0  0  0  0  0  0  0
   -0.2193    2.0272    0.0230 H   0  0  0  0  0  0  0  0  0  0  0  0
    1.2489    1.2554    0.6265 H   0  0  0  0  0  0  0  0  0  0  0  0
   -1.6194    0.6691    1.5620 H   0  0  0  0  0  0  0  0  0  0  0  0
   -0.1796   -0.1443    2.1885 H   0  0  0  0  0  0  0  0  0  0  0  0
    1.8035   -0.0662   -2.3728 N   0  0  0  0  0  0  0  0  0  0  0  0
    2.3910    0.1670   -3.6945 C   0  0  2  0  0  0  0  0  0  0  0  0
    3.2392   -1.0352   -4.1600 C   0  0  0  0  0  0  0  0  0  0  0  0
    3.5940   -1.8988   -3.3631 O   0  0  0  0  0  0  0  0  0  0  0  0
    3.2452    1.4363   -3.6240 C   0  0  0  0  0  0  0  0  0  0  0  0
    2.1915   -0.8290   -1.8205 H   0  0  0  0  0  0  0  0  0  0  0  0
    1.5930    0.3086   -4.4307 H   0  0  0  0  0  0  0  0  0  0  0  0
    4.0495    1.3150   -2.8914 H   0  0  0  0  0  0  0  0  0  0  0  0
    3.6894    1.6560   -4.5991 H   0  0  0  0  0  0  0  0  0  0  0  0
    2.6294    2.2909   -3.3255 H   0  0  0  0  0  0  0  0  0  0  0  0
    3.6048   -1.1516   -5.4891 N   0  0  0  0  0  0  0  0  0  0  0  0
    4.3783   -2.2695   -6.0136 C   0  0  0  0  0  0  0  0  0  0  0  0
    3.2672   -0.4399   -6.1304 H   0  0  0  0  0  0  0  0  0  0  0  0
    5.3419   -2.3436   -5.4986 H   0  0  0  0  0  0  0  0  0  0  0  0
    3.8329   -3.2095   -5.8798 H   0  0  0  0  0  0  0  0  0  0  0  0
    4.5681   -2.1282   -7.0817 H   0  0  0  0  0  0  0  0  0  0  0  0
  1  2  2  0  0  0  0
  1  3  1  0  0  0  0
  1  7  1  0  0  0  0
  3  4  1  0  0  0  0
  3  5  1  0  0  0  0
  3  6  1  0  0  0  0
  7  8  1  0  0  0  0
  7 12  1  0  0  0  0
  8  9  1  0  0  0  0
  8 11  1  0  0  0  0
  8 13  1  0  0  0  0
  9 10  2  0  0  0  0
  9 17  1  0  0  0  0
 11 14  1  0  0  0  0
 11 15  1  0  0  0  0
 11 16  1  0  0  0  0
 17 18  1  0  0  0  0
 17 26  1  0  0  0  0
 18 19  1  0  0  0  0
 18 21  1  0  0  0  0
 18 27  1  0  0  0  0
 19 20  2  0  0  0  0
 19 32  1  0  0  0  0
 21 22  1  0  0  0  0
 21 28  1  0  0  0  0
 21 29  1  0  0  0  0
 22 23  1  0  0  0  0
 22 30  1  0  0  0  0
 22 31  1  0  0  0  0
 23 24  1  0  0  0  0
 23 25  2  0  0  0  0
 32 33  1  0  0  0  0
 32 37  1  0  0  0  0
 33 34  1  0  0  0  0
 33 36  1  0  0  0  0
 33 38  1  0  0  0  0
 34 35  2  0  0  0  0
 34 42  1  0  0  0  0
 36 39  1  0  0  0  0
 36 40  1  0  0  0  0
 36 41  1  0  0  0  0
 42 43  1  0  0  0  0
 42 44  1  0  0  0  0
 43 45  1  0  0  0  0
 43 46  1  0  0  0  0
 43 47  1  0  0  0  0
M  CHG  1  24  -1
M  END
$$$$

  -OEChem-05262216243D

 47 46  0     1  0  0  0  0  0999 V2000
   -0.0230   -5.7351    1.8367 C   0  0  0  0  0  0  0  0  0  0  0  0
    0.8723   -5.7276    2.6672 O   0  0  0  0  0  0  0  0  0  0  0  0
   -1.1247   -6.7759    1.9170 C   0  0  0  0  0  0  0  0  0  0  0  0
   -1.1725   -7.3418    0.9833 H   0  0  0  0  0  0  0  0  0  0  0  0
   -0.9307   -7.4693    2.7401 H   0  0  0  0  0  0  0  0  0  0  0  0
   -2.0867   -6.2854    2.0874 H   0  0  0  0  0  0  0  0  0  0  0  0
   -0.0490   -4.7987    0.8264 N   0  0  0  0  0  0  0  0  0  0  0  0
    0.8321   -3.6273    0.7439 C   0  0  2  0  0  0  0  0  0  0  0  0
    0.1611   -2.4946   -0.0622 C   0  0  0  0  0  0  0  0  0  0  0  0
   -0.8301   -2.7365   -0.7444 O   0  0  0  0  0  0  0  0  0  0  0  0
    2.1512   -4.0409    0.0809 C   0  0  0  0  0  0  0  0  0  0  0  0
   -0.8707   -4.7830    0.2223 H   0  0  0  0  0  0  0  0  0  0  0  0
    1.0336   -3.2464    1.7512 H   0  0  0  0  0  0  0  0  0  0  0  0
    1.9697   -4.4171   -0.9313 H   0  0  0  0  0  0  0  0  0  0  0  0
    2.8338   -3.1880    0.0175 H   0  0  0  0  0  0  0  0  0  0  0  0
    2.6393   -4.8285    0.6633 H   0  0  0  0  0  0  0  0  0  0  0  0
    0.7068   -1.2251   -0.0743 N   0  0  0  0  0  0  0  0  0  0  0  0
   -0.0057   -0.0452   -0.6012 C   0  0  2  0  0  0  0  0  0  0  0  0
    0.5391    0.3843   -1.9816 C   0  0  0  0  0  0  0  0  0  0  0  0
    0.0746    1.3431   -2.5866 O   0  0  0  0  0  0  0  0  0  0  0  0
    0.2029    1.0808    0.4248 C   0  0  0  0  0  0  0  0  0  0  0  0
   -0.5048    0.7783    1.7579 C   0  0  0  0  0  0  0  0  0  0  0  0
   -0.2573    1.9002    2.7635 C   0  0  0  0  0  0  0  0  0  0  0  0
    0.9186    2.0267    3.1883 O   0  5  0  0  0  0  0  0  0  0  0  0
   -1.2272    2.6177    3.1077 O   0  0  0  0  0  0  0  0  0  0  0  0
    1.4136   -1.0434    0.6354 H   0  0  0  0  0  0  0  0  0  0  0  0
   -1.0787   -0.2391   -0.7073 H   0  0  0  0  0  0  0  0  0  0  0  0
   -0.2030    2.0171    0.0255 H   0  0  0  0  0  0  0  0  0  0  0  0
    1.2736    1.2367    0.5975 H   0  0  0  0  0  0  0  0  0  0  0  0
   -1.5800    0.6672    1.5881 H   0  0  0  0  0  0  0  0  0  0  0  0
   -0.1353   -0.1569    2.1867 H   0  0  0  0  0  0  0  0  0  0  0  0
    1.5742   -0.3238   -2.5622 N   0  0  0  0  0  0  0  0  0  0  0  0
    2.0951   -0.1035   -3.9140 C   0  0  2  0  0  0  0  0  0  0  0  0
    2.6859   -1.3968   -4.5141 C   0  0  0  0  0  0  0  0  0  0  0  0
    2.9814   -2.3443   -3.7917 O   0  0  0  0  0  0  0  0  0  0  0  0
    3.1644    0.9918   -3.8521 C   0  0  0  0  0  0  0  0  0  0  0  0
    1.8394   -1.1894   -2.0948 H   0  0  0  0  0  0  0  0  0  0  0  0
    1.2799    0.2217   -4.5687 H   0  0  0  0  0  0  0  0  0  0  0  0
    3.9846    0.6872   -3.1941 H   0  0  0  0  0  0  0  0  0  0  0  0
    3.5702    1.1899   -4.8486 H   0  0  0  0  0  0  0  0  0  0  0  0
    2.7338    1.9207   -3.4646 H   0  0  0  0  0  0  0  0  0  0  0  0
    2.8937   -1.4978   -5.8784 N   0  0  0  0  0  0  0  0  0  0  0  0
    3.4214   -2.6944   -6.5209 C   0  0  0  0  0  0  0  0  0  0  0  0
    2.6067   -0.7120   -6.4549 H   0  0  0  0  0  0  0  0  0  0  0  0
    4.4019   -2.9511   -6.1061 H   0  0  0  0  0  0  0  0  0  0  0  0
    2.7419   -3.5399   -6.3706 H   0  0  0  0  0  0  0  0  0  0  0  0
    3.5355   -2.5270   -7.5961 H   0  0  0  0  0  0  0  0  0  0  0  0
  1  2  2  0  0  0  0
  1  3  1  0  0  0  0
  1  7  1  0  0  0  0
  3  4  1  0  0  0  0
  3  5  1  0  0  0  0
  3  6  1  0  0  0  0
  7  8  1  0  0  0  0
  7 12  1  0  0  0  0
  8  9  1  0  0  0  0
  8 11  1  0  0  0  0
  8 13  1  0  0  0  0
  9 10  2  0  0  0  0
  9 17  1  0  0  0  0
 11 14  1  0  0  0  0
 11 15  1  0  0  0  0
 11 16  1  0  0  0  0
 17 18  1  0  0  0  0
 17 26  1  0  0  0  0
 18 19  1  0  0  0  0
 18 21  1  0  0  0  0
 18 27  1  0  0  0  0
 19 20  2  0  0  0  0
 19 32  1  0  0  0  0
 21 22  1  0  0  0  0
 21 28  1  0  0  0  0
 21 29  1  0  0  0  0
 22 23  1  0  0  0  0
 22 30  1  0  0  0  0
 22 31  1  0  0  0  0
 23 24  1  0  0  0  0
 23 25  2  0  0  0  0
 32 33  1  0  0  0  0
 32 37  1  0  0  0  0
 33 34  1  0  0  0  0
 33 36  1  0  0  0  0
 33 38  1  0  0  0  0
 34 35  2  0  0  0  0
 34 42  1  0  0  0  0
 36 39  1  0  0  0  0
 36 40  1  0  0  0  0
 36 41  1  0  0  0  0
 42 43  1  0  0  0  0
 42 44  1  0  0  0  0
 43 45  1  0  0  0  0
 43 46  1  0  0  0  0
 43 47  1  0  0  0  0
M  CHG  1  24  -1
M  END
$$$$

  -OEChem-05262216243D

 47 46  0     1  0  0  0  0  0999 V2000
    0.0011   -5.7223    1.8610 C   0  0  0  0  0  0  0  0  0  0  0  0
    0.9162   -5.7128    2.6693 O   0  0  0  0  0  0  0  0  0  0  0  0
   -1.0912   -6.7706    1.9642 C   0  0  0  0  0  0  0  0  0  0  0  0
   -1.1850   -7.3066    1.0166 H   0  0  0  0  0  0  0  0  0  0  0  0
   -0.8524   -7.4886    2.7536 H   0  0  0  0  0  0  0  0  0  0  0  0
   -2.0444   -6.2909    2.2000 H   0  0  0  0  0  0  0  0  0  0  0  0
   -0.0519   -4.7836    0.8539 N   0  0  0  0  0  0  0  0  0  0  0  0
    0.8315   -3.6161    0.7450 C   0  0  2  0  0  0  0  0  0  0  0  0
    0.1498   -2.4890   -0.0592 C   0  0  0  0  0  0  0  0  0  0  0  0
   -0.8524   -2.7321   -0.7247 O   0  0  0  0  0  0  0  0  0  0  0  0
    2.1362   -4.0398    0.0599 C   0  0  0  0  0  0  0  0  0  0  0  0
   -0.8846   -4.7721    0.2650 H   0  0  0  0  0  0  0  0  0  0  0  0
    1.0520   -3.2272    1.7454 H   0  0  0  0  0  0  0  0  0  0  0  0
    1.9325   -4.4223   -0.9456 H   0  0  0  0  0  0  0  0  0  0  0  0
    2.8214   -3.1909   -0.0228 H   0  0  0  0  0  0  0  0  0  0  0  0
    2.6332   -4.8251    0.6376 H   0  0  0  0  0  0  0  0  0  0  0  0
    0.7010   -1.2232   -0.1013 N   0  0  0  0  0  0  0  0  0  0  0  0
   -0.0252   -0.0444   -0.6103 C   0  0  2  0  0  0  0  0  0  0  0  0
    0.4760    0.3649   -2.0147 C   0  0  0  0  0  0  0  0  0  0  0  0
    0.1978    1.4482   -2.5155 O   0  0  0  0  0  0  0  0  0  0  0  0
    0.2125    1.0800    0.4136 C   0  0  0  0  0  0  0  0  0  0  0  0
   -0.4612    0.7716    1.7637 C   0  0  0  0  0  0  0  0  0  0  0  0
   -0.1898    1.8869    2.7704 C   0  0  0  0  0  0  0  0  0  0  0  0
    0.9928    2.0011    3.1799 O   0  5  0  0  0  0  0  0  0  0  0  0
   -1.1500    2.6079    3.1346 O   0  0  0  0  0  0  0  0  0  0  0  0
    1.4343   -1.0389    0.5799 H   0  0  0  0  0  0  0  0  0  0  0  0
   -1.1007   -0.2367   -0.6828 H   0  0  0  0  0  0  0  0  0  0  0  0
   -0.2032    2.0189    0.0303 H   0  0  0  0  0  0  0  0  0  0  0  0
    1.2876    1.2347    0.5584 H   0  0  0  0  0  0  0  0  0  0  0  0
   -1.5404    0.6598    1.6212 H   0  0  0  0  0  0  0  0  0  0  0  0
   -0.0803   -0.1652    2.1790 H   0  0  0  0  0  0  0  0  0  0  0  0
    1.2477   -0.5165   -2.7489 N   0  0  0  0  0  0  0  0  0  0  0  0
    1.7288   -0.2891   -4.1148 C   0  0  2  0  0  0  0  0  0  0  0  0
    2.0239   -1.6137   -4.8492 C   0  0  0  0  0  0  0  0  0  0  0  0
    2.2180   -2.6504   -4.2222 O   0  0  0  0  0  0  0  0  0  0  0  0
    2.9956    0.5709   -4.0531 C   0  0  0  0  0  0  0  0  0  0  0  0
    1.3491   -1.4541   -2.3620 H   0  0  0  0  0  0  0  0  0  0  0  0
    0.9580    0.2410   -4.6839 H   0  0  0  0  0  0  0  0  0  0  0  0
    3.7752    0.0615   -3.4779 H   0  0  0  0  0  0  0  0  0  0  0  0
    3.3756    0.7675   -5.0597 H   0  0  0  0  0  0  0  0  0  0  0  0
    2.7809    1.5308   -3.5730 H   0  0  0  0  0  0  0  0  0  0  0  0
    2.0876   -1.6383   -6.2310 N   0  0  0  0  0  0  0  0  0  0  0  0
    2.3380   -2.8493   -7.0013 C   0  0  0  0  0  0  0  0  0  0  0  0
    1.8990   -0.7697   -6.7225 H   0  0  0  0  0  0  0  0  0  0  0  0
    3.3033   -3.2865   -6.7253 H   0  0  0  0  0  0  0  0  0  0  0  0
    1.5507   -3.5882   -6.8194 H   0  0  0  0  0  0  0  0  0  0  0  0
    2.3562   -2.6192   -8.0708 H   0  0  0  0  0  0  0  0  0  0  0  0
  1  2  2  0  0  0  0
  1  3  1  0  0  0  0
  1  7  1  0  0  0  0
  3  4  1  0  0  0  0
  3  5  1  0  0  0  0
  3  6  1  0  0  0  0
  7  8  1  0  0  0  0
  7 12  1  0  0  0  0
  8  9  1  0  0  0  0
  8 11  1  0  0  0  0
  8 13  1  0  0  0  0
  9 10  2  0  0  0  0
  9 17  1  0  0  0  0
 11 14  1  0  0  0  0
 11 15  1  0  0  0  0
 11 16  1  0  0  0  0
 17 18  1  0  0  0  0
 17 26  1  0  0  0  0
 18 19  1  0  0  0  0
 18 21  1  0  0  0  0
 18 27  1  0  0  0  0
 19 20  2  0  0  0  0
 19 32  1  0  0  0  0
 21 22  1  0  0  0  0
 21 28  1  0  0  0  0
 21 29  1  0  0  0  0
 22 23  1  0  0  0  0
 22 30  1  0  0  0  0
 22 31  1  0  0  0  0
 23 24  1  0  0  0  0
 23 25  2  0  0  0  0
 32 33  1  0  0  0  0
 32 37  1  0  0  0  0
 33 34  1  0  0  0  0
 33 36  1  0  0  0  0
 33 38  1  0  0  0  0
 34 35  2  0  0  0  0
 34 42  1  0  0  0  0
 36 39  1  0  0  0  0
 36 40  1  0  0  0  0
 36 41  1  0  0  0  0
 42 43  1  0  0  0  0
 42 44  1  0  0  0  0
 43 45  1  0  0  0  0
 43 46  1  0  0  0  0
 43 47  1  0  0  0  0
M  CHG  1  24  -1
M  END
$$$$

  -OEChem-05262216243D

 47 46  0     1  0  0  0  0  0999 V2000
    0.0606   -5.7114    1.8386 C   0  0  0  0  0  0  0  0  0  0  0  0
    1.0060   -5.7130    2.6116 O   0  0  0  0  0  0  0  0  0  0  0  0
   -1.0297   -6.7586    1.9701 C   0  0  0  0  0  0  0  0  0  0  0  0
   -1.1531   -7.2894    1.0230 H   0  0  0  0  0  0  0  0  0  0  0  0
   -0.7677   -7.4812    2.7478 H   0  0  0  0  0  0  0  0  0  0  0  0
   -1.9748   -6.2786    2.2372 H   0  0  0  0  0  0  0  0  0  0  0  0
   -0.0300   -4.7601    0.8460 N   0  0  0  0  0  0  0  0  0  0  0  0
    0.8523   -3.5947    0.7122 C   0  0  2  0  0  0  0  0  0  0  0  0
    0.1484   -2.4668   -0.0713 C   0  0  0  0  0  0  0  0  0  0  0  0
   -0.8672   -2.7101   -0.7164 O   0  0  0  0  0  0  0  0  0  0  0  0
    2.1356   -4.0200   -0.0111 C   0  0  0  0  0  0  0  0  0  0  0  0
   -0.8812   -4.7449    0.2841 H   0  0  0  0  0  0  0  0  0  0  0  0
    1.1026   -3.2072    1.7060 H   0  0  0  0  0  0  0  0  0  0  0  0
    1.9010   -4.4049   -1.0090 H   0  0  0  0  0  0  0  0  0  0  0  0
    2.8170   -3.1705   -0.1163 H   0  0  0  0  0  0  0  0  0  0  0  0
    2.6504   -4.8040    0.5529 H   0  0  0  0  0  0  0  0  0  0  0  0
    0.6962   -1.2011   -0.1329 N   0  0  0  0  0  0  0  0  0  0  0  0
   -0.0509   -0.0234   -0.6109 C   0  0  2  0  0  0  0  0  0  0  0  0
    0.4055    0.3751   -2.0341 C   0  0  0  0  0  0  0  0  0  0  0  0
    0.3693    1.5312   -2.4390 O   0  0  0  0  0  0  0  0  0  0  0  0
    0.2007    1.0959    0.4168 C   0  0  0  0  0  0  0  0  0  0  0  0
   -0.4389    0.7686    1.7792 C   0  0  0  0  0  0  0  0  0  0  0  0
   -0.1560    1.8772    2.7902 C   0  0  0  0  0  0  0  0  0  0  0  0
    1.0286    1.9846    3.1956 O   0  5  0  0  0  0  0  0  0  0  0  0
   -1.1113    2.6020    3.1599 O   0  0  0  0  0  0  0  0  0  0  0  0
    1.4577   -1.0167    0.5166 H   0  0  0  0  0  0  0  0  0  0  0  0
   -1.1269   -0.2221   -0.6534 H   0  0  0  0  0  0  0  0  0  0  0  0
   -0.2331    2.0341    0.0531 H   0  0  0  0  0  0  0  0  0  0  0  0
    1.2772    1.2592    0.5383 H   0  0  0  0  0  0  0  0  0  0  0  0
   -1.5200    0.6480    1.6610 H   0  0  0  0  0  0  0  0  0  0  0  0
   -0.0403   -0.1686    2.1763 H   0  0  0  0  0  0  0  0  0  0  0  0
    0.8681   -0.6035   -2.8948 N   0  0  0  0  0  0  0  0  0  0  0  0
    1.3248   -0.3756   -4.2701 C   0  0  2  0  0  0  0  0  0  0  0  0
    1.2729   -1.6604   -5.1234 C   0  0  0  0  0  0  0  0  0  0  0  0
    1.2836   -2.7671   -4.5948 O   0  0  0  0  0  0  0  0  0  0  0  0
    2.7593    0.1640   -4.2302 C   0  0  0  0  0  0  0  0  0  0  0  0
    0.7704   -1.5686   -2.5775 H   0  0  0  0  0  0  0  0  0  0  0  0
    0.6716    0.3640   -4.7447 H   0  0  0  0  0  0  0  0  0  0  0  0
    3.4267   -0.5646   -3.7593 H   0  0  0  0  0  0  0  0  0  0  0  0
    3.1214    0.3670   -5.2423 H   0  0  0  0  0  0  0  0  0  0  0  0
    2.8021    1.0955   -3.6570 H   0  0  0  0  0  0  0  0  0  0  0  0
    1.2394   -1.5732   -6.5040 N   0  0  0  0  0  0  0  0  0  0  0  0
    1.1800   -2.7355   -7.3809 C   0  0  0  0  0  0  0  0  0  0  0  0
    1.2163   -0.6438   -6.9130 H   0  0  0  0  0  0  0  0  0  0  0  0
    2.0651   -3.3651   -7.2429 H   0  0  0  0  0  0  0  0  0  0  0  0
    0.2863   -3.3310   -7.1674 H   0  0  0  0  0  0  0  0  0  0  0  0
    1.1414   -2.4170   -8.4269 H   0  0  0  0  0  0  0  0  0  0  0  0
  1  2  2  0  0  0  0
  1  3  1  0  0  0  0
  1  7  1  0  0  0  0
  3  4  1  0  0  0  0
  3  5  1  0  0  0  0
  3  6  1  0  0  0  0
  7  8  1  0  0  0  0
  7 12  1  0  0  0  0
  8  9  1  0  0  0  0
  8 11  1  0  0  0  0
  8 13  1  0  0  0  0
  9 10  2  0  0  0  0
  9 17  1  0  0  0  0
 11 14  1  0  0  0  0
 11 15  1  0  0  0  0
 11 16  1  0  0  0  0
 17 18  1  0  0  0  0
 17 26  1  0  0  0  0
 18 19  1  0  0  0  0
 18 21  1  0  0  0  0
 18 27  1  0  0  0  0
 19 20  2  0  0  0  0
 19 32  1  0  0  0  0
 21 22  1  0  0  0  0
 21 28  1  0  0  0  0
 21 29  1  0  0  0  0
 22 23  1  0  0  0  0
 22 30  1  0  0  0  0
 22 31  1  0  0  0  0
 23 24  1  0  0  0  0
 23 25  2  0  0  0  0
 32 33  1  0  0  0  0
 32 37  1  0  0  0  0
 33 34  1  0  0  0  0
 33 36  1  0  0  0  0
 33 38  1  0  0  0  0
 34 35  2  0  0  0  0
 34 42  1  0  0  0  0
 36 39  1  0  0  0  0
 36 40  1  0  0  0  0
 36 41  1  0  0  0  0
 42 43  1  0  0  0  0
 42 44  1  0  0  0  0
 43 45  1  0  0  0  0
 43 46  1  0  0  0  0
 43 47  1  0  0  0  0
M  CHG  1  24  -1
M  END
$$$$

  -OEChem-05262216243D

 47 46  0     1  0  0  0  0  0999 V2000
    0.0906   -5.6929    1.8027 C   0  0  0  0  0  0  0  0  0  0  0  0
    1.0126   -5.6753    2.6029 O   0  0  0  0  0  0  0  0  0  0  0  0
   -0.9723   -6.7722    1.8959 C   0  0  0  0  0  0  0  0  0  0  0  0
   -1.0879   -7.2689    0.9295 H   0  0  0  0  0  0  0  0  0  0  0  0
   -0.6871   -7.5187    2.6422 H   0  0  0  0  0  0  0  0  0  0  0  0
   -1.9278   -6.3282    2.1862 H   0  0  0  0  0  0  0  0  0  0  0  0
    0.0068   -4.7395    0.8113 N   0  0  0  0  0  0  0  0  0  0  0  0
    0.8736   -3.5596    0.6999 C   0  0  2  0  0  0  0  0  0  0  0  0
    0.1746   -2.4416   -0.1023 C   0  0  0  0  0  0  0  0  0  0  0  0
   -0.8236   -2.6959   -0.7704 O   0  0  0  0  0  0  0  0  0  0  0  0
    2.1811   -3.9651    0.0104 C   0  0  0  0  0  0  0  0  0  0  0  0
   -0.8249   -4.7442    0.2210 H   0  0  0  0  0  0  0  0  0  0  0  0
    1.0926   -3.1675    1.6993 H   0  0  0  0  0  0  0  0  0  0  0  0
    1.9790   -4.3536   -0.9930 H   0  0  0  0  0  0  0  0  0  0  0  0
    2.8517   -3.1049   -0.0770 H   0  0  0  0  0  0  0  0  0  0  0  0
    2.6925   -4.7408    0.5884 H   0  0  0  0  0  0  0  0  0  0  0  0
    0.7104   -1.1713   -0.1660 N   0  0  0  0  0  0  0  0  0  0  0  0
   -0.0638   -0.0022   -0.6176 C   0  0  2  0  0  0  0  0  0  0  0  0
    0.3616    0.3980   -2.0482 C   0  0  0  0  0  0  0  0  0  0  0  0
    0.5860    1.5569   -2.3790 O   0  0  0  0  0  0  0  0  0  0  0  0
    0.1846    1.1151    0.4125 C   0  0  0  0  0  0  0  0  0  0  0  0
   -0.4262    0.7637    1.7812 C   0  0  0  0  0  0  0  0  0  0  0  0
   -0.1476    1.8697    2.7955 C   0  0  0  0  0  0  0  0  0  0  0  0
    1.0278    1.9539    3.2314 O   0  5  0  0  0  0  0  0  0  0  0  0
   -1.0966    2.6177    3.1343 O   0  0  0  0  0  0  0  0  0  0  0  0
    1.4662   -0.9796    0.4878 H   0  0  0  0  0  0  0  0  0  0  0  0
   -1.1374   -0.2172   -0.6404 H   0  0  0  0  0  0  0  0  0  0  0  0
   -0.2735    2.0465    0.0613 H   0  0  0  0  0  0  0  0  0  0  0  0
    1.2597    1.2988    0.5177 H   0  0  0  0  0  0  0  0  0  0  0  0
   -1.5065    0.6238    1.6794 H   0  0  0  0  0  0  0  0  0  0  0  0
   -0.0042   -0.1694    2.1639 H   0  0  0  0  0  0  0  0  0  0  0  0
    0.5123   -0.5956   -2.9978 N   0  0  0  0  0  0  0  0  0  0  0  0
    0.9397   -0.3754   -4.3842 C   0  0  2  0  0  0  0  0  0  0  0  0
    0.4994   -1.5097   -5.3323 C   0  0  0  0  0  0  0  0  0  0  0  0
    0.2784   -2.6380   -4.9074 O   0  0  0  0  0  0  0  0  0  0  0  0
    2.4663   -0.2398   -4.4100 C   0  0  0  0  0  0  0  0  0  0  0  0
    0.2352   -1.5396   -2.7192 H   0  0  0  0  0  0  0  0  0  0  0  0
    0.4887    0.5518   -4.7524 H   0  0  0  0  0  0  0  0  0  0  0  0
    2.9367   -1.1525   -4.0304 H   0  0  0  0  0  0  0  0  0  0  0  0
    2.8188   -0.0632   -5.4305 H   0  0  0  0  0  0  0  0  0  0  0  0
    2.7855    0.6012   -3.7862 H   0  0  0  0  0  0  0  0  0  0  0  0
    0.3831   -1.2671   -6.6897 N   0  0  0  0  0  0  0  0  0  0  0  0
   -0.0256   -2.2808   -7.6534 C   0  0  0  0  0  0  0  0  0  0  0  0
    0.5535   -0.3189   -7.0115 H   0  0  0  0  0  0  0  0  0  0  0  0
    0.6773   -3.1204   -7.6477 H   0  0  0  0  0  0  0  0  0  0  0  0
   -1.0259   -2.6564   -7.4132 H   0  0  0  0  0  0  0  0  0  0  0  0
   -0.0479   -1.8560   -8.6615 H   0  0  0  0  0  0  0  0  0  0  0  0
  1  2  2  0  0  0  0
  1  3  1  0  0  0  0
  1  7  1  0  0  0  0
  3  4  1  0  0  0  0
  3  5  1  0  0  0  0
  3  6  1  0  0  0  0
  7  8  1  0  0  0  0
  7 12  1  0  0  0  0
  8  9  1  0  0  0  0
  8 11  1  0  0  0  0
  8 13  1  0  0  0  0
  9 10  2  0  0  0  0
  9 17  1  0  0  0  0
 11 14  1  0  0  0  0
 11 15  1  0  0  0  0
 11 16  1  0  0  0  0
 17 18  1  0  0  0  0
 17 26  1  0  0  0  0
 18 19  1  0  0  0  0
 18 21  1  0  0  0  0
 18 27  1  0  0  0  0
 19 20  2  0  0  0  0
 19 32  1  0  0  0  0
 21 22  1  0  0  0  0
 21 28  1  0  0  0  0
 21 29  1  0  0  0  0
 22 23  1  0  0  0  0
 22 30  1  0  0  0  0
 22 31  1  0  0  0  0
 23 24  1  0  0  0  0
 23 25  2  0  0  0  0
 32 33  1  0  0  0  0
 32 37  1  0  0  0  0
 33 34  1  0  0  0  0
 33 36  1  0  0  0  0
 33 38  1  0  0  0  0
 34 35  2  0  0  0  0
 34 42  1  0  0  0  0
 36 39  1  0  0  0  0
 36 40  1  0  0  0  0
 36 41  1  0  0  0  0
 42 43  1  0  0  0  0
 42 44  1  0  0  0  0
 43 45  1  0  0  0  0
 43 46  1  0  0  0  0
 43 47  1  0  0  0  0
M  CHG  1  24  -1
M  END
$$$$

  -OEChem-05262216243D

 47 46  0     1  0  0  0  0  0999 V2000
    0.1114   -5.7100    1.6998 C   0  0  0  0  0  0  0  0  0  0  0  0
    0.9659   -5.6781    2.5714 O   0  0  0  0  0  0  0  0  0  0  0  0
   -0.9237   -6.8201    1.6941 C   0  0  0  0  0  0  0  0  0  0  0  0
   -0.8544   -7.3904    0.7645 H   0  0  0  0  0  0  0  0  0  0  0  0
   -0.7561   -7.4967    2.5370 H   0  0  0  0  0  0  0  0  0  0  0  0
   -1.9270   -6.3943    1.7782 H   0  0  0  0  0  0  0  0  0  0  0  0
    0.0773   -4.7440    0.7177 N   0  0  0  0  0  0  0  0  0  0  0  0
    0.8920   -3.5220    0.7113 C   0  0  2  0  0  0  0  0  0  0  0  0
    0.2005   -2.4117   -0.1082 C   0  0  0  0  0  0  0  0  0  0  0  0
   -0.7824   -2.6760   -0.7964 O   0  0  0  0  0  0  0  0  0  0  0  0
    2.2681   -3.8450    0.1184 C   0  0  0  0  0  0  0  0  0  0  0  0
   -0.7149   -4.7567    0.0752 H   0  0  0  0  0  0  0  0  0  0  0  0
    1.0131   -3.1533    1.7362 H   0  0  0  0  0  0  0  0  0  0  0  0
    2.1661   -4.1966   -0.9133 H   0  0  0  0  0  0  0  0  0  0  0  0
    2.9072   -2.9569    0.1231 H   0  0  0  0  0  0  0  0  0  0  0  0
    2.7622   -4.6248    0.7059 H   0  0  0  0  0  0  0  0  0  0  0  0
    0.7291   -1.1388   -0.1744 N   0  0  0  0  0  0  0  0  0  0  0  0
   -0.0576    0.0172   -0.6313 C   0  0  2  0  0  0  0  0  0  0  0  0
    0.3732    0.4025   -2.0616 C   0  0  0  0  0  0  0  0  0  0  0  0
    0.8489    1.4953   -2.3496 O   0  0  0  0  0  0  0  0  0  0  0  0
    0.1692    1.1494    0.3869 C   0  0  0  0  0  0  0  0  0  0  0  0
   -0.4404    0.8039    1.7569 C   0  0  0  0  0  0  0  0  0  0  0  0
   -0.1824    1.9265    2.7579 C   0  0  0  0  0  0  0  0  0  0  0  0
    0.9487    1.9499    3.3037 O   0  5  0  0  0  0  0  0  0  0  0  0
   -1.0990    2.7587    2.9637 O   0  0  0  0  0  0  0  0  0  0  0  0
    1.4786   -0.9364    0.4835 H   0  0  0  0  0  0  0  0  0  0  0  0
   -1.1291   -0.2083   -0.6557 H   0  0  0  0  0  0  0  0  0  0  0  0
   -0.2989    2.0699    0.0203 H   0  0  0  0  0  0  0  0  0  0  0  0
    1.2413    1.3487    0.4964 H   0  0  0  0  0  0  0  0  0  0  0  0
   -1.5185    0.6474    1.6548 H   0  0  0  0  0  0  0  0  0  0  0  0
   -0.0055   -0.1188    2.1505 H   0  0  0  0  0  0  0  0  0  0  0  0
    0.2326   -0.5423   -3.0608 N   0  0  0  0  0  0  0  0  0  0  0  0
    0.6340   -0.3471   -4.4583 C   0  0  2  0  0  0  0  0  0  0  0  0
   -0.1947   -1.1955   -5.4442 C   0  0  0  0  0  0  0  0  0  0  0  0
   -0.6411   -2.2893   -5.1175 O   0  0  0  0  0  0  0  0  0  0  0  0
    2.1208   -0.6915   -4.5863 C   0  0  0  0  0  0  0  0  0  0  0  0
   -0.1763   -1.4406   -2.7897 H   0  0  0  0  0  0  0  0  0  0  0  0
    0.4850    0.7030   -4.7299 H   0  0  0  0  0  0  0  0  0  0  0  0
    2.2952   -1.7369   -4.3123 H   0  0  0  0  0  0  0  0  0  0  0  0
    2.4624   -0.5376   -5.6141 H   0  0  0  0  0  0  0  0  0  0  0  0
    2.7163   -0.0538   -3.9253 H   0  0  0  0  0  0  0  0  0  0  0  0
   -0.4127   -0.7364   -6.7312 N   0  0  0  0  0  0  0  0  0  0  0  0
   -1.2179   -1.4541   -7.7105 C   0  0  0  0  0  0  0  0  0  0  0  0
   -0.0733    0.1938   -6.9577 H   0  0  0  0  0  0  0  0  0  0  0  0
   -0.7999   -2.4493   -7.8949 H   0  0  0  0  0  0  0  0  0  0  0  0
   -2.2469   -1.5635   -7.3519 H   0  0  0  0  0  0  0  0  0  0  0  0
   -1.2366   -0.9067   -8.6576 H   0  0  0  0  0  0  0  0  0  0  0  0
  1  2  2  0  0  0  0
  1  3  1  0  0  0  0
  1  7  1  0  0  0  0
  3  4  1  0  0  0  0
  3  5  1  0  0  0  0
  3  6  1  0  0  0  0
  7  8  1  0  0  0  0
  7 12  1  0  0  0  0
  8  9  1  0  0  0  0
  8 11  1  0  0  0  0
  8 13  1  0  0  0  0
  9 10  2  0  0  0  0
  9 17  1  0  0  0  0
 11 14  1  0  0  0  0
 11 15  1  0  0  0  0
 11 16  1  0  0  0  0
 17 18  1  0  0  0  0
 17 26  1  0  0  0  0
 18 19  1  0  0  0  0
 18 21  1  0  0  0  0
 18 27  1  0  0  0  0
 19 20  2  0  0  0  0
 19 32  1  0  0  0  0
 21 22  1  0  0  0  0
 21 28  1  0  0  0  0
 21 29  1  0  0  0  0
 22 23  1  0  0  0  0
 22 30  1  0  0  0  0
 22 31  1  0  0  0  0
 23 24  1  0  0  0  0
 23 25  2  0  0  0  0
 32 33  1  0  0  0  0
 32 37  1  0  0  0  0
 33 34  1  0  0  0  0
 33 36  1  0  0  0  0
 33 38  1  0  0  0  0
 34 35  2  0  0  0  0
 34 42  1  0  0  0  0
 36 39  1  0  0  0  0
 36 40  1  0  0  0  0
 36 41  1  0  0  0  0
 42 43  1  0  0  0  0
 42 44  1  0  0  0  0
 43 45  1  0  0  0  0
 43 46  1  0  0  0  0
 43 47  1  0  0  0  0
M  CHG  1  24  -1
M  END
$$$$

  -OEChem-05262216243D

 47 46  0     1  0  0  0  0  0999 V2000
    0.1535   -5.7164    1.6783 C   0  0  0  0  0  0  0  0  0  0  0  0
    1.0610   -5.7028    2.4950 O   0  0  0  0  0  0  0  0  0  0  0  0
   -0.8907   -6.8170    1.7238 C   0  0  0  0  0  0  0  0  0  0  0  0
   -0.9044   -7.3575    0.7743 H   0  0  0  0  0  0  0  0  0  0  0  0
   -0.6621   -7.5217    2.5282 H   0  0  0  0  0  0  0  0  0  0  0  0
   -1.8786   -6.3857    1.9035 H   0  0  0  0  0  0  0  0  0  0  0  0
    0.0692   -4.7396    0.7098 N   0  0  0  0  0  0  0  0  0  0  0  0
    0.8982   -3.5280    0.6625 C   0  0  2  0  0  0  0  0  0  0  0  0
    0.1836   -2.4071   -0.1230 C   0  0  0  0  0  0  0  0  0  0  0  0
   -0.8286   -2.6606   -0.7722 O   0  0  0  0  0  0  0  0  0  0  0  0
    2.2422   -3.8651    0.0058 C   0  0  0  0  0  0  0  0  0  0  0  0
   -0.7627   -4.7355    0.1195 H   0  0  0  0  0  0  0  0  0  0  0  0
    1.0719   -3.1617    1.6803 H   0  0  0  0  0  0  0  0  0  0  0  0
    2.0882   -4.2200   -1.0182 H   0  0  0  0  0  0  0  0  0  0  0  0
    2.8872   -2.9817   -0.0240 H   0  0  0  0  0  0  0  0  0  0  0  0
    2.7593   -4.6461    0.5717 H   0  0  0  0  0  0  0  0  0  0  0  0
    0.7112   -1.1331   -0.1841 N   0  0  0  0  0  0  0  0  0  0  0  0
   -0.0742    0.0277   -0.6272 C   0  0  2  0  0  0  0  0  0  0  0  0
    0.3479    0.4249   -2.0557 C   0  0  0  0  0  0  0  0  0  0  0  0
    1.0638    1.3908   -2.2976 O   0  0  0  0  0  0  0  0  0  0  0  0
    0.1574    1.1576    0.3918 C   0  0  0  0  0  0  0  0  0  0  0  0
   -0.4448    0.8126    1.7651 C   0  0  0  0  0  0  0  0  0  0  0  0
   -0.1800    1.9364    2.7634 C   0  0  0  0  0  0  0  0  0  0  0  0
    0.9503    1.9573    3.3105 O   0  5  0  0  0  0  0  0  0  0  0  0
   -1.0923    2.7753    2.9628 O   0  0  0  0  0  0  0  0  0  0  0  0
    1.4867   -0.9385    0.4450 H   0  0  0  0  0  0  0  0  0  0  0  0
   -1.1467   -0.1940   -0.6443 H   0  0  0  0  0  0  0  0  0  0  0  0
   -0.3097    2.0788    0.0265 H   0  0  0  0  0  0  0  0  0  0  0  0
    1.2304    1.3544    0.4973 H   0  0  0  0  0  0  0  0  0  0  0  0
   -1.5235    0.6578    1.6695 H   0  0  0  0  0  0  0  0  0  0  0  0
   -0.0092   -0.1114    2.1558 H   0  0  0  0  0  0  0  0  0  0  0  0
   -0.0800   -0.3646   -3.1062 N   0  0  0  0  0  0  0  0  0  0  0  0
    0.2868   -0.1533   -4.5113 C   0  0  2  0  0  0  0  0  0  0  0  0
   -0.7811   -0.6753   -5.4943 C   0  0  0  0  0  0  0  0  0  0  0  0
   -1.4671   -1.6537   -5.2215 O   0  0  0  0  0  0  0  0  0  0  0  0
    1.6275   -0.8471   -4.7709 C   0  0  0  0  0  0  0  0  0  0  0  0
   -0.6319   -1.1913   -2.8660 H   0  0  0  0  0  0  0  0  0  0  0  0
    0.3989    0.9202   -4.6953 H   0  0  0  0  0  0  0  0  0  0  0  0
    1.5413   -1.9235   -4.5908 H   0  0  0  0  0  0  0  0  0  0  0  0
    1.9454   -0.6900   -5.8059 H   0  0  0  0  0  0  0  0  0  0  0  0
    2.3992   -0.4434   -4.1078 H   0  0  0  0  0  0  0  0  0  0  0  0
   -0.9479   -0.0563   -6.7206 N   0  0  0  0  0  0  0  0  0  0  0  0
   -1.9603   -0.4570   -7.6890 C   0  0  0  0  0  0  0  0  0  0  0  0
   -0.4128    0.7903   -6.8897 H   0  0  0  0  0  0  0  0  0  0  0  0
   -1.8408   -1.5124   -7.9553 H   0  0  0  0  0  0  0  0  0  0  0  0
   -2.9638   -0.3080   -7.2771 H   0  0  0  0  0  0  0  0  0  0  0  0
   -1.8666    0.1402   -8.6009 H   0  0  0  0  0  0  0  0  0  0  0  0
  1  2  2  0  0  0  0
  1  3  1  0  0  0  0
  1  7  1  0  0  0  0
  3  4  1  0  0  0  0
  3  5  1  0  0  0  0
  3  6  1  0  0  0  0
  7  8  1  0  0  0  0
  7 12  1  0  0  0  0
  8  9  1  0  0  0  0
  8 11  1  0  0  0  0
  8 13  1  0  0  0  0
  9 10  2  0  0  0  0
  9 17  1  0  0  0  0
 11 14  1  0  0  0  0
 11 15  1  0  0  0  0
 11 16  1  0  0  0  0
 17 18  1  0  0  0  0
 17 26  1  0  0  0  0
 18 19  1  0  0  0  0
 18 21  1  0  0  0  0
 18 27  1  0  0  0  0
 19 20  2  0  0  0  0
 19 32  1  0  0  0  0
 21 22  1  0  0  0  0
 21 28  1  0  0  0  0
 21 29  1  0  0  0  0
 22 23  1  0  0  0  0
 22 30  1  0  0  0  0
 22 31  1  0  0  0  0
 23 24  1  0  0  0  0
 23 25  2  0  0  0  0
 32 33  1  0  0  0  0
 32 37  1  0  0  0  0
 33 34  1  0  0  0  0
 33 36  1  0  0  0  0
 33 38  1  0  0  0  0
 34 35  2  0  0  0  0
 34 42  1  0  0  0  0
 36 39  1  0  0  0  0
 36 40  1  0  0  0  0
 36 41  1  0  0  0  0
 42 43  1  0  0  0  0
 42 44  1  0  0  0  0
 43 45  1  0  0  0  0
 43 46  1  0  0  0  0
 43 47  1  0  0  0  0
M  CHG  1  24  -1
M  END
$$$$

  -OEChem-05262216243D

 47 46  0     1  0  0  0  0  0999 V2000
    0.2112   -5.7293    1.6845 C   0  0  0  0  0  0  0  0  0  0  0  0
    1.1967   -5.7452    2.4052 O   0  0  0  0  0  0  0  0  0  0  0  0
   -0.8488   -6.8060    1.8264 C   0  0  0  0  0  0  0  0  0  0  0  0
   -1.0176   -7.2935    0.8631 H   0  0  0  0  0  0  0  0  0  0  0  0
   -0.5276   -7.5589    2.5516 H   0  0  0  0  0  0  0  0  0  0  0  0
   -1.7856   -6.3611    2.1709 H   0  0  0  0  0  0  0  0  0  0  0  0
    0.0521   -4.7411    0.7374 N   0  0  0  0  0  0  0  0  0  0  0  0
    0.9099   -3.5568    0.6012 C   0  0  2  0  0  0  0  0  0  0  0  0
    0.1573   -2.4168   -0.1175 C   0  0  0  0  0  0  0  0  0  0  0  0
   -0.8974   -2.6533   -0.7024 O   0  0  0  0  0  0  0  0  0  0  0  0
    2.1688   -3.9391   -0.1861 C   0  0  0  0  0  0  0  0  0  0  0  0
   -0.8313   -4.7155    0.2282 H   0  0  0  0  0  0  0  0  0  0  0  0
    1.1957   -3.1936    1.5946 H   0  0  0  0  0  0  0  0  0  0  0  0
    1.8997   -4.3074   -1.1811 H   0  0  0  0  0  0  0  0  0  0  0  0
    2.8280   -3.0732   -0.3015 H   0  0  0  0  0  0  0  0  0  0  0  0
    2.7228   -4.7239    0.3382 H   0  0  0  0  0  0  0  0  0  0  0  0
    0.6870   -1.1431   -0.1698 N   0  0  0  0  0  0  0  0  0  0  0  0
   -0.0820    0.0291   -0.6098 C   0  0  2  0  0  0  0  0  0  0  0  0
    0.3472    0.4433   -2.0310 C   0  0  0  0  0  0  0  0  0  0  0  0
    1.2748    1.2186   -2.2381 O   0  0  0  0  0  0  0  0  0  0  0  0
    0.1431    1.1573    0.4117 C   0  0  0  0  0  0  0  0  0  0  0  0
   -0.4782    0.8124    1.7756 C   0  0  0  0  0  0  0  0  0  0  0  0
   -0.2217    1.9327    2.7794 C   0  0  0  0  0  0  0  0  0  0  0  0
    0.8347    1.8661    3.4552 O   0  5  0  0  0  0  0  0  0  0  0  0
   -1.0604    2.8644    2.8446 O   0  0  0  0  0  0  0  0  0  0  0  0
    1.5047   -0.9634    0.4079 H   0  0  0  0  0  0  0  0  0  0  0  0
   -1.1556   -0.1863   -0.6339 H   0  0  0  0  0  0  0  0  0  0  0  0
   -0.3130    2.0820    0.0406 H   0  0  0  0  0  0  0  0  0  0  0  0
    1.2154    1.3470    0.5332 H   0  0  0  0  0  0  0  0  0  0  0  0
   -1.5565    0.6629    1.6670 H   0  0  0  0  0  0  0  0  0  0  0  0
   -0.0519   -0.1151    2.1680 H   0  0  0  0  0  0  0  0  0  0  0  0
   -0.3114   -0.1079   -3.1134 N   0  0  0  0  0  0  0  0  0  0  0  0
    0.0036    0.1745   -4.5184 C   0  0  2  0  0  0  0  0  0  0  0  0
   -1.2203    0.0083   -5.4433 C   0  0  0  0  0  0  0  0  0  0  0  0
   -2.1365   -0.7496   -5.1449 O   0  0  0  0  0  0  0  0  0  0  0  0
    1.1320   -0.7634   -4.9573 C   0  0  0  0  0  0  0  0  0  0  0  0
   -1.0412   -0.7933   -2.9129 H   0  0  0  0  0  0  0  0  0  0  0  0
    0.3425    1.2118   -4.6102 H   0  0  0  0  0  0  0  0  0  0  0  0
    0.8182   -1.8079   -4.8635 H   0  0  0  0  0  0  0  0  0  0  0  0
    1.4062   -0.5724   -5.9989 H   0  0  0  0  0  0  0  0  0  0  0  0
    2.0177   -0.6084   -4.3332 H   0  0  0  0  0  0  0  0  0  0  0  0
   -1.2844    0.7033   -6.6383 N   0  0  0  0  0  0  0  0  0  0  0  0
   -2.4283    0.6414   -7.5391 C   0  0  0  0  0  0  0  0  0  0  0  0
   -0.5393    1.3655   -6.8328 H   0  0  0  0  0  0  0  0  0  0  0  0
   -2.6088   -0.3902   -7.8591 H   0  0  0  0  0  0  0  0  0  0  0  0
   -3.3277    1.0194   -7.0417 H   0  0  0  0  0  0  0  0  0  0  0  0
   -2.2420    1.2506   -8.4287 H   0  0  0  0  0  0  0  0  0  0  0  0
  1  2  2  0  0  0  0
  1  3  1  0  0  0  0
  1  7  1  0  0  0  0
  3  4  1  0  0  0  0
  3  5  1  0  0  0  0
  3  6  1  0  0  0  0
  7  8  1  0  0  0  0
  7 12  1  0  0  0  0
  8  9  1  0  0  0  0
  8 11  1  0  0  0  0
  8 13  1  0  0  0  0
  9 10  2  0  0  0  0
  9 17  1  0  0  0  0
 11 14  1  0  0  0  0
 11 15  1  0  0  0  0
 11 16  1  0  0  0  0
 17 18  1  0  0  0  0
 17 26  1  0  0  0  0
 18 19  1  0  0  0  0
 18 21  1  0  0  0  0
 18 27  1  0  0  0  0
 19 20  2  0  0  0  0
 19 32  1  0  0  0  0
 21 22  1  0  0  0  0
 21 28  1  0  0  0  0
 21 29  1  0  0  0  0
 22 23  1  0  0  0  0
 22 30  1  0  0  0  0
 22 31  1  0  0  0  0
 23 24  1  0  0  0  0
 23 25  2  0  0  0  0
 32 33  1  0  0  0  0
 32 37  1  0  0  0  0
 33 34  1  0  0  0  0
 33 36  1  0  0  0  0
 33 38  1  0  0  0  0
 34 35  2  0  0  0  0
 34 42  1  0  0  0  0
 36 39  1  0  0  0  0
 36 40  1  0  0  0  0
 36 41  1  0  0  0  0
 42 43  1  0  0  0  0
 42 44  1  0  0  0  0
 43 45  1  0  0  0  0
 43 46  1  0  0  0  0
 43 47  1  0  0  0  0
M  CHG  1  24  -1
M  END
$$$$

  -OEChem-05262216243D

 47 46  0     1  0  0  0  0  0999 V2000
    0.2607   -5.7452    1.6720 C   0  0  0  0  0  0  0  0  0  0  0  0
    1.2868   -5.7682    2.3335 O   0  0  0  0  0  0  0  0  0  0  0  0
   -0.8052   -6.8035    1.8897 C   0  0  0  0  0  0  0  0  0  0  0  0
   -0.9780   -7.3554    0.9626 H   0  0  0  0  0  0  0  0  0  0  0  0
   -0.4879   -7.5062    2.6653 H   0  0  0  0  0  0  0  0  0  0  0  0
   -1.7396   -6.3314    2.2037 H   0  0  0  0  0  0  0  0  0  0  0  0
    0.0606   -4.7657    0.7238 N   0  0  0  0  0  0  0  0  0  0  0  0
    0.9136   -3.5842    0.5429 C   0  0  2  0  0  0  0  0  0  0  0  0
    0.1222   -2.4333   -0.1150 C   0  0  0  0  0  0  0  0  0  0  0  0
   -0.9661   -2.6617   -0.6383 O   0  0  0  0  0  0  0  0  0  0  0  0
    2.1175   -3.9663   -0.3251 C   0  0  0  0  0  0  0  0  0  0  0  0
   -0.8523   -4.7312    0.2705 H   0  0  0  0  0  0  0  0  0  0  0  0
    1.2648   -3.2312    1.5188 H   0  0  0  0  0  0  0  0  0  0  0  0
    1.7841   -4.3225   -1.3049 H   0  0  0  0  0  0  0  0  0  0  0  0
    2.7738   -3.1032   -0.4725 H   0  0  0  0  0  0  0  0  0  0  0  0
    2.6976   -4.7598    0.1559 H   0  0  0  0  0  0  0  0  0  0  0  0
    0.6446   -1.1564   -0.1608 N   0  0  0  0  0  0  0  0  0  0  0  0
   -0.1161    0.0251   -0.5891 C   0  0  2  0  0  0  0  0  0  0  0  0
    0.3099    0.4587   -2.0050 C   0  0  0  0  0  0  0  0  0  0  0  0
    1.3979    0.9850   -2.2160 O   0  0  0  0  0  0  0  0  0  0  0  0
    0.1224    1.1513    0.4303 C   0  0  0  0  0  0  0  0  0  0  0  0
   -0.4919    0.8137    1.7990 C   0  0  0  0  0  0  0  0  0  0  0  0
   -0.2200    1.9350    2.7979 C   0  0  0  0  0  0  0  0  0  0  0  0
    0.7680    1.8008    3.5611 O   0  5  0  0  0  0  0  0  0  0  0  0
   -0.9714    2.9402    2.7637 O   0  0  0  0  0  0  0  0  0  0  0  0
    1.5099   -0.9898    0.3465 H   0  0  0  0  0  0  0  0  0  0  0  0
   -1.1902   -0.1855   -0.6070 H   0  0  0  0  0  0  0  0  0  0  0  0
   -0.3290    2.0792    0.0617 H   0  0  0  0  0  0  0  0  0  0  0  0
    1.1971    1.3329    0.5441 H   0  0  0  0  0  0  0  0  0  0  0  0
   -1.5722    0.6739    1.6994 H   0  0  0  0  0  0  0  0  0  0  0  0
   -0.0708   -0.1177    2.1885 H   0  0  0  0  0  0  0  0  0  0  0  0
   -0.5186    0.1966   -3.0792 N   0  0  0  0  0  0  0  0  0  0  0  0
   -0.2139    0.5391   -4.4730 C   0  0  2  0  0  0  0  0  0  0  0  0
   -1.4872    0.7528   -5.3179 C   0  0  0  0  0  0  0  0  0  0  0  0
   -2.5452    0.2174   -5.0060 O   0  0  0  0  0  0  0  0  0  0  0  0
    0.6388   -0.5838   -5.0722 C   0  0  0  0  0  0  0  0  0  0  0  0
   -1.4000   -0.2792   -2.8869 H   0  0  0  0  0  0  0  0  0  0  0  0
    0.3546    1.4746   -4.4981 H   0  0  0  0  0  0  0  0  0  0  0  0
    0.0930   -1.5325   -5.0476 H   0  0  0  0  0  0  0  0  0  0  0  0
    0.8987   -0.3557   -6.1101 H   0  0  0  0  0  0  0  0  0  0  0  0
    1.5662   -0.7013   -4.5025 H   0  0  0  0  0  0  0  0  0  0  0  0
   -1.4404    1.5415   -6.4539 N   0  0  0  0  0  0  0  0  0  0  0  0
   -2.6085    1.8301   -7.2759 C   0  0  0  0  0  0  0  0  0  0  0  0
   -0.5662    2.0179   -6.6547 H   0  0  0  0  0  0  0  0  0  0  0  0
   -3.0521    0.9017   -7.6504 H   0  0  0  0  0  0  0  0  0  0  0  0
   -3.3617    2.3716   -6.6940 H   0  0  0  0  0  0  0  0  0  0  0  0
   -2.3236    2.4467   -8.1335 H   0  0  0  0  0  0  0  0  0  0  0  0
  1  2  2  0  0  0  0
  1  3  1  0  0  0  0
  1  7  1  0  0  0  0
  3  4  1  0  0  0  0
  3  5  1  0  0  0  0
  3  6  1  0  0  0  0
  7  8  1  0  0  0  0
  7 12  1  0  0  0  0
  8  9  1  0  0  0  0
  8 11  1  0  0  0  0
  8 13  1  0  0  0  0
  9 10  2  0  0  0  0
  9 17  1  0  0  0  0
 11 14  1  0  0  0  0
 11 15  1  0  0  0  0
 11 16  1  0  0  0  0
 17 18  1  0  0  0  0
 17 26  1  0  0  0  0
 18 19  1  0  0  0  0
 18 21  1  0  0  0  0
 18 27  1  0  0  0  0
 19 20  2  0  0  0  0
 19 32  1  0  0  0  0
 21 22  1  0  0  0  0
 21 28  1  0  0  0  0
 21 29  1  0  0  0  0
 22 23  1  0  0  0  0
 22 30  1  0  0  0  0
 22 31  1  0  0  0  0
 23 24  1  0  0  0  0
 23 25  2  0  0  0  0
 32 33  1  0  0  0  0
 32 37  1  0  0  0  0
 33 34  1  0  0  0  0
 33 36  1  0  0  0  0
 33 38  1  0  0  0  0
 34 35  2  0  0  0  0
 34 42  1  0  0  0  0
 36 39  1  0  0  0  0
 36 40  1  0  0  0  0
 36 41  1  0  0  0  0
 42 43  1  0  0  0  0
 42 44  1  0  0  0  0
 43 45  1  0  0  0  0
 43 46  1  0  0  0  0
 43 47  1  0  0  0  0
M  CHG  1  24  -1
M  END
$$$$

  -OEChem-05262216243D

 47 46  0     1  0  0  0  0  0999 V2000
    0.3004   -5.7905    1.6336 C   0  0  0  0  0  0  0  0  0  0  0  0
    1.3551   -5.8248    2.2480 O   0  0  0  0  0  0  0  0  0  0  0  0
   -0.7539   -6.8552    1.8766 C   0  0  0  0  0  0  0  0  0  0  0  0
   -0.9628   -7.3930    0.9486 H   0  0  0  0  0  0  0  0  0  0  0  0
   -0.4048   -7.5693    2.6277 H   0  0  0  0  0  0  0  0  0  0  0  0
   -1.6757   -6.3901    2.2349 H   0  0  0  0  0  0  0  0  0  0  0  0
    0.0560   -4.7909    0.7172 N   0  0  0  0  0  0  0  0  0  0  0  0
    0.8943   -3.5999    0.5285 C   0  0  2  0  0  0  0  0  0  0  0  0
    0.0687   -2.4379   -0.0650 C   0  0  0  0  0  0  0  0  0  0  0  0
   -1.0532   -2.6550   -0.5170 O   0  0  0  0  0  0  0  0  0  0  0  0
    2.0629   -3.9515   -0.3995 C   0  0  0  0  0  0  0  0  0  0  0  0
   -0.8794   -4.7449    0.3135 H   0  0  0  0  0  0  0  0  0  0  0  0
    1.2849   -3.2678    1.4968 H   0  0  0  0  0  0  0  0  0  0  0  0
    1.6907   -4.2873   -1.3726 H   0  0  0  0  0  0  0  0  0  0  0  0
    2.7062   -3.0796   -0.5538 H   0  0  0  0  0  0  0  0  0  0  0  0
    2.6690   -4.7514    0.0368 H   0  0  0  0  0  0  0  0  0  0  0  0
    0.5954   -1.1636   -0.1247 N   0  0  0  0  0  0  0  0  0  0  0  0
   -0.1444    0.0249   -0.5703 C   0  0  2  0  0  0  0  0  0  0  0  0
    0.2920    0.4475   -1.9861 C   0  0  0  0  0  0  0  0  0  0  0  0
    1.4652    0.7081   -2.2352 O   0  0  0  0  0  0  0  0  0  0  0  0
    0.1070    1.1637    0.4300 C   0  0  0  0  0  0  0  0  0  0  0  0
   -0.5155    0.8611    1.8026 C   0  0  0  0  0  0  0  0  0  0  0  0
   -0.2265    1.9991    2.7775 C   0  0  0  0  0  0  0  0  0  0  0  0
    0.7398    1.8536    3.5659 O   0  5  0  0  0  0  0  0  0  0  0  0
   -0.9367    3.0312    2.6929 O   0  0  0  0  0  0  0  0  0  0  0  0
    1.5166   -1.0156    0.2787 H   0  0  0  0  0  0  0  0  0  0  0  0
   -1.2205   -0.1740   -0.5908 H   0  0  0  0  0  0  0  0  0  0  0  0
   -0.3294    2.0919    0.0443 H   0  0  0  0  0  0  0  0  0  0  0  0
    1.1840    1.3307    0.5445 H   0  0  0  0  0  0  0  0  0  0  0  0
   -1.5978    0.7364    1.7041 H   0  0  0  0  0  0  0  0  0  0  0  0
   -0.1095   -0.0696    2.2096 H   0  0  0  0  0  0  0  0  0  0  0  0
   -0.6295    0.4860   -3.0152 N   0  0  0  0  0  0  0  0  0  0  0  0
   -0.3266    0.8962   -4.3911 C   0  0  2  0  0  0  0  0  0  0  0  0
   -1.5571    1.4886   -5.1086 C   0  0  0  0  0  0  0  0  0  0  0  0
   -2.6917    1.1622   -4.7777 O   0  0  0  0  0  0  0  0  0  0  0  0
    0.1976   -0.3214   -5.1590 C   0  0  0  0  0  0  0  0  0  0  0  0
   -1.5987    0.2653   -2.7888 H   0  0  0  0  0  0  0  0  0  0  0  0
    0.4468    1.6712   -4.3751 H   0  0  0  0  0  0  0  0  0  0  0  0
   -0.5620   -1.1093   -5.1899 H   0  0  0  0  0  0  0  0  0  0  0  0
    0.4573   -0.0447   -6.1852 H   0  0  0  0  0  0  0  0  0  0  0  0
    1.0933   -0.7210   -4.6728 H   0  0  0  0  0  0  0  0  0  0  0  0
   -1.3867    2.3826   -6.1507 N   0  0  0  0  0  0  0  0  0  0  0  0
   -2.4958    3.0252   -6.8438 C   0  0  0  0  0  0  0  0  0  0  0  0
   -0.4382    2.6821   -6.3563 H   0  0  0  0  0  0  0  0  0  0  0  0
   -3.1630    2.2738   -7.2791 H   0  0  0  0  0  0  0  0  0  0  0  0
   -3.0705    3.6490   -6.1513 H   0  0  0  0  0  0  0  0  0  0  0  0
   -2.1186    3.6604   -7.6507 H   0  0  0  0  0  0  0  0  0  0  0  0
  1  2  2  0  0  0  0
  1  3  1  0  0  0  0
  1  7  1  0  0  0  0
  3  4  1  0  0  0  0
  3  5  1  0  0  0  0
  3  6  1  0  0  0  0
  7  8  1  0  0  0  0
  7 12  1  0  0  0  0
  8  9  1  0  0  0  0
  8 11  1  0  0  0  0
  8 13  1  0  0  0  0
  9 10  2  0  0  0  0
  9 17  1  0  0  0  0
 11 14  1  0  0  0  0
 11 15  1  0  0  0  0
 11 16  1  0  0  0  0
 17 18  1  0  0  0  0
 17 26  1  0  0  0  0
 18 19  1  0  0  0  0
 18 21  1  0  0  0  0
 18 27  1  0  0  0  0
 19 20  2  0  0  0  0
 19 32  1  0  0  0  0
 21 22  1  0  0  0  0
 21 28  1  0  0  0  0
 21 29  1  0  0  0  0
 22 23  1  0  0  0  0
 22 30  1  0  0  0  0
 22 31  1  0  0  0  0
 23 24  1  0  0  0  0
 23 25  2  0  0  0  0
 32 33  1  0  0  0  0
 32 37  1  0  0  0  0
 33 34  1  0  0  0  0
 33 36  1  0  0  0  0
 33 38  1  0  0  0  0
 34 35  2  0  0  0  0
 34 42  1  0  0  0  0
 36 39  1  0  0  0  0
 36 40  1  0  0  0  0
 36 41  1  0  0  0  0
 42 43  1  0  0  0  0
 42 44  1  0  0  0  0
 43 45  1  0  0  0  0
 43 46  1  0  0  0  0
 43 47  1  0  0  0  0
M  CHG  1  24  -1
M  END
$$$$

  -OEChem-05262216243D

 47 46  0     1  0  0  0  0  0999 V2000
    0.3426   -5.8397    1.5684 C   0  0  0  0  0  0  0  0  0  0  0  0
    1.4250   -5.8893    2.1317 O   0  0  0  0  0  0  0  0  0  0  0  0
   -0.6945   -6.9180    1.8243 C   0  0  0  0  0  0  0  0  0  0  0  0
   -0.9523   -7.4179    0.8874 H   0  0  0  0  0  0  0  0  0  0  0  0
   -0.3023   -7.6605    2.5247 H   0  0  0  0  0  0  0  0  0  0  0  0
   -1.5962   -6.4724    2.2519 H   0  0  0  0  0  0  0  0  0  0  0  0
    0.0502   -4.8109    0.6995 N   0  0  0  0  0  0  0  0  0  0  0  0
    0.8705   -3.6060    0.5173 C   0  0  2  0  0  0  0  0  0  0  0  0
    0.0101   -2.4283    0.0090 C   0  0  0  0  0  0  0  0  0  0  0  0
   -1.1444   -2.6330   -0.3589 O   0  0  0  0  0  0  0  0  0  0  0  0
    1.9965   -3.9129   -0.4769 C   0  0  0  0  0  0  0  0  0  0  0  0
   -0.9053   -4.7547    0.3471 H   0  0  0  0  0  0  0  0  0  0  0  0
    1.3047   -3.3083    1.4782 H   0  0  0  0  0  0  0  0  0  0  0  0
    1.5806   -4.2006   -1.4478 H   0  0  0  0  0  0  0  0  0  0  0  0
    2.6348   -3.0351   -0.6173 H   0  0  0  0  0  0  0  0  0  0  0  0
    2.6195   -4.7332   -0.1070 H   0  0  0  0  0  0  0  0  0  0  0  0
    0.5427   -1.1575   -0.0725 N   0  0  0  0  0  0  0  0  0  0  0  0
   -0.1836    0.0324   -0.5391 C   0  0  2  0  0  0  0  0  0  0  0  0
    0.2587    0.4315   -1.9604 C   0  0  0  0  0  0  0  0  0  0  0  0
    1.4468    0.4302   -2.2710 O   0  0  0  0  0  0  0  0  0  0  0  0
    0.0856    1.1951    0.4283 C   0  0  0  0  0  0  0  0  0  0  0  0
   -0.5297    0.9440    1.8154 C   0  0  0  0  0  0  0  0  0  0  0  0
   -0.2255    2.1039    2.7627 C   0  0  0  0  0  0  0  0  0  0  0  0
    0.4962    1.8649    3.7618 O   0  5  0  0  0  0  0  0  0  0  0  0
   -0.6726    3.2370    2.4554 O   0  0  0  0  0  0  0  0  0  0  0  0
    1.5170   -1.0371    0.1897 H   0  0  0  0  0  0  0  0  0  0  0  0
   -1.2615   -0.1570   -0.5566 H   0  0  0  0  0  0  0  0  0  0  0  0
   -0.3429    2.1158    0.0162 H   0  0  0  0  0  0  0  0  0  0  0  0
    1.1650    1.3528    0.5301 H   0  0  0  0  0  0  0  0  0  0  0  0
   -1.6143    0.8302    1.7297 H   0  0  0  0  0  0  0  0  0  0  0  0
   -0.1310    0.0192    2.2423 H   0  0  0  0  0  0  0  0  0  0  0  0
   -0.6791    0.7673   -2.9188 N   0  0  0  0  0  0  0  0  0  0  0  0
   -0.3525    1.2413   -4.2687 C   0  0  2  0  0  0  0  0  0  0  0  0
   -1.4435    2.1706   -4.8389 C   0  0  0  0  0  0  0  0  0  0  0  0
   -2.6127    2.0448   -4.4923 O   0  0  0  0  0  0  0  0  0  0  0  0
   -0.1634    0.0259   -5.1817 C   0  0  0  0  0  0  0  0  0  0  0  0
   -1.6564    0.8027   -2.6304 H   0  0  0  0  0  0  0  0  0  0  0  0
    0.5803    1.8136   -4.2347 H   0  0  0  0  0  0  0  0  0  0  0  0
   -1.0866   -0.5604   -5.2331 H   0  0  0  0  0  0  0  0  0  0  0  0
    0.1051    0.3453   -6.1931 H   0  0  0  0  0  0  0  0  0  0  0  0
    0.6361   -0.6164   -4.7989 H   0  0  0  0  0  0  0  0  0  0  0  0
   -1.1118    3.1444   -5.7641 N   0  0  0  0  0  0  0  0  0  0  0  0
   -2.0751    4.0967   -6.3016 C   0  0  0  0  0  0  0  0  0  0  0  0
   -0.1261    3.2699   -5.9746 H   0  0  0  0  0  0  0  0  0  0  0  0
   -2.8826    3.5723   -6.8232 H   0  0  0  0  0  0  0  0  0  0  0  0
   -2.5082    4.6997   -5.4965 H   0  0  0  0  0  0  0  0  0  0  0  0
   -1.5848    4.7687   -7.0123 H   0  0  0  0  0  0  0  0  0  0  0  0
  1  2  2  0  0  0  0
  1  3  1  0  0  0  0
  1  7  1  0  0  0  0
  3  4  1  0  0  0  0
  3  5  1  0  0  0  0
  3  6  1  0  0  0  0
  7  8  1  0  0  0  0
  7 12  1  0  0  0  0
  8  9  1  0  0  0  0
  8 11  1  0  0  0  0
  8 13  1  0  0  0  0
  9 10  2  0  0  0  0
  9 17  1  0  0  0  0
 11 14  1  0  0  0  0
 11 15  1  0  0  0  0
 11 16  1  0  0  0  0
 17 18  1  0  0  0  0
 17 26  1  0  0  0  0
 18 19  1  0  0  0  0
 18 21  1  0  0  0  0
 18 27  1  0  0  0  0
 19 20  2  0  0  0  0
 19 32  1  0  0  0  0
 21 22  1  0  0  0  0
 21 28  1  0  0  0  0
 21 29  1  0  0  0  0
 22 23  1  0  0  0  0
 22 30  1  0  0  0  0
 22 31  1  0  0  0  0
 23 24  1  0  0  0  0
 23 25  2  0  0  0  0
 32 33  1  0  0  0  0
 32 37  1  0  0  0  0
 33 34  1  0  0  0  0
 33 36  1  0  0  0  0
 33 38  1  0  0  0  0
 34 35  2  0  0  0  0
 34 42  1  0  0  0  0
 36 39  1  0  0  0  0
 36 40  1  0  0  0  0
 36 41  1  0  0  0  0
 42 43  1  0  0  0  0
 42 44  1  0  0  0  0
 43 45  1  0  0  0  0
 43 46  1  0  0  0  0
 43 47  1  0  0  0  0
M  CHG  1  24  -1
M  END
$$$$

  -OEChem-05262216243D

 47 46  0     1  0  0  0  0  0999 V2000
    0.4037   -5.8654    1.4675 C   0  0  0  0  0  0  0  0  0  0  0  0
    1.5224   -5.9414    1.9513 O   0  0  0  0  0  0  0  0  0  0  0  0
   -0.6110   -6.9636    1.7270 C   0  0  0  0  0  0  0  0  0  0  0  0
   -0.9082   -7.4267    0.7830 H   0  0  0  0  0  0  0  0  0  0  0  0
   -0.1805   -7.7304    2.3770 H   0  0  0  0  0  0  0  0  0  0  0  0
   -1.4954   -6.5448    2.2138 H   0  0  0  0  0  0  0  0  0  0  0  0
    0.0505   -4.7903    0.6819 N   0  0  0  0  0  0  0  0  0  0  0  0
    0.8611   -3.5805    0.4932 C   0  0  2  0  0  0  0  0  0  0  0  0
   -0.0288   -2.3835    0.0935 C   0  0  0  0  0  0  0  0  0  0  0  0
   -1.2105   -2.5717   -0.1863 O   0  0  0  0  0  0  0  0  0  0  0  0
    1.9138   -3.8485   -0.5892 C   0  0  0  0  0  0  0  0  0  0  0  0
   -0.9269   -4.7179    0.3989 H   0  0  0  0  0  0  0  0  0  0  0  0
    1.3616   -3.3224    1.4328 H   0  0  0  0  0  0  0  0  0  0  0  0
    1.4296   -4.0922   -1.5401 H   0  0  0  0  0  0  0  0  0  0  0  0
    2.5475   -2.9685   -0.7371 H   0  0  0  0  0  0  0  0  0  0  0  0
    2.5549   -4.6865   -0.2989 H   0  0  0  0  0  0  0  0  0  0  0  0
    0.5124   -1.1179   -0.0058 N   0  0  0  0  0  0  0  0  0  0  0  0
   -0.2102    0.0664   -0.4914 C   0  0  2  0  0  0  0  0  0  0  0  0
    0.2341    0.4411   -1.9192 C   0  0  0  0  0  0  0  0  0  0  0  0
    1.3719    0.1931   -2.3111 O   0  0  0  0  0  0  0  0  0  0  0  0
    0.0704    1.2493    0.4481 C   0  0  0  0  0  0  0  0  0  0  0  0
   -0.5351    1.0398    1.8500 C   0  0  0  0  0  0  0  0  0  0  0  0
   -0.2480    2.1977    2.8138 C   0  0  0  0  0  0  0  0  0  0  0  0
   -0.7208    2.0945    3.9714 O   0  5  0  0  0  0  0  0  0  0  0  0
    0.4326    3.1738    2.4064 O   0  0  0  0  0  0  0  0  0  0  0  0
    1.5178   -1.0305    0.1122 H   0  0  0  0  0  0  0  0  0  0  0  0
   -1.2891   -0.1183   -0.5062 H   0  0  0  0  0  0  0  0  0  0  0  0
   -0.3534    2.1642    0.0193 H   0  0  0  0  0  0  0  0  0  0  0  0
    1.1524    1.3993    0.5355 H   0  0  0  0  0  0  0  0  0  0  0  0
   -1.6188    0.9202    1.7614 H   0  0  0  0  0  0  0  0  0  0  0  0
   -0.1332    0.1243    2.2926 H   0  0  0  0  0  0  0  0  0  0  0  0
   -0.6509    1.0545   -2.7855 N   0  0  0  0  0  0  0  0  0  0  0  0
   -0.2962    1.5488   -4.1204 C   0  0  2  0  0  0  0  0  0  0  0  0
   -1.1615    2.7564   -4.5345 C   0  0  0  0  0  0  0  0  0  0  0  0
   -2.3174    2.8565   -4.1382 O   0  0  0  0  0  0  0  0  0  0  0  0
   -0.4622    0.4044   -5.1243 C   0  0  0  0  0  0  0  0  0  0  0  0
   -1.5703    1.3028   -2.4213 H   0  0  0  0  0  0  0  0  0  0  0  0
    0.7481    1.8780   -4.1198 H   0  0  0  0  0  0  0  0  0  0  0  0
   -1.4982    0.0503   -5.1323 H   0  0  0  0  0  0  0  0  0  0  0  0
   -0.1989    0.7384   -6.1322 H   0  0  0  0  0  0  0  0  0  0  0  0
    0.1898   -0.4331   -4.8562 H   0  0  0  0  0  0  0  0  0  0  0  0
   -0.6410    3.7346   -5.3629 N   0  0  0  0  0  0  0  0  0  0  0  0
   -1.3668    4.9497   -5.7106 C   0  0  0  0  0  0  0  0  0  0  0  0
    0.3463    3.6704   -5.5927 H   0  0  0  0  0  0  0  0  0  0  0  0
   -2.3074    4.7031   -6.2142 H   0  0  0  0  0  0  0  0  0  0  0  0
   -1.5904    5.5331   -4.8111 H   0  0  0  0  0  0  0  0  0  0  0  0
   -0.7666    5.5681   -6.3846 H   0  0  0  0  0  0  0  0  0  0  0  0
  1  2  2  0  0  0  0
  1  3  1  0  0  0  0
  1  7  1  0  0  0  0
  3  4  1  0  0  0  0
  3  5  1  0  0  0  0
  3  6  1  0  0  0  0
  7  8  1  0  0  0  0
  7 12  1  0  0  0  0
  8  9  1  0  0  0  0
  8 11  1  0  0  0  0
  8 13  1  0  0  0  0
  9 10  2  0  0  0  0
  9 17  1  0  0  0  0
 11 14  1  0  0  0  0
 11 15  1  0  0  0  0
 11 16  1  0  0  0  0
 17 18  1  0  0  0  0
 17 26  1  0  0  0  0
 18 19  1  0  0  0  0
 18 21  1  0  0  0  0
 18 27  1  0  0  0  0
 19 20  2  0  0  0  0
 19 32  1  0  0  0  0
 21 22  1  0  0  0  0
 21 28  1  0  0  0  0
 21 29  1  0  0  0  0
 22 23  1  0  0  0  0
 22 30  1  0  0  0  0
 22 31  1  0  0  0  0
 23 24  1  0  0  0  0
 23 25  2  0  0  0  0
 32 33  1  0  0  0  0
 32 37  1  0  0  0  0
 33 34  1  0  0  0  0
 33 36  1  0  0  0  0
 33 38  1  0  0  0  0
 34 35  2  0  0  0  0
 34 42  1  0  0  0  0
 36 39  1  0  0  0  0
 36 40  1  0  0  0  0
 36 41  1  0  0  0  0
 42 43  1  0  0  0  0
 42 44  1  0  0  0  0
 43 45  1  0  0  0  0
 43 46  1  0  0  0  0
 43 47  1  0  0  0  0
M  CHG  1  24  -1
M  END
$$$$

  -OEChem-05262216243D

 47 46  0     1  0  0  0  0  0999 V2000
    0.3636   -5.8295    1.5017 C   0  0  0  0  0  0  0  0  0  0  0  0
    1.4832   -5.9039    1.9840 O   0  0  0  0  0  0  0  0  0  0  0  0
   -0.6736   -6.8887    1.8261 C   0  0  0  0  0  0  0  0  0  0  0  0
   -1.0587   -7.3293    0.9033 H   0  0  0  0  0  0  0  0  0  0  0  0
   -0.2274   -7.6789    2.4359 H   0  0  0  0  0  0  0  0  0  0  0  0
   -1.5020   -6.4404    2.3806 H   0  0  0  0  0  0  0  0  0  0  0  0
    0.0287   -4.7886    0.6640 N   0  0  0  0  0  0  0  0  0  0  0  0
    0.8534   -3.5952    0.4371 C   0  0  2  0  0  0  0  0  0  0  0  0
   -0.0281   -2.3942    0.0329 C   0  0  0  0  0  0  0  0  0  0  0  0
   -1.2058   -2.5803   -0.2654 O   0  0  0  0  0  0  0  0  0  0  0  0
    1.8806   -3.8986   -0.6596 C   0  0  0  0  0  0  0  0  0  0  0  0
   -0.9493   -4.7095    0.3851 H   0  0  0  0  0  0  0  0  0  0  0  0
    1.3751   -3.3260    1.3620 H   0  0  0  0  0  0  0  0  0  0  0  0
    1.3747   -4.1606   -1.5942 H   0  0  0  0  0  0  0  0  0  0  0  0
    2.5170   -3.0272   -0.8418 H   0  0  0  0  0  0  0  0  0  0  0  0
    2.5204   -4.7354   -0.3621 H   0  0  0  0  0  0  0  0  0  0  0  0
    0.5083   -1.1238   -0.0198 N   0  0  0  0  0  0  0  0  0  0  0  0
   -0.2122    0.0681   -0.4924 C   0  0  2  0  0  0  0  0  0  0  0  0
    0.2562    0.4928   -1.9008 C   0  0  0  0  0  0  0  0  0  0  0  0
    1.3188    0.0853   -2.3643 O   0  0  0  0  0  0  0  0  0  0  0  0
    0.0503    1.2134    0.4990 C   0  0  0  0  0  0  0  0  0  0  0  0
   -0.5827    0.9471    1.8735 C   0  0  0  0  0  0  0  0  0  0  0  0
   -0.2706    2.1012    2.8226 C   0  0  0  0  0  0  0  0  0  0  0  0
    0.7905    2.0295    3.4904 O   0  5  0  0  0  0  0  0  0  0  0  0
   -1.0546    3.0818    2.8228 O   0  0  0  0  0  0  0  0  0  0  0  0
    1.5092   -1.0348    0.1303 H   0  0  0  0  0  0  0  0  0  0  0  0
   -1.2900   -0.1187   -0.5349 H   0  0  0  0  0  0  0  0  0  0  0  0
   -0.3672    2.1461    0.1037 H   0  0  0  0  0  0  0  0  0  0  0  0
    1.1297    1.3610    0.6174 H   0  0  0  0  0  0  0  0  0  0  0  0
   -1.6667    0.8382    1.7743 H   0  0  0  0  0  0  0  0  0  0  0  0
   -0.1929    0.0191    2.3013 H   0  0  0  0  0  0  0  0  0  0  0  0
   -0.4921    1.3825   -2.6494 N   0  0  0  0  0  0  0  0  0  0  0  0
   -0.0755    1.9382   -3.9428 C   0  0  2  0  0  0  0  0  0  0  0  0
   -0.7216    3.3120   -4.2139 C   0  0  0  0  0  0  0  0  0  0  0  0
   -1.8370    3.5708   -3.7765 O   0  0  0  0  0  0  0  0  0  0  0  0
   -0.4527    0.9491   -5.0504 C   0  0  0  0  0  0  0  0  0  0  0  0
   -1.3357    1.7659   -2.2226 H   0  0  0  0  0  0  0  0  0  0  0  0
    1.0101    2.0810   -3.9422 H   0  0  0  0  0  0  0  0  0  0  0  0
   -1.5343    0.7806   -5.0596 H   0  0  0  0  0  0  0  0  0  0  0  0
   -0.1513    1.3360   -6.0285 H   0  0  0  0  0  0  0  0  0  0  0  0
    0.0477   -0.0110   -4.8899 H   0  0  0  0  0  0  0  0  0  0  0  0
   -0.0487    4.2615   -4.9624 N   0  0  0  0  0  0  0  0  0  0  0  0
   -0.5500    5.6151   -5.1632 C   0  0  0  0  0  0  0  0  0  0  0  0
    0.9066    4.0476   -5.2328 H   0  0  0  0  0  0  0  0  0  0  0  0
   -1.5355    5.5927   -5.6398 H   0  0  0  0  0  0  0  0  0  0  0  0
   -0.6334    6.1371   -4.2041 H   0  0  0  0  0  0  0  0  0  0  0  0
    0.1313    6.1786   -5.8077 H   0  0  0  0  0  0  0  0  0  0  0  0
  1  2  2  0  0  0  0
  1  3  1  0  0  0  0
  1  7  1  0  0  0  0
  3  4  1  0  0  0  0
  3  5  1  0  0  0  0
  3  6  1  0  0  0  0
  7  8  1  0  0  0  0
  7 12  1  0  0  0  0
  8  9  1  0  0  0  0
  8 11  1  0  0  0  0
  8 13  1  0  0  0  0
  9 10  2  0  0  0  0
  9 17  1  0  0  0  0
 11 14  1  0  0  0  0
 11 15  1  0  0  0  0
 11 16  1  0  0  0  0
 17 18  1  0  0  0  0
 17 26  1  0  0  0  0
 18 19  1  0  0  0  0
 18 21  1  0  0  0  0
 18 27  1  0  0  0  0
 19 20  2  0  0  0  0
 19 32  1  0  0  0  0
 21 22  1  0  0  0  0
 21 28  1  0  0  0  0
 21 29  1  0  0  0  0
 22 23  1  0  0  0  0
 22 30  1  0  0  0  0
 22 31  1  0  0  0  0
 23 24  1  0  0  0  0
 23 25  2  0  0  0  0
 32 33  1  0  0  0  0
 32 37  1  0  0  0  0
 33 34  1  0  0  0  0
 33 36  1  0  0  0  0
 33 38  1  0  0  0  0
 34 35  2  0  0  0  0
 34 42  1  0  0  0  0
 36 39  1  0  0  0  0
 36 40  1  0  0  0  0
 36 41  1  0  0  0  0
 42 43  1  0  0  0  0
 42 44  1  0  0  0  0
 43 45  1  0  0  0  0
 43 46  1  0  0  0  0
 43 47  1  0  0  0  0
M  CHG  1  24  -1
M  END
$$$$

  -OEChem-05262216243D

 47 46  0     1  0  0  0  0  0999 V2000
    0.3541   -5.8269    1.4135 C   0  0  0  0  0  0  0  0  0  0  0  0
    1.4925   -5.9337    1.8427 O   0  0  0  0  0  0  0  0  0  0  0  0
   -0.6838   -6.8824    1.7471 C   0  0  0  0  0  0  0  0  0  0  0  0
   -1.0841   -7.3152    0.8271 H   0  0  0  0  0  0  0  0  0  0  0  0
   -0.2334   -7.6787    2.3460 H   0  0  0  0  0  0  0  0  0  0  0  0
   -1.5018   -6.4331    2.3158 H   0  0  0  0  0  0  0  0  0  0  0  0
   -0.0008   -4.7527    0.6278 N   0  0  0  0  0  0  0  0  0  0  0  0
    0.8378   -3.5708    0.3921 C   0  0  2  0  0  0  0  0  0  0  0  0
   -0.0354   -2.3328    0.0950 C   0  0  0  0  0  0  0  0  0  0  0  0
   -1.2388   -2.4735   -0.1137 O   0  0  0  0  0  0  0  0  0  0  0  0
    1.7802   -3.8561   -0.7824 C   0  0  0  0  0  0  0  0  0  0  0  0
   -0.9882   -4.6484    0.3940 H   0  0  0  0  0  0  0  0  0  0  0  0
    1.4285   -3.3518    1.2882 H   0  0  0  0  0  0  0  0  0  0  0  0
    1.2062   -4.0621   -1.6915 H   0  0  0  0  0  0  0  0  0  0  0  0
    2.4311   -2.9967   -0.9706 H   0  0  0  0  0  0  0  0  0  0  0  0
    2.4108   -4.7232   -0.5626 H   0  0  0  0  0  0  0  0  0  0  0  0
    0.5304   -1.0744    0.0567 N   0  0  0  0  0  0  0  0  0  0  0  0
   -0.1829    0.1241   -0.4086 C   0  0  2  0  0  0  0  0  0  0  0  0
   -0.0068    0.3502   -1.9289 C   0  0  0  0  0  0  0  0  0  0  0  0
    0.7409   -0.3608   -2.5966 O   0  0  0  0  0  0  0  0  0  0  0  0
    0.3785    1.3267    0.3707 C   0  0  0  0  0  0  0  0  0  0  0  0
    0.0305    1.2606    1.8657 C   0  0  0  0  0  0  0  0  0  0  0  0
    0.6308    2.4605    2.5930 C   0  0  0  0  0  0  0  0  0  0  0  0
    1.8490    2.4002    2.8925 O   0  5  0  0  0  0  0  0  0  0  0  0
   -0.1090    3.4553    2.7882 O   0  0  0  0  0  0  0  0  0  0  0  0
    1.5413   -1.0193    0.1334 H   0  0  0  0  0  0  0  0  0  0  0  0
   -1.2546    0.0399   -0.2010 H   0  0  0  0  0  0  0  0  0  0  0  0
   -0.0326    2.2582   -0.0324 H   0  0  0  0  0  0  0  0  0  0  0  0
    1.4670    1.3701    0.2505 H   0  0  0  0  0  0  0  0  0  0  0  0
   -1.0555    1.2549    1.9987 H   0  0  0  0  0  0  0  0  0  0  0  0
    0.4265    0.3440    2.3118 H   0  0  0  0  0  0  0  0  0  0  0  0
   -0.6072    1.4290   -2.5529 N   0  0  0  0  0  0  0  0  0  0  0  0
   -0.3990    1.8032   -3.9570 C   0  0  2  0  0  0  0  0  0  0  0  0
   -0.6863    3.2980   -4.2012 C   0  0  0  0  0  0  0  0  0  0  0  0
   -1.5390    3.8812   -3.5422 O   0  0  0  0  0  0  0  0  0  0  0  0
   -1.3084    0.9426   -4.8401 C   0  0  0  0  0  0  0  0  0  0  0  0
   -1.1664    2.0580   -1.9761 H   0  0  0  0  0  0  0  0  0  0  0  0
    0.6456    1.6190   -4.2283 H   0  0  0  0  0  0  0  0  0  0  0  0
   -2.3584    1.0996   -4.5729 H   0  0  0  0  0  0  0  0  0  0  0  0
   -1.1730    1.2012   -5.8945 H   0  0  0  0  0  0  0  0  0  0  0  0
   -1.0716   -0.1185   -4.7124 H   0  0  0  0  0  0  0  0  0  0  0  0
    0.0082    3.9907   -5.1768 N   0  0  0  0  0  0  0  0  0  0  0  0
   -0.1480    5.4228   -5.3975 C   0  0  0  0  0  0  0  0  0  0  0  0
    0.7591    3.4988   -5.6517 H   0  0  0  0  0  0  0  0  0  0  0  0
   -1.1833    5.6593   -5.6651 H   0  0  0  0  0  0  0  0  0  0  0  0
    0.1183    5.9803   -4.4932 H   0  0  0  0  0  0  0  0  0  0  0  0
    0.5031    5.7526   -6.2127 H   0  0  0  0  0  0  0  0  0  0  0  0
  1  2  2  0  0  0  0
  1  3  1  0  0  0  0
  1  7  1  0  0  0  0
  3  4  1  0  0  0  0
  3  5  1  0  0  0  0
  3  6  1  0  0  0  0
  7  8  1  0  0  0  0
  7 12  1  0  0  0  0
  8  9  1  0  0  0  0
  8 11  1  0  0  0  0
  8 13  1  0  0  0  0
  9 10  2  0  0  0  0
  9 17  1  0  0  0  0
 11 14  1  0  0  0  0
 11 15  1  0  0  0  0
 11 16  1  0  0  0  0
 17 18  1  0  0  0  0
 17 26  1  0  0  0  0
 18 19  1  0  0  0  0
 18 21  1  0  0  0  0
 18 27  1  0  0  0  0
 19 20  2  0  0  0  0
 19 32  1  0  0  0  0
 21 22  1  0  0  0  0
 21 28  1  0  0  0  0
 21 29  1  0  0  0  0
 22 23  1  0  0  0  0
 22 30  1  0  0  0  0
 22 31  1  0  0  0  0
 23 24  1  0  0  0  0
 23 25  2  0  0  0  0
 32 33  1  0  0  0  0
 32 37  1  0  0  0  0
 33 34  1  0  0  0  0
 33 36  1  0  0  0  0
 33 38  1  0  0  0  0
 34 35  2  0  0  0  0
 34 42  1  0  0  0  0
 36 39  1  0  0  0  0
 36 40  1  0  0  0  0
 36 41  1  0  0  0  0
 42 43  1  0  0  0  0
 42 44  1  0  0  0  0
 43 45  1  0  0  0  0
 43 46  1  0  0  0  0
 43 47  1  0  0  0  0
M  CHG  1  24  -1
M  END
$$$$

  -OEChem-05262216243D

 47 46  0     1  0  0  0  0  0999 V2000
    0.3562   -5.8198    1.3711 C   0  0  0  0  0  0  0  0  0  0  0  0
    1.4999   -5.9395    1.7828 O   0  0  0  0  0  0  0  0  0  0  0  0
   -0.6826   -6.8751    1.7038 C   0  0  0  0  0  0  0  0  0  0  0  0
   -1.0958   -7.2946    0.7832 H   0  0  0  0  0  0  0  0  0  0  0  0
   -0.2282   -7.6812    2.2868 H   0  0  0  0  0  0  0  0  0  0  0  0
   -1.4916   -6.4293    2.2881 H   0  0  0  0  0  0  0  0  0  0  0  0
   -0.0041   -4.7310    0.6079 N   0  0  0  0  0  0  0  0  0  0  0  0
    0.8389   -3.5519    0.3734 C   0  0  2  0  0  0  0  0  0  0  0  0
   -0.0297   -2.3064    0.0947 C   0  0  0  0  0  0  0  0  0  0  0  0
   -1.2352   -2.4405   -0.1069 O   0  0  0  0  0  0  0  0  0  0  0  0
    1.7663   -3.8318   -0.8138 C   0  0  0  0  0  0  0  0  0  0  0  0
   -0.9935   -4.6190    0.3859 H   0  0  0  0  0  0  0  0  0  0  0  0
    1.4399   -3.3445    1.2655 H   0  0  0  0  0  0  0  0  0  0  0  0
    1.1806   -4.0219   -1.7188 H   0  0  0  0  0  0  0  0  0  0  0  0
    2.4222   -2.9759   -0.9989 H   0  0  0  0  0  0  0  0  0  0  0  0
    2.3912   -4.7069   -0.6107 H   0  0  0  0  0  0  0  0  0  0  0  0
    0.5400   -1.0484    0.0807 N   0  0  0  0  0  0  0  0  0  0  0  0
   -0.1662    0.1571   -0.3802 C   0  0  2  0  0  0  0  0  0  0  0  0
    0.0342    0.3996   -1.8983 C   0  0  0  0  0  0  0  0  0  0  0  0
    0.5804   -0.4408   -2.6092 O   0  0  0  0  0  0  0  0  0  0  0  0
    0.3782    1.3403    0.4435 C   0  0  0  0  0  0  0  0  0  0  0  0
   -0.0067    1.2379    1.9280 C   0  0  0  0  0  0  0  0  0  0  0  0
    0.5768    2.4177    2.7005 C   0  0  0  0  0  0  0  0  0  0  0  0
    1.8020    2.3746    2.9748 O   0  5  0  0  0  0  0  0  0  0  0  0
   -0.1846    3.3809    2.9598 O   0  0  0  0  0  0  0  0  0  0  0  0
    1.5492   -0.9965    0.1779 H   0  0  0  0  0  0  0  0  0  0  0  0
   -1.2420    0.0705   -0.1966 H   0  0  0  0  0  0  0  0  0  0  0  0
   -0.0257    2.2832    0.0608 H   0  0  0  0  0  0  0  0  0  0  0  0
    1.4689    1.3878    0.3487 H   0  0  0  0  0  0  0  0  0  0  0  0
   -1.0957    1.2311    2.0328 H   0  0  0  0  0  0  0  0  0  0  0  0
    0.3764    0.3100    2.3617 H   0  0  0  0  0  0  0  0  0  0  0  0
   -0.2794    1.6183   -2.4740 N   0  0  0  0  0  0  0  0  0  0  0  0
   -0.0168    1.9767   -3.8732 C   0  0  2  0  0  0  0  0  0  0  0  0
    0.0668    3.5035   -4.0705 C   0  0  0  0  0  0  0  0  0  0  0  0
   -0.5894    4.2572   -3.3617 O   0  0  0  0  0  0  0  0  0  0  0  0
   -1.1305    1.3963   -4.7510 C   0  0  0  0  0  0  0  0  0  0  0  0
   -0.6635    2.3434   -1.8676 H   0  0  0  0  0  0  0  0  0  0  0  0
    0.9440    1.5512   -4.1804 H   0  0  0  0  0  0  0  0  0  0  0  0
   -2.1028    1.7989   -4.4495 H   0  0  0  0  0  0  0  0  0  0  0  0
   -0.9588    1.6472   -5.8017 H   0  0  0  0  0  0  0  0  0  0  0  0
   -1.1616    0.3062   -4.6576 H   0  0  0  0  0  0  0  0  0  0  0  0
    0.8714    4.0354   -5.0624 N   0  0  0  0  0  0  0  0  0  0  0  0
    1.0612    5.4683   -5.2485 C   0  0  0  0  0  0  0  0  0  0  0  0
    1.4546    3.3898   -5.5860 H   0  0  0  0  0  0  0  0  0  0  0  0
    0.1044    5.9583   -5.4574 H   0  0  0  0  0  0  0  0  0  0  0  0
    1.4979    5.9155   -4.3493 H   0  0  0  0  0  0  0  0  0  0  0  0
    1.7350    5.6540   -6.0903 H   0  0  0  0  0  0  0  0  0  0  0  0
  1  2  2  0  0  0  0
  1  3  1  0  0  0  0
  1  7  1  0  0  0  0
  3  4  1  0  0  0  0
  3  5  1  0  0  0  0
  3  6  1  0  0  0  0
  7  8  1  0  0  0  0
  7 12  1  0  0  0  0
  8  9  1  0  0  0  0
  8 11  1  0  0  0  0
  8 13  1  0  0  0  0
  9 10  2  0  0  0  0
  9 17  1  0  0  0  0
 11 14  1  0  0  0  0
 11 15  1  0  0  0  0
 11 16  1  0  0  0  0
 17 18  1  0  0  0  0
 17 26  1  0  0  0  0
 18 19  1  0  0  0  0
 18 21  1  0  0  0  0
 18 27  1  0  0  0  0
 19 20  2  0  0  0  0
 19 32  1  0  0  0  0
 21 22  1  0  0  0  0
 21 28  1  0  0  0  0
 21 29  1  0  0  0  0
 22 23  1  0  0  0  0
 22 30  1  0  0  0  0
 22 31  1  0  0  0  0
 23 24  1  0  0  0  0
 23 25  2  0  0  0  0
 32 33  1  0  0  0  0
 32 37  1  0  0  0  0
 33 34  1  0  0  0  0
 33 36  1  0  0  0  0
 33 38  1  0  0  0  0
 34 35  2  0  0  0  0
 34 42  1  0  0  0  0
 36 39  1  0  0  0  0
 36 40  1  0  0  0  0
 36 41  1  0  0  0  0
 42 43  1  0  0  0  0
 42 44  1  0  0  0  0
 43 45  1  0  0  0  0
 43 46  1  0  0  0  0
 43 47  1  0  0  0  0
M  CHG  1  24  -1
M  END
$$$$

  -OEChem-05262216243D

 47 46  0     1  0  0  0  0  0999 V2000
    0.3674   -5.8170    1.3103 C   0  0  0  0  0  0  0  0  0  0  0  0
    1.5043   -5.9385    1.7401 O   0  0  0  0  0  0  0  0  0  0  0  0
   -0.6721   -6.8834    1.6028 C   0  0  0  0  0  0  0  0  0  0  0  0
   -1.1189   -7.2346    0.6696 H   0  0  0  0  0  0  0  0  0  0  0  0
   -0.2090   -7.7318    2.1139 H   0  0  0  0  0  0  0  0  0  0  0  0
   -1.4575   -6.4723    2.2421 H   0  0  0  0  0  0  0  0  0  0  0  0
    0.0141   -4.7146    0.5642 N   0  0  0  0  0  0  0  0  0  0  0  0
    0.8519   -3.5248    0.3723 C   0  0  2  0  0  0  0  0  0  0  0  0
   -0.0211   -2.2771    0.1197 C   0  0  0  0  0  0  0  0  0  0  0  0
   -1.2254   -2.4120   -0.0874 O   0  0  0  0  0  0  0  0  0  0  0  0
    1.7899   -3.7644   -0.8153 C   0  0  0  0  0  0  0  0  0  0  0  0
   -0.9732   -4.6004    0.3342 H   0  0  0  0  0  0  0  0  0  0  0  0
    1.4441   -3.3396    1.2749 H   0  0  0  0  0  0  0  0  0  0  0  0
    1.2113   -3.9393   -1.7282 H   0  0  0  0  0  0  0  0  0  0  0  0
    2.4361   -2.8962   -0.9766 H   0  0  0  0  0  0  0  0  0  0  0  0
    2.4241   -4.6366   -0.6293 H   0  0  0  0  0  0  0  0  0  0  0  0
    0.5474   -1.0181    0.1329 N   0  0  0  0  0  0  0  0  0  0  0  0
   -0.1492    0.1914   -0.3327 C   0  0  2  0  0  0  0  0  0  0  0  0
    0.0943    0.4425   -1.8448 C   0  0  0  0  0  0  0  0  0  0  0  0
    0.4050   -0.4803   -2.5935 O   0  0  0  0  0  0  0  0  0  0  0  0
    0.3526    1.3621    0.5359 C   0  0  0  0  0  0  0  0  0  0  0  0
   -0.0937    1.2220    2.0002 C   0  0  0  0  0  0  0  0  0  0  0  0
    0.4452    2.3866    2.8263 C   0  0  0  0  0  0  0  0  0  0  0  0
    1.6563    2.3427    3.1566 O   0  5  0  0  0  0  0  0  0  0  0  0
   -0.3336    3.3390    3.0740 O   0  0  0  0  0  0  0  0  0  0  0  0
    1.5525   -0.9664    0.2644 H   0  0  0  0  0  0  0  0  0  0  0  0
   -1.2303    0.0952   -0.1880 H   0  0  0  0  0  0  0  0  0  0  0  0
   -0.0470    2.3098    0.1610 H   0  0  0  0  0  0  0  0  0  0  0  0
    1.4458    1.4212    0.4865 H   0  0  0  0  0  0  0  0  0  0  0  0
   -1.1862    1.2044    2.0579 H   0  0  0  0  0  0  0  0  0  0  0  0
    0.2780    0.2869    2.4285 H   0  0  0  0  0  0  0  0  0  0  0  0
    0.0982    1.7189   -2.3814 N   0  0  0  0  0  0  0  0  0  0  0  0
    0.4096    2.0390   -3.7809 C   0  0  2  0  0  0  0  0  0  0  0  0
    0.9156    3.4859   -3.9510 C   0  0  0  0  0  0  0  0  0  0  0  0
    0.5876    4.3572   -3.1549 O   0  0  0  0  0  0  0  0  0  0  0  0
   -0.8502    1.8231   -4.6258 C   0  0  0  0  0  0  0  0  0  0  0  0
   -0.0754    2.5003   -1.7488 H   0  0  0  0  0  0  0  0  0  0  0  0
    1.2012    1.3720   -4.1371 H   0  0  0  0  0  0  0  0  0  0  0  0
   -1.6558    2.4809   -4.2840 H   0  0  0  0  0  0  0  0  0  0  0  0
   -0.6473    2.0386   -5.6790 H   0  0  0  0  0  0  0  0  0  0  0  0
   -1.1892    0.7854   -4.5453 H   0  0  0  0  0  0  0  0  0  0  0  0
    1.7295    3.8179   -5.0197 N   0  0  0  0  0  0  0  0  0  0  0  0
    2.2791    5.1530   -5.2191 C   0  0  0  0  0  0  0  0  0  0  0  0
    2.0281    3.0646   -5.6318 H   0  0  0  0  0  0  0  0  0  0  0  0
    1.4741    5.8905   -5.3041 H   0  0  0  0  0  0  0  0  0  0  0  0
    2.9237    5.4304   -4.3785 H   0  0  0  0  0  0  0  0  0  0  0  0
    2.8732    5.1838   -6.1372 H   0  0  0  0  0  0  0  0  0  0  0  0
  1  2  2  0  0  0  0
  1  3  1  0  0  0  0
  1  7  1  0  0  0  0
  3  4  1  0  0  0  0
  3  5  1  0  0  0  0
  3  6  1  0  0  0  0
  7  8  1  0  0  0  0
  7 12  1  0  0  0  0
  8  9  1  0  0  0  0
  8 11  1  0  0  0  0
  8 13  1  0  0  0  0
  9 10  2  0  0  0  0
  9 17  1  0  0  0  0
 11 14  1  0  0  0  0
 11 15  1  0  0  0  0
 11 16  1  0  0  0  0
 17 18  1  0  0  0  0
 17 26  1  0  0  0  0
 18 19  1  0  0  0  0
 18 21  1  0  0  0  0
 18 27  1  0  0  0  0
 19 20  2  0  0  0  0
 19 32  1  0  0  0  0
 21 22  1  0  0  0  0
 21 28  1  0  0  0  0
 21 29  1  0  0  0  0
 22 23  1  0  0  0  0
 22 30  1  0  0  0  0
 22 31  1  0  0  0  0
 23 24  1  0  0  0  0
 23 25  2  0  0  0  0
 32 33  1  0  0  0  0
 32 37  1  0  0  0  0
 33 34  1  0  0  0  0
 33 36  1  0  0  0  0
 33 38  1  0  0  0  0
 34 35  2  0  0  0  0
 34 42  1  0  0  0  0
 36 39  1  0  0  0  0
 36 40  1  0  0  0  0
 36 41  1  0  0  0  0
 42 43  1  0  0  0  0
 42 44  1  0  0  0  0
 43 45  1  0  0  0  0
 43 46  1  0  0  0  0
 43 47  1  0  0  0  0
M  CHG  1  24  -1
M  END
$$$$

  -OEChem-05262216243D

 47 46  0     1  0  0  0  0  0999 V2000
    0.3646   -5.8144    1.3332 C   0  0  0  0  0  0  0  0  0  0  0  0
    1.4916   -5.9316    1.7895 O   0  0  0  0  0  0  0  0  0  0  0  0
   -0.6807   -6.8789    1.6114 C   0  0  0  0  0  0  0  0  0  0  0  0
   -1.0928   -7.2527    0.6709 H   0  0  0  0  0  0  0  0  0  0  0  0
   -0.2336   -7.7140    2.1575 H   0  0  0  0  0  0  0  0  0  0  0  0
   -1.4895   -6.4565    2.2130 H   0  0  0  0  0  0  0  0  0  0  0  0
    0.0281   -4.7176    0.5710 N   0  0  0  0  0  0  0  0  0  0  0  0
    0.8689   -3.5277    0.3927 C   0  0  2  0  0  0  0  0  0  0  0  0
    0.0036   -2.2875    0.0799 C   0  0  0  0  0  0  0  0  0  0  0  0
   -1.1896   -2.4334   -0.1754 O   0  0  0  0  0  0  0  0  0  0  0  0
    1.8606   -3.7862   -0.7465 C   0  0  0  0  0  0  0  0  0  0  0  0
   -0.9519   -4.6095    0.3086 H   0  0  0  0  0  0  0  0  0  0  0  0
    1.4195   -3.3245    1.3174 H   0  0  0  0  0  0  0  0  0  0  0  0
    1.3244   -3.9743   -1.6822 H   0  0  0  0  0  0  0  0  0  0  0  0
    2.5155   -2.9215   -0.8893 H   0  0  0  0  0  0  0  0  0  0  0  0
    2.4838   -4.6566   -0.5194 H   0  0  0  0  0  0  0  0  0  0  0  0
    0.5609   -1.0230    0.1175 N   0  0  0  0  0  0  0  0  0  0  0  0
   -0.1252    0.1912   -0.3530 C   0  0  2  0  0  0  0  0  0  0  0  0
    0.1589    0.4582   -1.8553 C   0  0  0  0  0  0  0  0  0  0  0  0
    0.2057   -0.4692   -2.6576 O   0  0  0  0  0  0  0  0  0  0  0  0
    0.3273    1.3555    0.5496 C   0  0  0  0  0  0  0  0  0  0  0  0
   -0.1761    1.1913    1.9919 C   0  0  0  0  0  0  0  0  0  0  0  0
    0.3170    2.3524    2.8504 C   0  0  0  0  0  0  0  0  0  0  0  0
    1.4414    2.2276    3.3954 O   0  5  0  0  0  0  0  0  0  0  0  0
   -0.3940    3.3859    2.8951 O   0  0  0  0  0  0  0  0  0  0  0  0
    1.5474   -0.9557    0.3468 H   0  0  0  0  0  0  0  0  0  0  0  0
   -1.2100    0.0836   -0.2474 H   0  0  0  0  0  0  0  0  0  0  0  0
   -0.0730    2.3012    0.1694 H   0  0  0  0  0  0  0  0  0  0  0  0
    1.4205    1.4302    0.5465 H   0  0  0  0  0  0  0  0  0  0  0  0
   -1.2699    1.1627    2.0081 H   0  0  0  0  0  0  0  0  0  0  0  0
    0.1882    0.2538    2.4218 H   0  0  0  0  0  0  0  0  0  0  0  0
    0.4794    1.7188   -2.3318 N   0  0  0  0  0  0  0  0  0  0  0  0
    0.8335    2.0235   -3.7250 C   0  0  2  0  0  0  0  0  0  0  0  0
    1.7387    3.2666   -3.8474 C   0  0  0  0  0  0  0  0  0  0  0  0
    1.8097    4.0810   -2.9354 O   0  0  0  0  0  0  0  0  0  0  0  0
   -0.4617    2.2308   -4.5176 C   0  0  0  0  0  0  0  0  0  0  0  0
    0.5541    2.4765   -1.6523 H   0  0  0  0  0  0  0  0  0  0  0  0
    1.3864    1.1806   -4.1520 H   0  0  0  0  0  0  0  0  0  0  0  0
   -1.0306    3.0708   -4.1058 H   0  0  0  0  0  0  0  0  0  0  0  0
   -0.2409    2.4397   -5.5684 H   0  0  0  0  0  0  0  0  0  0  0  0
   -1.0845    1.3317   -4.4698 H   0  0  0  0  0  0  0  0  0  0  0  0
    2.4788    3.4763   -4.9977 N   0  0  0  0  0  0  0  0  0  0  0  0
    3.3790    4.6089   -5.1735 C   0  0  0  0  0  0  0  0  0  0  0  0
    2.4292    2.7668   -5.7224 H   0  0  0  0  0  0  0  0  0  0  0  0
    2.8374    5.5522   -5.0459 H   0  0  0  0  0  0  0  0  0  0  0  0
    4.1933    4.5679   -4.4421 H   0  0  0  0  0  0  0  0  0  0  0  0
    3.8130    4.5947   -6.1778 H   0  0  0  0  0  0  0  0  0  0  0  0
  1  2  2  0  0  0  0
  1  3  1  0  0  0  0
  1  7  1  0  0  0  0
  3  4  1  0  0  0  0
  3  5  1  0  0  0  0
  3  6  1  0  0  0  0
  7  8  1  0  0  0  0
  7 12  1  0  0  0  0
  8  9  1  0  0  0  0
  8 11  1  0  0  0  0
  8 13  1  0  0  0  0
  9 10  2  0  0  0  0
  9 17  1  0  0  0  0
 11 14  1  0  0  0  0
 11 15  1  0  0  0  0
 11 16  1  0  0  0  0
 17 18  1  0  0  0  0
 17 26  1  0  0  0  0
 18 19  1  0  0  0  0
 18 21  1  0  0  0  0
 18 27  1  0  0  0  0
 19 20  2  0  0  0  0
 19 32  1  0  0  0  0
 21 22  1  0  0  0  0
 21 28  1  0  0  0  0
 21 29  1  0  0  0  0
 22 23  1  0  0  0  0
 22 30  1  0  0  0  0
 22 31  1  0  0  0  0
 23 24  1  0  0  0  0
 23 25  2  0  0  0  0
 32 33  1  0  0  0  0
 32 37  1  0  0  0  0
 33 34  1  0  0  0  0
 33 36  1  0  0  0  0
 33 38  1  0  0  0  0
 34 35  2  0  0  0  0
 34 42  1  0  0  0  0
 36 39  1  0  0  0  0
 36 40  1  0  0  0  0
 36 41  1  0  0  0  0
 42 43  1  0  0  0  0
 42 44  1  0  0  0  0
 43 45  1  0  0  0  0
 43 46  1  0  0  0  0
 43 47  1  0  0  0  0
M  CHG  1  24  -1
M  END
$$$$

  -OEChem-05262216243D

 47 46  0     1  0  0  0  0  0999 V2000
    0.3318   -5.7820    1.4407 C   0  0  0  0  0  0  0  0  0  0  0  0
    1.4297   -5.8690    1.9690 O   0  0  0  0  0  0  0  0  0  0  0  0
   -0.7335   -6.8237    1.7296 C   0  0  0  0  0  0  0  0  0  0  0  0
   -1.0452   -7.3058    0.8001 H   0  0  0  0  0  0  0  0  0  0  0  0
   -0.3422   -7.5859    2.4091 H   0  0  0  0  0  0  0  0  0  0  0  0
   -1.6016   -6.3493    2.1944 H   0  0  0  0  0  0  0  0  0  0  0  0
    0.0462   -4.7387    0.5879 N   0  0  0  0  0  0  0  0  0  0  0  0
    0.8912   -3.5525    0.4042 C   0  0  2  0  0  0  0  0  0  0  0  0
    0.0394   -2.3292    0.0037 C   0  0  0  0  0  0  0  0  0  0  0  0
   -1.1347   -2.4917   -0.3179 O   0  0  0  0  0  0  0  0  0  0  0  0
    1.9350   -3.8485   -0.6769 C   0  0  0  0  0  0  0  0  0  0  0  0
   -0.9174   -4.6478    0.2648 H   0  0  0  0  0  0  0  0  0  0  0  0
    1.3977   -3.3112    1.3450 H   0  0  0  0  0  0  0  0  0  0  0  0
    1.4435   -4.0805   -1.6272 H   0  0  0  0  0  0  0  0  0  0  0  0
    2.5889   -2.9839   -0.8259 H   0  0  0  0  0  0  0  0  0  0  0  0
    2.5536   -4.7026   -0.3847 H   0  0  0  0  0  0  0  0  0  0  0  0
    0.5843   -1.0601    0.0539 N   0  0  0  0  0  0  0  0  0  0  0  0
   -0.0957    0.1546   -0.4216 C   0  0  2  0  0  0  0  0  0  0  0  0
    0.2095    0.4386   -1.9151 C   0  0  0  0  0  0  0  0  0  0  0  0
   -0.0132   -0.4083   -2.7730 O   0  0  0  0  0  0  0  0  0  0  0  0
    0.3244    1.3136    0.5017 C   0  0  0  0  0  0  0  0  0  0  0  0
   -0.2168    1.1327    1.9286 C   0  0  0  0  0  0  0  0  0  0  0  0
    0.2436    2.2880    2.8125 C   0  0  0  0  0  0  0  0  0  0  0  0
    1.2669    2.1033    3.5160 O   0  5  0  0  0  0  0  0  0  0  0  0
   -0.3784    3.3743    2.7181 O   0  0  0  0  0  0  0  0  0  0  0  0
    1.5372   -0.9741    0.3938 H   0  0  0  0  0  0  0  0  0  0  0  0
   -1.1816    0.0373   -0.3392 H   0  0  0  0  0  0  0  0  0  0  0  0
   -0.0716    2.2579    0.1119 H   0  0  0  0  0  0  0  0  0  0  0  0
    1.4168    1.3950    0.5319 H   0  0  0  0  0  0  0  0  0  0  0  0
   -1.3101    1.1011    1.9144 H   0  0  0  0  0  0  0  0  0  0  0  0
    0.1372    0.1911    2.3582 H   0  0  0  0  0  0  0  0  0  0  0  0
    0.8210    1.6117   -2.3251 N   0  0  0  0  0  0  0  0  0  0  0  0
    1.2184    1.9127   -3.7072 C   0  0  2  0  0  0  0  0  0  0  0  0
    2.4604    2.8264   -3.7816 C   0  0  0  0  0  0  0  0  0  0  0  0
    2.8781    3.3996   -2.7827 O   0  0  0  0  0  0  0  0  0  0  0  0
    0.0274    2.5695   -4.4123 C   0  0  0  0  0  0  0  0  0  0  0  0
    1.1224    2.2624   -1.5992 H   0  0  0  0  0  0  0  0  0  0  0  0
    1.4755    0.9832   -4.2257 H   0  0  0  0  0  0  0  0  0  0  0  0
   -0.2425    3.5060   -3.9136 H   0  0  0  0  0  0  0  0  0  0  0  0
    0.2695    2.7864   -5.4567 H   0  0  0  0  0  0  0  0  0  0  0  0
   -0.8395    1.9015   -4.3916 H   0  0  0  0  0  0  0  0  0  0  0  0
    3.1205    3.0060   -4.9848 N   0  0  0  0  0  0  0  0  0  0  0  0
    4.2910    3.8612   -5.1370 C   0  0  0  0  0  0  0  0  0  0  0  0
    2.7568    2.5159   -5.7965 H   0  0  0  0  0  0  0  0  0  0  0  0
    4.0454    4.8958   -4.8751 H   0  0  0  0  0  0  0  0  0  0  0  0
    5.1042    3.5170   -4.4895 H   0  0  0  0  0  0  0  0  0  0  0  0
    4.6417    3.8405   -6.1730 H   0  0  0  0  0  0  0  0  0  0  0  0
  1  2  2  0  0  0  0
  1  3  1  0  0  0  0
  1  7  1  0  0  0  0
  3  4  1  0  0  0  0
  3  5  1  0  0  0  0
  3  6  1  0  0  0  0
  7  8  1  0  0  0  0
  7 12  1  0  0  0  0
  8  9  1  0  0  0  0
  8 11  1  0  0  0  0
  8 13  1  0  0  0  0
  9 10  2  0  0  0  0
  9 17  1  0  0  0  0
 11 14  1  0  0  0  0
 11 15  1  0  0  0  0
 11 16  1  0  0  0  0
 17 18  1  0  0  0  0
 17 26  1  0  0  0  0
 18 19  1  0  0  0  0
 18 21  1  0  0  0  0
 18 27  1  0  0  0  0
 19 20  2  0  0  0  0
 19 32  1  0  0  0  0
 21 22  1  0  0  0  0
 21 28  1  0  0  0  0
 21 29  1  0  0  0  0
 22 23  1  0  0  0  0
 22 30  1  0  0  0  0
 22 31  1  0  0  0  0
 23 24  1  0  0  0  0
 23 25  2  0  0  0  0
 32 33  1  0  0  0  0
 32 37  1  0  0  0  0
 33 34  1  0  0  0  0
 33 36  1  0  0  0  0
 33 38  1  0  0  0  0
 34 35  2  0  0  0  0
 34 42  1  0  0  0  0
 36 39  1  0  0  0  0
 36 40  1  0  0  0  0
 36 41  1  0  0  0  0
 42 43  1  0  0  0  0
 42 44  1  0  0  0  0
 43 45  1  0  0  0  0
 43 46  1  0  0  0  0
 43 47  1  0  0  0  0
M  CHG  1  24  -1
M  END
$$$$

  -OEChem-05262216243D

 47 46  0     1  0  0  0  0  0999 V2000
    0.3189   -5.7787    1.4508 C   0  0  0  0  0  0  0  0  0  0  0  0
    1.3484   -5.8289    2.1062 O   0  0  0  0  0  0  0  0  0  0  0  0
   -0.7264   -6.8697    1.5967 C   0  0  0  0  0  0  0  0  0  0  0  0
   -0.9137   -7.3390    0.6279 H   0  0  0  0  0  0  0  0  0  0  0  0
   -0.3803   -7.6339    2.2983 H   0  0  0  0  0  0  0  0  0  0  0  0
   -1.6596   -6.4427    1.9726 H   0  0  0  0  0  0  0  0  0  0  0  0
    0.0937   -4.7359    0.5791 N   0  0  0  0  0  0  0  0  0  0  0  0
    0.9147   -3.5217    0.4907 C   0  0  2  0  0  0  0  0  0  0  0  0
    0.0799   -2.3320   -0.0324 C   0  0  0  0  0  0  0  0  0  0  0  0
   -1.0553   -2.5325   -0.4538 O   0  0  0  0  0  0  0  0  0  0  0  0
    2.1026   -3.7929   -0.4384 C   0  0  0  0  0  0  0  0  0  0  0  0
   -0.8287   -4.6772    0.1466 H   0  0  0  0  0  0  0  0  0  0  0  0
    1.2849   -3.2541    1.4864 H   0  0  0  0  0  0  0  0  0  0  0  0
    1.7499   -4.0592   -1.4398 H   0  0  0  0  0  0  0  0  0  0  0  0
    2.7394   -2.9067   -0.5178 H   0  0  0  0  0  0  0  0  0  0  0  0
    2.7083   -4.6175   -0.0501 H   0  0  0  0  0  0  0  0  0  0  0  0
    0.5938   -1.0499    0.0178 N   0  0  0  0  0  0  0  0  0  0  0  0
   -0.1057    0.1530   -0.4606 C   0  0  2  0  0  0  0  0  0  0  0  0
    0.1976    0.4484   -1.9503 C   0  0  0  0  0  0  0  0  0  0  0  0
   -0.2862   -0.2395   -2.8412 O   0  0  0  0  0  0  0  0  0  0  0  0
    0.2978    1.3235    0.4554 C   0  0  0  0  0  0  0  0  0  0  0  0
   -0.2353    1.1468    1.8853 C   0  0  0  0  0  0  0  0  0  0  0  0
    0.2131    2.3177    2.7551 C   0  0  0  0  0  0  0  0  0  0  0  0
    1.2115    2.1353    3.4936 O   0  5  0  0  0  0  0  0  0  0  0  0
   -0.3841    3.4124    2.6100 O   0  0  0  0  0  0  0  0  0  0  0  0
    1.4837   -0.9255    0.4918 H   0  0  0  0  0  0  0  0  0  0  0  0
   -1.1896    0.0176   -0.3776 H   0  0  0  0  0  0  0  0  0  0  0  0
   -0.1092    2.2587    0.0535 H   0  0  0  0  0  0  0  0  0  0  0  0
    1.3890    1.4192    0.4871 H   0  0  0  0  0  0  0  0  0  0  0  0
   -1.3283    1.1007    1.8760 H   0  0  0  0  0  0  0  0  0  0  0  0
    0.1332    0.2140    2.3217 H   0  0  0  0  0  0  0  0  0  0  0  0
    1.0506    1.4742   -2.3215 N   0  0  0  0  0  0  0  0  0  0  0  0
    1.4684    1.7600   -3.7002 C   0  0  2  0  0  0  0  0  0  0  0  0
    2.9463    2.1937   -3.7926 C   0  0  0  0  0  0  0  0  0  0  0  0
    3.5755    2.5047   -2.7879 O   0  0  0  0  0  0  0  0  0  0  0  0
    0.5488    2.8522   -4.2532 C   0  0  0  0  0  0  0  0  0  0  0  0
    1.5411    1.9639   -1.5736 H   0  0  0  0  0  0  0  0  0  0  0  0
    1.3637    0.8599   -4.3147 H   0  0  0  0  0  0  0  0  0  0  0  0
    0.6542    3.7723   -3.6691 H   0  0  0  0  0  0  0  0  0  0  0  0
    0.7943    3.0698   -5.2967 H   0  0  0  0  0  0  0  0  0  0  0  0
   -0.4953    2.5265   -4.2052 H   0  0  0  0  0  0  0  0  0  0  0  0
    3.5802    2.2303   -5.0219 N   0  0  0  0  0  0  0  0  0  0  0  0
    4.9767    2.6098   -5.1917 C   0  0  0  0  0  0  0  0  0  0  0  0
    3.0426    1.9431   -5.8341 H   0  0  0  0  0  0  0  0  0  0  0  0
    5.1465    3.6235   -4.8138 H   0  0  0  0  0  0  0  0  0  0  0  0
    5.6302    1.9173   -4.6508 H   0  0  0  0  0  0  0  0  0  0  0  0
    5.2477    2.5864   -6.2514 H   0  0  0  0  0  0  0  0  0  0  0  0
  1  2  2  0  0  0  0
  1  3  1  0  0  0  0
  1  7  1  0  0  0  0
  3  4  1  0  0  0  0
  3  5  1  0  0  0  0
  3  6  1  0  0  0  0
  7  8  1  0  0  0  0
  7 12  1  0  0  0  0
  8  9  1  0  0  0  0
  8 11  1  0  0  0  0
  8 13  1  0  0  0  0
  9 10  2  0  0  0  0
  9 17  1  0  0  0  0
 11 14  1  0  0  0  0
 11 15  1  0  0  0  0
 11 16  1  0  0  0  0
 17 18  1  0  0  0  0
 17 26  1  0  0  0  0
 18 19  1  0  0  0  0
 18 21  1  0  0  0  0
 18 27  1  0  0  0  0
 19 20  2  0  0  0  0
 19 32  1  0  0  0  0
 21 22  1  0  0  0  0
 21 28  1  0  0  0  0
 21 29  1  0  0  0  0
 22 23  1  0  0  0  0
 22 30  1  0  0  0  0
 22 31  1  0  0  0  0
 23 24  1  0  0  0  0
 23 25  2  0  0  0  0
 32 33  1  0  0  0  0
 32 37  1  0  0  0  0
 33 34  1  0  0  0  0
 33 36  1  0  0  0  0
 33 38  1  0  0  0  0
 34 35  2  0  0  0  0
 34 42  1  0  0  0  0
 36 39  1  0  0  0  0
 36 40  1  0  0  0  0
 36 41  1  0  0  0  0
 42 43  1  0  0  0  0
 42 44  1  0  0  0  0
 43 45  1  0  0  0  0
 43 46  1  0  0  0  0
 43 47  1  0  0  0  0
M  CHG  1  24  -1
M  END
$$$$

  -OEChem-05262216243D

 47 46  0     1  0  0  0  0  0999 V2000
    0.2479   -5.7648    1.5293 C   0  0  0  0  0  0  0  0  0  0  0  0
    1.2245   -5.7921    2.2621 O   0  0  0  0  0  0  0  0  0  0  0  0
   -0.7982   -6.8603    1.6189 C   0  0  0  0  0  0  0  0  0  0  0  0
   -0.8949   -7.3624    0.6533 H   0  0  0  0  0  0  0  0  0  0  0  0
   -0.5103   -7.5976    2.3734 H   0  0  0  0  0  0  0  0  0  0  0  0
   -1.7639   -6.4303    1.8964 H   0  0  0  0  0  0  0  0  0  0  0  0
    0.0841   -4.7455    0.6173 N   0  0  0  0  0  0  0  0  0  0  0  0
    0.9119   -3.5347    0.5528 C   0  0  2  0  0  0  0  0  0  0  0  0
    0.1245   -2.3633   -0.0743 C   0  0  0  0  0  0  0  0  0  0  0  0
   -0.9635   -2.5814   -0.5974 O   0  0  0  0  0  0  0  0  0  0  0  0
    2.1681   -3.8347   -0.2720 C   0  0  0  0  0  0  0  0  0  0  0  0
   -0.8030   -4.7036    0.1147 H   0  0  0  0  0  0  0  0  0  0  0  0
    1.2036   -3.2342    1.5651 H   0  0  0  0  0  0  0  0  0  0  0  0
    1.8942   -4.1324   -1.2890 H   0  0  0  0  0  0  0  0  0  0  0  0
    2.8108   -2.9510   -0.3286 H   0  0  0  0  0  0  0  0  0  0  0  0
    2.7406   -4.6464    0.1874 H   0  0  0  0  0  0  0  0  0  0  0  0
    0.6308   -1.0785   -0.0172 N   0  0  0  0  0  0  0  0  0  0  0  0
   -0.0683    0.1179   -0.5119 C   0  0  2  0  0  0  0  0  0  0  0  0
    0.2567    0.4138   -1.9950 C   0  0  0  0  0  0  0  0  0  0  0  0
   -0.4378   -0.0375   -2.8973 O   0  0  0  0  0  0  0  0  0  0  0  0
    0.3201    1.2979    0.3959 C   0  0  0  0  0  0  0  0  0  0  0  0
   -0.2271    1.1305    1.8212 C   0  0  0  0  0  0  0  0  0  0  0  0
    0.2080    2.3122    2.6825 C   0  0  0  0  0  0  0  0  0  0  0  0
    1.3415    2.2378    3.2174 O   0  5  0  0  0  0  0  0  0  0  0  0
   -0.5504    3.3103    2.7384 O   0  0  0  0  0  0  0  0  0  0  0  0
    1.4552   -0.9366    0.5603 H   0  0  0  0  0  0  0  0  0  0  0  0
   -1.1525   -0.0232   -0.4403 H   0  0  0  0  0  0  0  0  0  0  0  0
   -0.0860    2.2261   -0.0220 H   0  0  0  0  0  0  0  0  0  0  0  0
    1.4102    1.4008    0.4384 H   0  0  0  0  0  0  0  0  0  0  0  0
   -1.3195    1.0746    1.7994 H   0  0  0  0  0  0  0  0  0  0  0  0
    0.1455    0.2063    2.2720 H   0  0  0  0  0  0  0  0  0  0  0  0
    1.3251    1.2240   -2.3405 N   0  0  0  0  0  0  0  0  0  0  0  0
    1.7529    1.5083   -3.7166 C   0  0  2  0  0  0  0  0  0  0  0  0
    3.2888    1.5216   -3.8673 C   0  0  0  0  0  0  0  0  0  0  0  0
    4.0170    1.5725   -2.8823 O   0  0  0  0  0  0  0  0  0  0  0  0
    1.1576    2.8598   -4.1206 C   0  0  0  0  0  0  0  0  0  0  0  0
    1.9535    1.5052   -1.5891 H   0  0  0  0  0  0  0  0  0  0  0  0
    1.3739    0.7349   -4.3924 H   0  0  0  0  0  0  0  0  0  0  0  0
    1.5366    3.6544   -3.4698 H   0  0  0  0  0  0  0  0  0  0  0  0
    1.4165    3.1020   -5.1554 H   0  0  0  0  0  0  0  0  0  0  0  0
    0.0665    2.8307   -4.0357 H   0  0  0  0  0  0  0  0  0  0  0  0
    3.8624    1.4726   -5.1258 N   0  0  0  0  0  0  0  0  0  0  0  0
    5.3021    1.4725   -5.3514 C   0  0  0  0  0  0  0  0  0  0  0  0
    3.2367    1.4079   -5.9232 H   0  0  0  0  0  0  0  0  0  0  0  0
    5.7534    2.3823   -4.9418 H   0  0  0  0  0  0  0  0  0  0  0  0
    5.7647    0.6027   -4.8733 H   0  0  0  0  0  0  0  0  0  0  0  0
    5.5168    1.4330   -6.4235 H   0  0  0  0  0  0  0  0  0  0  0  0
  1  2  2  0  0  0  0
  1  3  1  0  0  0  0
  1  7  1  0  0  0  0
  3  4  1  0  0  0  0
  3  5  1  0  0  0  0
  3  6  1  0  0  0  0
  7  8  1  0  0  0  0
  7 12  1  0  0  0  0
  8  9  1  0  0  0  0
  8 11  1  0  0  0  0
  8 13  1  0  0  0  0
  9 10  2  0  0  0  0
  9 17  1  0  0  0  0
 11 14  1  0  0  0  0
 11 15  1  0  0  0  0
 11 16  1  0  0  0  0
 17 18  1  0  0  0  0
 17 26  1  0  0  0  0
 18 19  1  0  0  0  0
 18 21  1  0  0  0  0
 18 27  1  0  0  0  0
 19 20  2  0  0  0  0
 19 32  1  0  0  0  0
 21 22  1  0  0  0  0
 21 28  1  0  0  0  0
 21 29  1  0  0  0  0
 22 23  1  0  0  0  0
 22 30  1  0  0  0  0
 22 31  1  0  0  0  0
 23 24  1  0  0  0  0
 23 25  2  0  0  0  0
 32 33  1  0  0  0  0
 32 37  1  0  0  0  0
 33 34  1  0  0  0  0
 33 36  1  0  0  0  0
 33 38  1  0  0  0  0
 34 35  2  0  0  0  0
 34 42  1  0  0  0  0
 36 39  1  0  0  0  0
 36 40  1  0  0  0  0
 36 41  1  0  0  0  0
 42 43  1  0  0  0  0
 42 44  1  0  0  0  0
 43 45  1  0  0  0  0
 43 46  1  0  0  0  0
 43 47  1  0  0  0  0
M  CHG  1  24  -1
M  END
$$$$

  -OEChem-05262216243D

 47 46  0     1  0  0  0  0  0999 V2000
    0.1832   -5.7482    1.6032 C   0  0  0  0  0  0  0  0  0  0  0  0
    1.1157   -5.7499    2.3916 O   0  0  0  0  0  0  0  0  0  0  0  0
   -0.8648   -6.8439    1.6670 C   0  0  0  0  0  0  0  0  0  0  0  0
   -0.9063   -7.3760    0.7134 H   0  0  0  0  0  0  0  0  0  0  0  0
   -0.6186   -7.5570    2.4587 H   0  0  0  0  0  0  0  0  0  0  0  0
   -1.8449   -6.4083    1.8770 H   0  0  0  0  0  0  0  0  0  0  0  0
    0.0727   -4.7566    0.6530 N   0  0  0  0  0  0  0  0  0  0  0  0
    0.9096   -3.5512    0.5954 C   0  0  2  0  0  0  0  0  0  0  0  0
    0.1571   -2.3920   -0.0936 C   0  0  0  0  0  0  0  0  0  0  0  0
   -0.8912   -2.6225   -0.6871 O   0  0  0  0  0  0  0  0  0  0  0  0
    2.1978   -3.8784   -0.1675 C   0  0  0  0  0  0  0  0  0  0  0  0
   -0.7830   -4.7308    0.0980 H   0  0  0  0  0  0  0  0  0  0  0  0
    1.1602   -3.2281    1.6116 H   0  0  0  0  0  0  0  0  0  0  0  0
    1.9661   -4.1983   -1.1885 H   0  0  0  0  0  0  0  0  0  0  0  0
    2.8492   -3.0004   -0.2165 H   0  0  0  0  0  0  0  0  0  0  0  0
    2.7433   -4.6832    0.3350 H   0  0  0  0  0  0  0  0  0  0  0  0
    0.6571   -1.1052   -0.0394 N   0  0  0  0  0  0  0  0  0  0  0  0
   -0.0510    0.0802   -0.5478 C   0  0  2  0  0  0  0  0  0  0  0  0
    0.2827    0.3618   -2.0290 C   0  0  0  0  0  0  0  0  0  0  0  0
   -0.5464    0.1824   -2.9128 O   0  0  0  0  0  0  0  0  0  0  0  0
    0.3426    1.2771    0.3338 C   0  0  0  0  0  0  0  0  0  0  0  0
   -0.1876    1.1380    1.7698 C   0  0  0  0  0  0  0  0  0  0  0  0
    0.2525    2.3367    2.6062 C   0  0  0  0  0  0  0  0  0  0  0  0
    1.4702    2.3960    2.9093 O   0  5  0  0  0  0  0  0  0  0  0  0
   -0.6058    3.2022    2.9029 O   0  0  0  0  0  0  0  0  0  0  0  0
    1.4343   -0.9460    0.5968 H   0  0  0  0  0  0  0  0  0  0  0  0
   -1.1350   -0.0643   -0.4741 H   0  0  0  0  0  0  0  0  0  0  0  0
   -0.0691    2.1955   -0.0994 H   0  0  0  0  0  0  0  0  0  0  0  0
    1.4329    1.3838    0.3600 H   0  0  0  0  0  0  0  0  0  0  0  0
   -1.2801    1.0762    1.7603 H   0  0  0  0  0  0  0  0  0  0  0  0
    0.1953    0.2259    2.2355 H   0  0  0  0  0  0  0  0  0  0  0  0
    1.5056    0.9085   -2.3758 N   0  0  0  0  0  0  0  0  0  0  0  0
    1.9519    1.1539   -3.7522 C   0  0  2  0  0  0  0  0  0  0  0  0
    3.4337    0.7780   -3.9656 C   0  0  0  0  0  0  0  0  0  0  0  0
    4.1705    0.5549   -3.0109 O   0  0  0  0  0  0  0  0  0  0  0  0
    1.7187    2.6352   -4.0594 C   0  0  0  0  0  0  0  0  0  0  0  0
    2.2107    0.9575   -1.6421 H   0  0  0  0  0  0  0  0  0  0  0  0
    1.3650    0.5466   -4.4492 H   0  0  0  0  0  0  0  0  0  0  0  0
    2.3093    3.2628   -3.3842 H   0  0  0  0  0  0  0  0  0  0  0  0
    2.0034    2.8649   -5.0902 H   0  0  0  0  0  0  0  0  0  0  0  0
    0.6606    2.8844   -3.9301 H   0  0  0  0  0  0  0  0  0  0  0  0
    3.9475    0.6898   -5.2475 N   0  0  0  0  0  0  0  0  0  0  0  0
    5.3352    0.3506   -5.5357 C   0  0  0  0  0  0  0  0  0  0  0  0
    3.3119    0.8699   -6.0189 H   0  0  0  0  0  0  0  0  0  0  0  0
    6.0091    1.0991   -5.1059 H   0  0  0  0  0  0  0  0  0  0  0  0
    5.5854   -0.6307   -5.1189 H   0  0  0  0  0  0  0  0  0  0  0  0
    5.4985    0.3181   -6.6171 H   0  0  0  0  0  0  0  0  0  0  0  0
  1  2  2  0  0  0  0
  1  3  1  0  0  0  0
  1  7  1  0  0  0  0
  3  4  1  0  0  0  0
  3  5  1  0  0  0  0
  3  6  1  0  0  0  0
  7  8  1  0  0  0  0
  7 12  1  0  0  0  0
  8  9  1  0  0  0  0
  8 11  1  0  0  0  0
  8 13  1  0  0  0  0
  9 10  2  0  0  0  0
  9 17  1  0  0  0  0
 11 14  1  0  0  0  0
 11 15  1  0  0  0  0
 11 16  1  0  0  0  0
 17 18  1  0  0  0  0
 17 26  1  0  0  0  0
 18 19  1  0  0  0  0
 18 21  1  0  0  0  0
 18 27  1  0  0  0  0
 19 20  2  0  0  0  0
 19 32  1  0  0  0  0
 21 22  1  0  0  0  0
 21 28  1  0  0  0  0
 21 29  1  0  0  0  0
 22 23  1  0  0  0  0
 22 30  1  0  0  0  0
 22 31  1  0  0  0  0
 23 24  1  0  0  0  0
 23 25  2  0  0  0  0
 32 33  1  0  0  0  0
 32 37  1  0  0  0  0
 33 34  1  0  0  0  0
 33 36  1  0  0  0  0
 33 38  1  0  0  0  0
 34 35  2  0  0  0  0
 34 42  1  0  0  0  0
 36 39  1  0  0  0  0
 36 40  1  0  0  0  0
 36 41  1  0  0  0  0
 42 43  1  0  0  0  0
 42 44  1  0  0  0  0
 43 45  1  0  0  0  0
 43 46  1  0  0  0  0
 43 47  1  0  0  0  0
M  CHG  1  24  -1
M  END
$$$$

  -OEChem-05262216243D

 47 46  0     1  0  0  0  0  0999 V2000
    0.1545   -5.7463    1.6293 C   0  0  0  0  0  0  0  0  0  0  0  0
    1.0605   -5.7400    2.4480 O   0  0  0  0  0  0  0  0  0  0  0  0
   -0.8859   -6.8509    1.6615 C   0  0  0  0  0  0  0  0  0  0  0  0
   -0.9300   -7.3511    0.6911 H   0  0  0  0  0  0  0  0  0  0  0  0
   -0.6291   -7.5886    2.4268 H   0  0  0  0  0  0  0  0  0  0  0  0
   -1.8680   -6.4303    1.8914 H   0  0  0  0  0  0  0  0  0  0  0  0
    0.0672   -4.7559    0.6751 N   0  0  0  0  0  0  0  0  0  0  0  0
    0.9003   -3.5472    0.6387 C   0  0  2  0  0  0  0  0  0  0  0  0
    0.1739   -2.4005   -0.0979 C   0  0  0  0  0  0  0  0  0  0  0  0
   -0.8479   -2.6401   -0.7331 O   0  0  0  0  0  0  0  0  0  0  0  0
    2.2237   -3.8775   -0.0609 C   0  0  0  0  0  0  0  0  0  0  0  0
   -0.7656   -4.7413    0.0859 H   0  0  0  0  0  0  0  0  0  0  0  0
    1.1030   -3.2097    1.6610 H   0  0  0  0  0  0  0  0  0  0  0  0
    2.0402   -4.2155   -1.0860 H   0  0  0  0  0  0  0  0  0  0  0  0
    2.8712   -2.9960   -0.0955 H   0  0  0  0  0  0  0  0  0  0  0  0
    2.7520   -4.6700    0.4783 H   0  0  0  0  0  0  0  0  0  0  0  0
    0.6737   -1.1134   -0.0519 N   0  0  0  0  0  0  0  0  0  0  0  0
   -0.0440    0.0646   -0.5655 C   0  0  2  0  0  0  0  0  0  0  0  0
    0.2834    0.3311   -2.0484 C   0  0  0  0  0  0  0  0  0  0  0  0
   -0.6022    0.4258   -2.8896 O   0  0  0  0  0  0  0  0  0  0  0  0
    0.3673    1.2736    0.2895 C   0  0  0  0  0  0  0  0  0  0  0  0
   -0.1358    1.1545    1.7376 C   0  0  0  0  0  0  0  0  0  0  0  0
    0.3174    2.3619    2.5551 C   0  0  0  0  0  0  0  0  0  0  0  0
    1.5476    2.4499    2.7952 O   0  5  0  0  0  0  0  0  0  0  0  0
   -0.5470    3.1973    2.9136 O   0  0  0  0  0  0  0  0  0  0  0  0
    1.4204   -0.9434    0.6178 H   0  0  0  0  0  0  0  0  0  0  0  0
   -1.1273   -0.0779   -0.4787 H   0  0  0  0  0  0  0  0  0  0  0  0
   -0.0536    2.1852   -0.1497 H   0  0  0  0  0  0  0  0  0  0  0  0
    1.4576    1.3813    0.2894 H   0  0  0  0  0  0  0  0  0  0  0  0
   -1.2284    1.0919    1.7476 H   0  0  0  0  0  0  0  0  0  0  0  0
    0.2565    0.2486    2.2074 H   0  0  0  0  0  0  0  0  0  0  0  0
    1.5900    0.5788   -2.4270 N   0  0  0  0  0  0  0  0  0  0  0  0
    2.0370    0.7619   -3.8115 C   0  0  2  0  0  0  0  0  0  0  0  0
    3.3729    0.0408   -4.0898 C   0  0  0  0  0  0  0  0  0  0  0  0
    4.0604   -0.3868   -3.1678 O   0  0  0  0  0  0  0  0  0  0  0  0
    2.1665    2.2657   -4.0665 C   0  0  0  0  0  0  0  0  0  0  0  0
    2.3071    0.3814   -1.7314 H   0  0  0  0  0  0  0  0  0  0  0  0
    1.2962    0.3432   -4.5005 H   0  0  0  0  0  0  0  0  0  0  0  0
    2.9124    2.7050   -3.3965 H   0  0  0  0  0  0  0  0  0  0  0  0
    2.4686    2.4566   -5.1001 H   0  0  0  0  0  0  0  0  0  0  0  0
    1.2064    2.7613   -3.8905 H   0  0  0  0  0  0  0  0  0  0  0  0
    3.8097   -0.1315   -5.3914 N   0  0  0  0  0  0  0  0  0  0  0  0
    5.0595   -0.7959   -5.7357 C   0  0  0  0  0  0  0  0  0  0  0  0
    3.2122    0.2159   -6.1357 H   0  0  0  0  0  0  0  0  0  0  0  0
    5.9099   -0.2549   -5.3079 H   0  0  0  0  0  0  0  0  0  0  0  0
    5.0650   -1.8221   -5.3541 H   0  0  0  0  0  0  0  0  0  0  0  0
    5.1827   -0.8301   -6.8220 H   0  0  0  0  0  0  0  0  0  0  0  0
  1  2  2  0  0  0  0
  1  3  1  0  0  0  0
  1  7  1  0  0  0  0
  3  4  1  0  0  0  0
  3  5  1  0  0  0  0
  3  6  1  0  0  0  0
  7  8  1  0  0  0  0
  7 12  1  0  0  0  0
  8  9  1  0  0  0  0
  8 11  1  0  0  0  0
  8 13  1  0  0  0  0
  9 10  2  0  0  0  0
  9 17  1  0  0  0  0
 11 14  1  0  0  0  0
 11 15  1  0  0  0  0
 11 16  1  0  0  0  0
 17 18  1  0  0  0  0
 17 26  1  0  0  0  0
 18 19  1  0  0  0  0
 18 21  1  0  0  0  0
 18 27  1  0  0  0  0
 19 20  2  0  0  0  0
 19 32  1  0  0  0  0
 21 22  1  0  0  0  0
 21 28  1  0  0  0  0
 21 29  1  0  0  0  0
 22 23  1  0  0  0  0
 22 30  1  0  0  0  0
 22 31  1  0  0  0  0
 23 24  1  0  0  0  0
 23 25  2  0  0  0  0
 32 33  1  0  0  0  0
 32 37  1  0  0  0  0
 33 34  1  0  0  0  0
 33 36  1  0  0  0  0
 33 38  1  0  0  0  0
 34 35  2  0  0  0  0
 34 42  1  0  0  0  0
 36 39  1  0  0  0  0
 36 40  1  0  0  0  0
 36 41  1  0  0  0  0
 42 43  1  0  0  0  0
 42 44  1  0  0  0  0
 43 45  1  0  0  0  0
 43 46  1  0  0  0  0
 43 47  1  0  0  0  0
M  CHG  1  24  -1
M  END
$$$$

  -OEChem-05262216243D

 47 46  0     1  0  0  0  0  0999 V2000
    0.1636   -5.7413    1.6413 C   0  0  0  0  0  0  0  0  0  0  0  0
    1.0536   -5.7271    2.4776 O   0  0  0  0  0  0  0  0  0  0  0  0
   -0.8726   -6.8504    1.6556 C   0  0  0  0  0  0  0  0  0  0  0  0
   -0.9539   -7.2989    0.6624 H   0  0  0  0  0  0  0  0  0  0  0  0
   -0.5847   -7.6269    2.3697 H   0  0  0  0  0  0  0  0  0  0  0  0
   -1.8455   -6.4455    1.9455 H   0  0  0  0  0  0  0  0  0  0  0  0
    0.0855   -4.7525    0.6848 N   0  0  0  0  0  0  0  0  0  0  0  0
    0.9108   -3.5383    0.6590 C   0  0  2  0  0  0  0  0  0  0  0  0
    0.1855   -2.3992   -0.0895 C   0  0  0  0  0  0  0  0  0  0  0  0
   -0.8229   -2.6459   -0.7434 O   0  0  0  0  0  0  0  0  0  0  0  0
    2.2454   -3.8577   -0.0244 C   0  0  0  0  0  0  0  0  0  0  0  0
   -0.7358   -4.7467    0.0796 H   0  0  0  0  0  0  0  0  0  0  0  0
    1.0975   -3.1984    1.6835 H   0  0  0  0  0  0  0  0  0  0  0  0
    2.0775   -4.1906   -1.0535 H   0  0  0  0  0  0  0  0  0  0  0  0
    2.8891   -2.9731   -0.0466 H   0  0  0  0  0  0  0  0  0  0  0  0
    2.7708   -4.6500    0.5174 H   0  0  0  0  0  0  0  0  0  0  0  0
    0.6810   -1.1107   -0.0508 N   0  0  0  0  0  0  0  0  0  0  0  0
   -0.0460    0.0590   -0.5712 C   0  0  2  0  0  0  0  0  0  0  0  0
    0.2791    0.3133   -2.0563 C   0  0  0  0  0  0  0  0  0  0  0  0
   -0.5880    0.6617   -2.8488 O   0  0  0  0  0  0  0  0  0  0  0  0
    0.3789    1.2741    0.2666 C   0  0  0  0  0  0  0  0  0  0  0  0
   -0.1054    1.1663    1.7224 C   0  0  0  0  0  0  0  0  0  0  0  0
    0.3601    2.3787    2.5245 C   0  0  0  0  0  0  0  0  0  0  0  0
    1.5875    2.4419    2.7852 O   0  5  0  0  0  0  0  0  0  0  0  0
   -0.4910    3.2390    2.8549 O   0  0  0  0  0  0  0  0  0  0  0  0
    1.4047   -0.9295    0.6411 H   0  0  0  0  0  0  0  0  0  0  0  0
   -1.1286   -0.0818   -0.4760 H   0  0  0  0  0  0  0  0  0  0  0  0
   -0.0478    2.1823   -0.1744 H   0  0  0  0  0  0  0  0  0  0  0  0
    1.4693    1.3816    0.2473 H   0  0  0  0  0  0  0  0  0  0  0  0
   -1.1978    1.1073    1.7464 H   0  0  0  0  0  0  0  0  0  0  0  0
    0.2896    0.2626    2.1944 H   0  0  0  0  0  0  0  0  0  0  0  0
    1.5927    0.2547   -2.4829 N   0  0  0  0  0  0  0  0  0  0  0  0
    2.0185    0.3549   -3.8822 C   0  0  2  0  0  0  0  0  0  0  0  0
    3.1298   -0.6611   -4.2208 C   0  0  0  0  0  0  0  0  0  0  0  0
    3.7353   -1.2499   -3.3304 O   0  0  0  0  0  0  0  0  0  0  0  0
    2.5005    1.7870   -4.1264 C   0  0  0  0  0  0  0  0  0  0  0  0
    2.2524   -0.1635   -1.8298 H   0  0  0  0  0  0  0  0  0  0  0  0
    1.1731    0.1426   -4.5449 H   0  0  0  0  0  0  0  0  0  0  0  0
    3.3531    2.0191   -3.4802 H   0  0  0  0  0  0  0  0  0  0  0  0
    2.8051    1.9184   -5.1686 H   0  0  0  0  0  0  0  0  0  0  0  0
    1.6962    2.4973   -3.9098 H   0  0  0  0  0  0  0  0  0  0  0  0
    3.4558   -0.9168   -5.5410 N   0  0  0  0  0  0  0  0  0  0  0  0
    4.4827   -1.8684   -5.9442 C   0  0  0  0  0  0  0  0  0  0  0  0
    2.9187   -0.4358   -6.2566 H   0  0  0  0  0  0  0  0  0  0  0  0
    5.4554   -1.5793   -5.5324 H   0  0  0  0  0  0  0  0  0  0  0  0
    4.2330   -2.8737   -5.5891 H   0  0  0  0  0  0  0  0  0  0  0  0
    4.5642   -1.8966   -7.0350 H   0  0  0  0  0  0  0  0  0  0  0  0
  1  2  2  0  0  0  0
  1  3  1  0  0  0  0
  1  7  1  0  0  0  0
  3  4  1  0  0  0  0
  3  5  1  0  0  0  0
  3  6  1  0  0  0  0
  7  8  1  0  0  0  0
  7 12  1  0  0  0  0
  8  9  1  0  0  0  0
  8 11  1  0  0  0  0
  8 13  1  0  0  0  0
  9 10  2  0  0  0  0
  9 17  1  0  0  0  0
 11 14  1  0  0  0  0
 11 15  1  0  0  0  0
 11 16  1  0  0  0  0
 17 18  1  0  0  0  0
 17 26  1  0  0  0  0
 18 19  1  0  0  0  0
 18 21  1  0  0  0  0
 18 27  1  0  0  0  0
 19 20  2  0  0  0  0
 19 32  1  0  0  0  0
 21 22  1  0  0  0  0
 21 28  1  0  0  0  0
 21 29  1  0  0  0  0
 22 23  1  0  0  0  0
 22 30  1  0  0  0  0
 22 31  1  0  0  0  0
 23 24  1  0  0  0  0
 23 25  2  0  0  0  0
 32 33  1  0  0  0  0
 32 37  1  0  0  0  0
 33 34  1  0  0  0  0
 33 36  1  0  0  0  0
 33 38  1  0  0  0  0
 34 35  2  0  0  0  0
 34 42  1  0  0  0  0
 36 39  1  0  0  0  0
 36 40  1  0  0  0  0
 36 41  1  0  0  0  0
 42 43  1  0  0  0  0
 42 44  1  0  0  0  0
 43 45  1  0  0  0  0
 43 46  1  0  0  0  0
 43 47  1  0  0  0  0
M  CHG  1  24  -1
M  END
$$$$

  -OEChem-05262216243D

 47 46  0     1  0  0  0  0  0999 V2000
    0.1268   -5.7192    1.6929 C   0  0  0  0  0  0  0  0  0  0  0  0
    1.0288   -5.7027    2.5156 O   0  0  0  0  0  0  0  0  0  0  0  0
   -0.9403   -6.7962    1.7598 C   0  0  0  0  0  0  0  0  0  0  0  0
   -0.9719   -7.3491    0.8178 H   0  0  0  0  0  0  0  0  0  0  0  0
   -0.7217   -7.4949    2.5721 H   0  0  0  0  0  0  0  0  0  0  0  0
   -1.9171   -6.3403    1.9400 H   0  0  0  0  0  0  0  0  0  0  0  0
    0.0647   -4.7612    0.7046 N   0  0  0  0  0  0  0  0  0  0  0  0
    0.9190   -3.5688    0.6357 C   0  0  2  0  0  0  0  0  0  0  0  0
    0.1965   -2.4174   -0.0957 C   0  0  0  0  0  0  0  0  0  0  0  0
   -0.8154   -2.6521   -0.7492 O   0  0  0  0  0  0  0  0  0  0  0  0
    2.2152   -3.9307   -0.0978 C   0  0  0  0  0  0  0  0  0  0  0  0
   -0.7641   -4.7517    0.1104 H   0  0  0  0  0  0  0  0  0  0  0  0
    1.1560   -3.2242    1.6483 H   0  0  0  0  0  0  0  0  0  0  0  0
    1.9974   -4.2589   -1.1194 H   0  0  0  0  0  0  0  0  0  0  0  0
    2.8847   -3.0665   -0.1468 H   0  0  0  0  0  0  0  0  0  0  0  0
    2.7356   -4.7390    0.4252 H   0  0  0  0  0  0  0  0  0  0  0  0
    0.7041   -1.1330   -0.0587 N   0  0  0  0  0  0  0  0  0  0  0  0
   -0.0243    0.0408   -0.5721 C   0  0  2  0  0  0  0  0  0  0  0  0
    0.2848    0.2961   -2.0607 C   0  0  0  0  0  0  0  0  0  0  0  0
   -0.5165    0.8656   -2.7920 O   0  0  0  0  0  0  0  0  0  0  0  0
    0.4208    1.2503    0.2631 C   0  0  0  0  0  0  0  0  0  0  0  0
   -0.0476    1.1381    1.7245 C   0  0  0  0  0  0  0  0  0  0  0  0
    0.4327    2.3405    2.5328 C   0  0  0  0  0  0  0  0  0  0  0  0
    1.6669    2.4108    2.7568 O   0  5  0  0  0  0  0  0  0  0  0  0
   -0.4165    3.1808    2.9150 O   0  0  0  0  0  0  0  0  0  0  0  0
    1.4277   -0.9550    0.6350 H   0  0  0  0  0  0  0  0  0  0  0  0
   -1.1065   -0.0936   -0.4653 H   0  0  0  0  0  0  0  0  0  0  0  0
   -0.0044    2.1636   -0.1685 H   0  0  0  0  0  0  0  0  0  0  0  0
    1.5117    1.3491    0.2292 H   0  0  0  0  0  0  0  0  0  0  0  0
   -1.1399    1.0841    1.7601 H   0  0  0  0  0  0  0  0  0  0  0  0
    0.3476    0.2293    2.1866 H   0  0  0  0  0  0  0  0  0  0  0  0
    1.5188   -0.0636   -2.5679 N   0  0  0  0  0  0  0  0  0  0  0  0
    1.8727   -0.0411   -3.9896 C   0  0  2  0  0  0  0  0  0  0  0  0
    2.7711   -1.2373   -4.3704 C   0  0  0  0  0  0  0  0  0  0  0  0
    3.3026   -1.9246   -3.5031 O   0  0  0  0  0  0  0  0  0  0  0  0
    2.5788    1.2848   -4.2858 C   0  0  0  0  0  0  0  0  0  0  0  0
    2.0847   -0.6566   -1.9634 H   0  0  0  0  0  0  0  0  0  0  0  0
    0.9641   -0.1096   -4.5971 H   0  0  0  0  0  0  0  0  0  0  0  0
    3.4982    1.3682   -3.6976 H   0  0  0  0  0  0  0  0  0  0  0  0
    2.8341    1.3566   -5.3469 H   0  0  0  0  0  0  0  0  0  0  0  0
    1.9252    2.1252   -4.0307 H   0  0  0  0  0  0  0  0  0  0  0  0
    2.9838   -1.5495   -5.7013 N   0  0  0  0  0  0  0  0  0  0  0  0
    3.8011   -2.6728   -6.1408 C   0  0  0  0  0  0  0  0  0  0  0  0
    2.5069   -0.9826   -6.3962 H   0  0  0  0  0  0  0  0  0  0  0  0
    4.8253   -2.5703   -5.7668 H   0  0  0  0  0  0  0  0  0  0  0  0
    3.3837   -3.6163   -5.7736 H   0  0  0  0  0  0  0  0  0  0  0  0
    3.8348   -2.7107   -7.2338 H   0  0  0  0  0  0  0  0  0  0  0  0
  1  2  2  0  0  0  0
  1  3  1  0  0  0  0
  1  7  1  0  0  0  0
  3  4  1  0  0  0  0
  3  5  1  0  0  0  0
  3  6  1  0  0  0  0
  7  8  1  0  0  0  0
  7 12  1  0  0  0  0
  8  9  1  0  0  0  0
  8 11  1  0  0  0  0
  8 13  1  0  0  0  0
  9 10  2  0  0  0  0
  9 17  1  0  0  0  0
 11 14  1  0  0  0  0
 11 15  1  0  0  0  0
 11 16  1  0  0  0  0
 17 18  1  0  0  0  0
 17 26  1  0  0  0  0
 18 19  1  0  0  0  0
 18 21  1  0  0  0  0
 18 27  1  0  0  0  0
 19 20  2  0  0  0  0
 19 32  1  0  0  0  0
 21 22  1  0  0  0  0
 21 28  1  0  0  0  0
 21 29  1  0  0  0  0
 22 23  1  0  0  0  0
 22 30  1  0  0  0  0
 22 31  1  0  0  0  0
 23 24  1  0  0  0  0
 23 25  2  0  0  0  0
 32 33  1  0  0  0  0
 32 37  1  0  0  0  0
 33 34  1  0  0  0  0
 33 36  1  0  0  0  0
 33 38  1  0  0  0  0
 34 35  2  0  0  0  0
 34 42  1  0  0  0  0
 36 39  1  0  0  0  0
 36 40  1  0  0  0  0
 36 41  1  0  0  0  0
 42 43  1  0  0  0  0
 42 44  1  0  0  0  0
 43 45  1  0  0  0  0
 43 46  1  0  0  0  0
 43 47  1  0  0  0  0
M  CHG  1  24  -1
M  END
$$$$

  -OEChem-05262216243D

 47 46  0     1  0  0  0  0  0999 V2000
    0.0877   -5.7313    1.7396 C   0  0  0  0  0  0  0  0  0  0  0  0
    0.9804   -5.7106    2.5725 O   0  0  0  0  0  0  0  0  0  0  0  0
   -0.9810   -6.8070    1.8033 C   0  0  0  0  0  0  0  0  0  0  0  0
   -1.0183   -7.3528    0.8576 H   0  0  0  0  0  0  0  0  0  0  0  0
   -0.7596   -7.5126    2.6092 H   0  0  0  0  0  0  0  0  0  0  0  0
   -1.9562   -6.3510    1.9916 H   0  0  0  0  0  0  0  0  0  0  0  0
    0.0353   -4.7770    0.7468 N   0  0  0  0  0  0  0  0  0  0  0  0
    0.8911   -3.5854    0.6828 C   0  0  2  0  0  0  0  0  0  0  0  0
    0.1809   -2.4370   -0.0652 C   0  0  0  0  0  0  0  0  0  0  0  0
   -0.8320   -2.6674   -0.7188 O   0  0  0  0  0  0  0  0  0  0  0  0
    2.1993   -3.9510   -0.0279 C   0  0  0  0  0  0  0  0  0  0  0  0
   -0.7865   -4.7707    0.1429 H   0  0  0  0  0  0  0  0  0  0  0  0
    1.1127   -3.2362    1.6973 H   0  0  0  0  0  0  0  0  0  0  0  0
    2.0003   -4.2720   -1.0557 H   0  0  0  0  0  0  0  0  0  0  0  0
    2.8741   -3.0902   -0.0584 H   0  0  0  0  0  0  0  0  0  0  0  0
    2.7057   -4.7646    0.5006 H   0  0  0  0  0  0  0  0  0  0  0  0
    0.7066   -1.1594   -0.0519 N   0  0  0  0  0  0  0  0  0  0  0  0
   -0.0114    0.0153   -0.5787 C   0  0  2  0  0  0  0  0  0  0  0  0
    0.2830    0.2513   -2.0753 C   0  0  0  0  0  0  0  0  0  0  0  0
   -0.3987    1.0160   -2.7476 O   0  0  0  0  0  0  0  0  0  0  0  0
    0.4624    1.2260    0.2399 C   0  0  0  0  0  0  0  0  0  0  0  0
    0.0066    1.1398    1.7075 C   0  0  0  0  0  0  0  0  0  0  0  0
    0.5162    2.3433    2.4971 C   0  0  0  0  0  0  0  0  0  0  0  0
    1.7572    2.4103    2.6827 O   0  5  0  0  0  0  0  0  0  0  0  0
   -0.3195    3.1819    2.9122 O   0  0  0  0  0  0  0  0  0  0  0  0
    1.4349   -0.9787    0.6361 H   0  0  0  0  0  0  0  0  0  0  0  0
   -1.0938   -0.1017   -0.4586 H   0  0  0  0  0  0  0  0  0  0  0  0
    0.0498    2.1426   -0.1968 H   0  0  0  0  0  0  0  0  0  0  0  0
    1.5546    1.3045    0.1936 H   0  0  0  0  0  0  0  0  0  0  0  0
   -1.0861    1.1060    1.7538 H   0  0  0  0  0  0  0  0  0  0  0  0
    0.3894    0.2301    2.1776 H   0  0  0  0  0  0  0  0  0  0  0  0
    1.3531   -0.3875   -2.6724 N   0  0  0  0  0  0  0  0  0  0  0  0
    1.6315   -0.3878   -4.1107 C   0  0  2  0  0  0  0  0  0  0  0  0
    2.2772   -1.7143   -4.5639 C   0  0  0  0  0  0  0  0  0  0  0  0
    2.7540   -2.4938   -3.7437 O   0  0  0  0  0  0  0  0  0  0  0  0
    2.5517    0.7955   -4.4250 C   0  0  0  0  0  0  0  0  0  0  0  0
    1.7983   -1.1146   -2.1153 H   0  0  0  0  0  0  0  0  0  0  0  0
    0.6936   -0.2735   -4.6645 H   0  0  0  0  0  0  0  0  0  0  0  0
    3.5018    0.6934   -3.8911 H   0  0  0  0  0  0  0  0  0  0  0  0
    2.7571    0.8489   -5.4981 H   0  0  0  0  0  0  0  0  0  0  0  0
    2.0792    1.7340   -4.1175 H   0  0  0  0  0  0  0  0  0  0  0  0
    2.3240   -2.0359   -5.9087 N   0  0  0  0  0  0  0  0  0  0  0  0
    2.8898   -3.2780   -6.4183 C   0  0  0  0  0  0  0  0  0  0  0  0
    1.8908   -1.3871   -6.5591 H   0  0  0  0  0  0  0  0  0  0  0  0
    3.9441   -3.3637   -6.1351 H   0  0  0  0  0  0  0  0  0  0  0  0
    2.3449   -4.1393   -6.0179 H   0  0  0  0  0  0  0  0  0  0  0  0
    2.8225   -3.3027   -7.5101 H   0  0  0  0  0  0  0  0  0  0  0  0
  1  2  2  0  0  0  0
  1  3  1  0  0  0  0
  1  7  1  0  0  0  0
  3  4  1  0  0  0  0
  3  5  1  0  0  0  0
  3  6  1  0  0  0  0
  7  8  1  0  0  0  0
  7 12  1  0  0  0  0
  8  9  1  0  0  0  0
  8 11  1  0  0  0  0
  8 13  1  0  0  0  0
  9 10  2  0  0  0  0
  9 17  1  0  0  0  0
 11 14  1  0  0  0  0
 11 15  1  0  0  0  0
 11 16  1  0  0  0  0
 17 18  1  0  0  0  0
 17 26  1  0  0  0  0
 18 19  1  0  0  0  0
 18 21  1  0  0  0  0
 18 27  1  0  0  0  0
 19 20  2  0  0  0  0
 19 32  1  0  0  0  0
 21 22  1  0  0  0  0
 21 28  1  0  0  0  0
 21 29  1  0  0  0  0
 22 23  1  0  0  0  0
 22 30  1  0  0  0  0
 22 31  1  0  0  0  0
 23 24  1  0  0  0  0
 23 25  2  0  0  0  0
 32 33  1  0  0  0  0
 32 37  1  0  0  0  0
 33 34  1  0  0  0  0
 33 36  1  0  0  0  0
 33 38  1  0  0  0  0
 34 35  2  0  0  0  0
 34 42  1  0  0  0  0
 36 39  1  0  0  0  0
 36 40  1  0  0  0  0
 36 41  1  0  0  0  0
 42 43  1  0  0  0  0
 42 44  1  0  0  0  0
 43 45  1  0  0  0  0
 43 46  1  0  0  0  0
 43 47  1  0  0  0  0
M  CHG  1  24  -1
M  END
$$$$

  -OEChem-05262216243D

 47 46  0     1  0  0  0  0  0999 V2000
    0.0661   -5.7138    1.8220 C   0  0  0  0  0  0  0  0  0  0  0  0
    0.9666   -5.6864    2.6462 O   0  0  0  0  0  0  0  0  0  0  0  0
   -1.0123   -6.7781    1.9115 C   0  0  0  0  0  0  0  0  0  0  0  0
   -1.0335   -7.3661    0.9908 H   0  0  0  0  0  0  0  0  0  0  0  0
   -0.8137   -7.4472    2.7534 H   0  0  0  0  0  0  0  0  0  0  0  0
   -1.9880   -6.3076    2.0575 H   0  0  0  0  0  0  0  0  0  0  0  0
    0.0163   -4.7796    0.8104 N   0  0  0  0  0  0  0  0  0  0  0  0
    0.8869   -3.6014    0.7131 C   0  0  2  0  0  0  0  0  0  0  0  0
    0.1821   -2.4590   -0.0481 C   0  0  0  0  0  0  0  0  0  0  0  0
   -0.8371   -2.6892   -0.6916 O   0  0  0  0  0  0  0  0  0  0  0  0
    2.1793   -4.0009   -0.0072 C   0  0  0  0  0  0  0  0  0  0  0  0
   -0.8079   -4.7794    0.2097 H   0  0  0  0  0  0  0  0  0  0  0  0
    1.1266   -3.2350    1.7174 H   0  0  0  0  0  0  0  0  0  0  0  0
    1.9593   -4.3545   -1.0202 H   0  0  0  0  0  0  0  0  0  0  0  0
    2.8604   -3.1473   -0.0772 H   0  0  0  0  0  0  0  0  0  0  0  0
    2.6872   -4.8016    0.5397 H   0  0  0  0  0  0  0  0  0  0  0  0
    0.7182   -1.1863   -0.0670 N   0  0  0  0  0  0  0  0  0  0  0  0
   -0.0063   -0.0139   -0.5916 C   0  0  2  0  0  0  0  0  0  0  0  0
    0.2470    0.2022   -2.1008 C   0  0  0  0  0  0  0  0  0  0  0  0
   -0.2760    1.1265   -2.7123 O   0  0  0  0  0  0  0  0  0  0  0  0
    0.4908    1.1961    0.2157 C   0  0  0  0  0  0  0  0  0  0  0  0
    0.0574    1.1113    1.6908 C   0  0  0  0  0  0  0  0  0  0  0  0
    0.5842    2.3085    2.4783 C   0  0  0  0  0  0  0  0  0  0  0  0
    1.8276    2.3653    2.6514 O   0  5  0  0  0  0  0  0  0  0  0  0
   -0.2414    3.1482    2.9107 O   0  0  0  0  0  0  0  0  0  0  0  0
    1.4658   -0.9994    0.5986 H   0  0  0  0  0  0  0  0  0  0  0  0
   -1.0860   -0.1246   -0.4449 H   0  0  0  0  0  0  0  0  0  0  0  0
    0.0766    2.1156   -0.2134 H   0  0  0  0  0  0  0  0  0  0  0  0
    1.5822    1.2676    0.1500 H   0  0  0  0  0  0  0  0  0  0  0  0
   -1.0347    1.0833    1.7530 H   0  0  0  0  0  0  0  0  0  0  0  0
    0.4418    0.1990    2.1545 H   0  0  0  0  0  0  0  0  0  0  0  0
    1.0765   -0.6614   -2.7909 N   0  0  0  0  0  0  0  0  0  0  0  0
    1.2946   -0.6447   -4.2394 C   0  0  2  0  0  0  0  0  0  0  0  0
    1.6643   -2.0437   -4.7752 C   0  0  0  0  0  0  0  0  0  0  0  0
    2.0783   -2.9175   -4.0190 O   0  0  0  0  0  0  0  0  0  0  0  0
    2.4075    0.3603   -4.5539 C   0  0  0  0  0  0  0  0  0  0  0  0
    1.3665   -1.4966   -2.2848 H   0  0  0  0  0  0  0  0  0  0  0  0
    0.3729   -0.3323   -4.7410 H   0  0  0  0  0  0  0  0  0  0  0  0
    3.3387    0.0661   -4.0589 H   0  0  0  0  0  0  0  0  0  0  0  0
    2.5849    0.4119   -5.6321 H   0  0  0  0  0  0  0  0  0  0  0  0
    2.1278    1.3591   -4.2029 H   0  0  0  0  0  0  0  0  0  0  0  0
    1.5358   -2.3242   -6.1239 N   0  0  0  0  0  0  0  0  0  0  0  0
    1.8366   -3.6266   -6.7033 C   0  0  0  0  0  0  0  0  0  0  0  0
    1.1609   -1.5920   -6.7198 H   0  0  0  0  0  0  0  0  0  0  0  0
    2.8832   -3.8936   -6.5228 H   0  0  0  0  0  0  0  0  0  0  0  0
    1.1949   -4.3978   -6.2646 H   0  0  0  0  0  0  0  0  0  0  0  0
    1.6664   -3.6074   -7.7839 H   0  0  0  0  0  0  0  0  0  0  0  0
  1  2  2  0  0  0  0
  1  3  1  0  0  0  0
  1  7  1  0  0  0  0
  3  4  1  0  0  0  0
  3  5  1  0  0  0  0
  3  6  1  0  0  0  0
  7  8  1  0  0  0  0
  7 12  1  0  0  0  0
  8  9  1  0  0  0  0
  8 11  1  0  0  0  0
  8 13  1  0  0  0  0
  9 10  2  0  0  0  0
  9 17  1  0  0  0  0
 11 14  1  0  0  0  0
 11 15  1  0  0  0  0
 11 16  1  0  0  0  0
 17 18  1  0  0  0  0
 17 26  1  0  0  0  0
 18 19  1  0  0  0  0
 18 21  1  0  0  0  0
 18 27  1  0  0  0  0
 19 20  2  0  0  0  0
 19 32  1  0  0  0  0
 21 22  1  0  0  0  0
 21 28  1  0  0  0  0
 21 29  1  0  0  0  0
 22 23  1  0  0  0  0
 22 30  1  0  0  0  0
 22 31  1  0  0  0  0
 23 24  1  0  0  0  0
 23 25  2  0  0  0  0
 32 33  1  0  0  0  0
 32 37  1  0  0  0  0
 33 34  1  0  0  0  0
 33 36  1  0  0  0  0
 33 38  1  0  0  0  0
 34 35  2  0  0  0  0
 34 42  1  0  0  0  0
 36 39  1  0  0  0  0
 36 40  1  0  0  0  0
 36 41  1  0  0  0  0
 42 43  1  0  0  0  0
 42 44  1  0  0  0  0
 43 45  1  0  0  0  0
 43 46  1  0  0  0  0
 43 47  1  0  0  0  0
M  CHG  1  24  -1
M  END
$$$$

  -OEChem-05262216243D

 47 46  0     1  0  0  0  0  0999 V2000
    0.0796   -5.7228    1.8431 C   0  0  0  0  0  0  0  0  0  0  0  0
    0.9644   -5.6846    2.6838 O   0  0  0  0  0  0  0  0  0  0  0  0
   -0.9676   -6.8198    1.8946 C   0  0  0  0  0  0  0  0  0  0  0  0
   -1.0046   -7.3469    0.9380 H   0  0  0  0  0  0  0  0  0  0  0  0
   -0.7238   -7.5374    2.6830 H   0  0  0  0  0  0  0  0  0  0  0  0
   -1.9490   -6.3861    2.1022 H   0  0  0  0  0  0  0  0  0  0  0  0
    0.0190   -4.7712    0.8484 N   0  0  0  0  0  0  0  0  0  0  0  0
    0.8733   -3.5799    0.7691 C   0  0  2  0  0  0  0  0  0  0  0  0
    0.1751   -2.4564   -0.0258 C   0  0  0  0  0  0  0  0  0  0  0  0
   -0.8382   -2.6980   -0.6743 O   0  0  0  0  0  0  0  0  0  0  0  0
    2.1964   -3.9645    0.0970 C   0  0  0  0  0  0  0  0  0  0  0  0
   -0.7903   -4.7872    0.2279 H   0  0  0  0  0  0  0  0  0  0  0  0
    1.0722   -3.2003    1.7774 H   0  0  0  0  0  0  0  0  0  0  0  0
    2.0157   -4.3404   -0.9154 H   0  0  0  0  0  0  0  0  0  0  0  0
    2.8619   -3.0984    0.0335 H   0  0  0  0  0  0  0  0  0  0  0  0
    2.7039   -4.7444    0.6731 H   0  0  0  0  0  0  0  0  0  0  0  0
    0.7172   -1.1885   -0.0858 N   0  0  0  0  0  0  0  0  0  0  0  0
   -0.0168   -0.0195   -0.6035 C   0  0  2  0  0  0  0  0  0  0  0  0
    0.1843    0.1692   -2.1267 C   0  0  0  0  0  0  0  0  0  0  0  0
   -0.1126    1.2149   -2.6932 O   0  0  0  0  0  0  0  0  0  0  0  0
    0.5071    1.1938    0.1852 C   0  0  0  0  0  0  0  0  0  0  0  0
    0.1096    1.1195    1.6713 C   0  0  0  0  0  0  0  0  0  0  0  0
    0.6617    2.3180    2.4392 C   0  0  0  0  0  0  0  0  0  0  0  0
    1.9083    2.3657    2.5891 O   0  5  0  0  0  0  0  0  0  0  0  0
   -0.1490    3.1655    2.8847 O   0  0  0  0  0  0  0  0  0  0  0  0
    1.4799   -0.9937    0.5597 H   0  0  0  0  0  0  0  0  0  0  0  0
   -1.0918   -0.1252   -0.4222 H   0  0  0  0  0  0  0  0  0  0  0  0
    0.0871    2.1144   -0.2356 H   0  0  0  0  0  0  0  0  0  0  0  0
    1.5970    1.2597    0.0913 H   0  0  0  0  0  0  0  0  0  0  0  0
   -0.9807    1.0987    1.7606 H   0  0  0  0  0  0  0  0  0  0  0  0
    0.5001    0.2073    2.1303 H   0  0  0  0  0  0  0  0  0  0  0  0
    0.7107   -0.8588   -2.8865 N   0  0  0  0  0  0  0  0  0  0  0  0
    0.8929   -0.8262   -4.3405 C   0  0  2  0  0  0  0  0  0  0  0  0
    0.9229   -2.2422   -4.9519 C   0  0  0  0  0  0  0  0  0  0  0  0
    1.2178   -3.2181   -4.2693 O   0  0  0  0  0  0  0  0  0  0  0  0
    2.1998   -0.0908   -4.6558 C   0  0  0  0  0  0  0  0  0  0  0  0
    0.7779   -1.7645   -2.4222 H   0  0  0  0  0  0  0  0  0  0  0  0
    0.0552   -0.2875   -4.7953 H   0  0  0  0  0  0  0  0  0  0  0  0
    3.0479   -0.6049   -4.1928 H   0  0  0  0  0  0  0  0  0  0  0  0
    2.3649   -0.0467   -5.7363 H   0  0  0  0  0  0  0  0  0  0  0  0
    2.1626    0.9336   -4.2718 H   0  0  0  0  0  0  0  0  0  0  0  0
    0.6318   -2.4197   -6.2927 N   0  0  0  0  0  0  0  0  0  0  0  0
    0.6077   -3.7234   -6.9424 C   0  0  0  0  0  0  0  0  0  0  0  0
    0.3617   -1.5975   -6.8244 H   0  0  0  0  0  0  0  0  0  0  0  0
    1.5889   -4.2047   -6.8735 H   0  0  0  0  0  0  0  0  0  0  0  0
   -0.1378   -4.3719   -6.4704 H   0  0  0  0  0  0  0  0  0  0  0  0
    0.3511   -3.6128   -8.0003 H   0  0  0  0  0  0  0  0  0  0  0  0
  1  2  2  0  0  0  0
  1  3  1  0  0  0  0
  1  7  1  0  0  0  0
  3  4  1  0  0  0  0
  3  5  1  0  0  0  0
  3  6  1  0  0  0  0
  7  8  1  0  0  0  0
  7 12  1  0  0  0  0
  8  9  1  0  0  0  0
  8 11  1  0  0  0  0
  8 13  1  0  0  0  0
  9 10  2  0  0  0  0
  9 17  1  0  0  0  0
 11 14  1  0  0  0  0
 11 15  1  0  0  0  0
 11 16  1  0  0  0  0
 17 18  1  0  0  0  0
 17 26  1  0  0  0  0
 18 19  1  0  0  0  0
 18 21  1  0  0  0  0
 18 27  1  0  0  0  0
 19 20  2  0  0  0  0
 19 32  1  0  0  0  0
 21 22  1  0  0  0  0
 21 28  1  0  0  0  0
 21 29  1  0  0  0  0
 22 23  1  0  0  0  0
 22 30  1  0  0  0  0
 22 31  1  0  0  0  0
 23 24  1  0  0  0  0
 23 25  2  0  0  0  0
 32 33  1  0  0  0  0
 32 37  1  0  0  0  0
 33 34  1  0  0  0  0
 33 36  1  0  0  0  0
 33 38  1  0  0  0  0
 34 35  2  0  0  0  0
 34 42  1  0  0  0  0
 36 39  1  0  0  0  0
 36 40  1  0  0  0  0
 36 41  1  0  0  0  0
 42 43  1  0  0  0  0
 42 44  1  0  0  0  0
 43 45  1  0  0  0  0
 43 46  1  0  0  0  0
 43 47  1  0  0  0  0
M  CHG  1  24  -1
M  END
$$$$

  -OEChem-05262216243D

 47 46  0     1  0  0  0  0  0999 V2000
    0.1258   -5.7017    1.8352 C   0  0  0  0  0  0  0  0  0  0  0  0
    1.0241   -5.6593    2.6610 O   0  0  0  0  0  0  0  0  0  0  0  0
   -0.9281   -6.7908    1.9165 C   0  0  0  0  0  0  0  0  0  0  0  0
   -0.9866   -7.3267    0.9659 H   0  0  0  0  0  0  0  0  0  0  0  0
   -0.6757   -7.5024    2.7076 H   0  0  0  0  0  0  0  0  0  0  0  0
   -1.9025   -6.3483    2.1376 H   0  0  0  0  0  0  0  0  0  0  0  0
    0.0561   -4.7623    0.8298 N   0  0  0  0  0  0  0  0  0  0  0  0
    0.9086   -3.5712    0.7296 C   0  0  2  0  0  0  0  0  0  0  0  0
    0.1886   -2.4475   -0.0452 C   0  0  0  0  0  0  0  0  0  0  0  0
   -0.8353   -2.6910   -0.6773 O   0  0  0  0  0  0  0  0  0  0  0  0
    2.2115   -3.9565    0.0202 C   0  0  0  0  0  0  0  0  0  0  0  0
   -0.7635   -4.7810    0.2231 H   0  0  0  0  0  0  0  0  0  0  0  0
    1.1366   -3.1923    1.7321 H   0  0  0  0  0  0  0  0  0  0  0  0
    2.0015   -4.3307   -0.9873 H   0  0  0  0  0  0  0  0  0  0  0  0
    2.8767   -3.0913   -0.0607 H   0  0  0  0  0  0  0  0  0  0  0  0
    2.7332   -4.7383    0.5811 H   0  0  0  0  0  0  0  0  0  0  0  0
    0.7237   -1.1778   -0.1211 N   0  0  0  0  0  0  0  0  0  0  0  0
   -0.0338   -0.0098   -0.6046 C   0  0  2  0  0  0  0  0  0  0  0  0
    0.1162    0.1719   -2.1354 C   0  0  0  0  0  0  0  0  0  0  0  0
    0.0768    1.2733   -2.6720 O   0  0  0  0  0  0  0  0  0  0  0  0
    0.4925    1.2026    0.1863 C   0  0  0  0  0  0  0  0  0  0  0  0
    0.1284    1.1037    1.6796 C   0  0  0  0  0  0  0  0  0  0  0  0
    0.6805    2.2992    2.4518 C   0  0  0  0  0  0  0  0  0  0  0  0
    1.9229    2.3255    2.6376 O   0  5  0  0  0  0  0  0  0  0  0  0
   -0.1270    3.1689    2.8595 O   0  0  0  0  0  0  0  0  0  0  0  0
    1.5089   -0.9820    0.4964 H   0  0  0  0  0  0  0  0  0  0  0  0
   -1.1014   -0.1279   -0.3918 H   0  0  0  0  0  0  0  0  0  0  0  0
    0.0495    2.1222   -0.2122 H   0  0  0  0  0  0  0  0  0  0  0  0
    1.5788    1.2857    0.0682 H   0  0  0  0  0  0  0  0  0  0  0  0
   -0.9593    1.0673    1.7928 H   0  0  0  0  0  0  0  0  0  0  0  0
    0.5400    0.1908    2.1180 H   0  0  0  0  0  0  0  0  0  0  0  0
    0.3156   -0.9362   -2.9385 N   0  0  0  0  0  0  0  0  0  0  0  0
    0.4648   -0.9040   -4.3976 C   0  0  2  0  0  0  0  0  0  0  0  0
    0.1272   -2.2574   -5.0572 C   0  0  0  0  0  0  0  0  0  0  0  0
    0.2345   -3.3088   -4.4352 O   0  0  0  0  0  0  0  0  0  0  0  0
    1.9071   -0.5100   -4.7358 C   0  0  0  0  0  0  0  0  0  0  0  0
    0.1673   -1.8438   -2.4906 H   0  0  0  0  0  0  0  0  0  0  0  0
   -0.2206   -0.1563   -4.8098 H   0  0  0  0  0  0  0  0  0  0  0  0
    2.6097   -1.2333   -4.3098 H   0  0  0  0  0  0  0  0  0  0  0  0
    2.0519   -0.4781   -5.8196 H   0  0  0  0  0  0  0  0  0  0  0  0
    2.1386    0.4798   -4.3301 H   0  0  0  0  0  0  0  0  0  0  0  0
   -0.2703   -2.2978   -6.3822 N   0  0  0  0  0  0  0  0  0  0  0  0
   -0.6143   -3.5301   -7.0797 C   0  0  0  0  0  0  0  0  0  0  0  0
   -0.3729   -1.4107   -6.8662 H   0  0  0  0  0  0  0  0  0  0  0  0
    0.2423   -4.2120   -7.0966 H   0  0  0  0  0  0  0  0  0  0  0  0
   -1.4535   -4.0288   -6.5835 H   0  0  0  0  0  0  0  0  0  0  0  0
   -0.9022   -3.3115   -8.1124 H   0  0  0  0  0  0  0  0  0  0  0  0
  1  2  2  0  0  0  0
  1  3  1  0  0  0  0
  1  7  1  0  0  0  0
  3  4  1  0  0  0  0
  3  5  1  0  0  0  0
  3  6  1  0  0  0  0
  7  8  1  0  0  0  0
  7 12  1  0  0  0  0
  8  9  1  0  0  0  0
  8 11  1  0  0  0  0
  8 13  1  0  0  0  0
  9 10  2  0  0  0  0
  9 17  1  0  0  0  0
 11 14  1  0  0  0  0
 11 15  1  0  0  0  0
 11 16  1  0  0  0  0
 17 18  1  0  0  0  0
 17 26  1  0  0  0  0
 18 19  1  0  0  0  0
 18 21  1  0  0  0  0
 18 27  1  0  0  0  0
 19 20  2  0  0  0  0
 19 32  1  0  0  0  0
 21 22  1  0  0  0  0
 21 28  1  0  0  0  0
 21 29  1  0  0  0  0
 22 23  1  0  0  0  0
 22 30  1  0  0  0  0
 22 31  1  0  0  0  0
 23 24  1  0  0  0  0
 23 25  2  0  0  0  0
 32 33  1  0  0  0  0
 32 37  1  0  0  0  0
 33 34  1  0  0  0  0
 33 36  1  0  0  0  0
 33 38  1  0  0  0  0
 34 35  2  0  0  0  0
 34 42  1  0  0  0  0
 36 39  1  0  0  0  0
 36 40  1  0  0  0  0
 36 41  1  0  0  0  0
 42 43  1  0  0  0  0
 42 44  1  0  0  0  0
 43 45  1  0  0  0  0
 43 46  1  0  0  0  0
 43 47  1  0  0  0  0
M  CHG  1  24  -1
M  END
$$$$

  -OEChem-05262216243D

 47 46  0     1  0  0  0  0  0999 V2000
    0.1655   -5.7400    1.7040 C   0  0  0  0  0  0  0  0  0  0  0  0
    1.0268   -5.7066    2.5690 O   0  0  0  0  0  0  0  0  0  0  0  0
   -0.8534   -6.8649    1.6892 C   0  0  0  0  0  0  0  0  0  0  0  0
   -0.7683   -7.4309    0.7585 H   0  0  0  0  0  0  0  0  0  0  0  0
   -0.6826   -7.5410    2.5315 H   0  0  0  0  0  0  0  0  0  0  0  0
   -1.8633   -6.4544    1.7665 H   0  0  0  0  0  0  0  0  0  0  0  0
    0.1085   -4.7611    0.7363 N   0  0  0  0  0  0  0  0  0  0  0  0
    0.9154   -3.5339    0.7300 C   0  0  2  0  0  0  0  0  0  0  0  0
    0.1870   -2.4094   -0.0375 C   0  0  0  0  0  0  0  0  0  0  0  0
   -0.8459   -2.6545   -0.6557 O   0  0  0  0  0  0  0  0  0  0  0  0
    2.2703   -3.8383    0.0811 C   0  0  0  0  0  0  0  0  0  0  0  0
   -0.6918   -4.7741    0.1036 H   0  0  0  0  0  0  0  0  0  0  0  0
    1.0724   -3.1878    1.7577 H   0  0  0  0  0  0  0  0  0  0  0  0
    2.1316   -4.1726   -0.9520 H   0  0  0  0  0  0  0  0  0  0  0  0
    2.9047   -2.9470    0.0772 H   0  0  0  0  0  0  0  0  0  0  0  0
    2.7904   -4.6252    0.6359 H   0  0  0  0  0  0  0  0  0  0  0  0
    0.7213   -1.1400   -0.1280 N   0  0  0  0  0  0  0  0  0  0  0  0
   -0.0408    0.0225   -0.6155 C   0  0  2  0  0  0  0  0  0  0  0  0
    0.1044    0.1802   -2.1487 C   0  0  0  0  0  0  0  0  0  0  0  0
    0.3358    1.2575   -2.6864 O   0  0  0  0  0  0  0  0  0  0  0  0
    0.4764    1.2457    0.1641 C   0  0  0  0  0  0  0  0  0  0  0  0
    0.1128    1.1548    1.6571 C   0  0  0  0  0  0  0  0  0  0  0  0
    0.6561    2.3618    2.4165 C   0  0  0  0  0  0  0  0  0  0  0  0
    1.8794    2.3463    2.7019 O   0  5  0  0  0  0  0  0  0  0  0  0
   -0.1388    3.2896    2.7030 O   0  0  0  0  0  0  0  0  0  0  0  0
    1.5138   -0.9389    0.4784 H   0  0  0  0  0  0  0  0  0  0  0  0
   -1.1076   -0.0970   -0.3990 H   0  0  0  0  0  0  0  0  0  0  0  0
    0.0270    2.1582   -0.2432 H   0  0  0  0  0  0  0  0  0  0  0  0
    1.5622    1.3356    0.0465 H   0  0  0  0  0  0  0  0  0  0  0  0
   -0.9746    1.1117    1.7713 H   0  0  0  0  0  0  0  0  0  0  0  0
    0.5305    0.2476    2.1021 H   0  0  0  0  0  0  0  0  0  0  0  0
   -0.0133   -0.9381   -2.9535 N   0  0  0  0  0  0  0  0  0  0  0  0
    0.1230   -0.9414   -4.4145 C   0  0  2  0  0  0  0  0  0  0  0  0
   -0.6498   -2.0958   -5.0851 C   0  0  0  0  0  0  0  0  0  0  0  0
   -0.7787   -3.1796   -4.5272 O   0  0  0  0  0  0  0  0  0  0  0  0
    1.6124   -1.0357   -4.7606 C   0  0  0  0  0  0  0  0  0  0  0  0
   -0.3037   -1.8032   -2.4861 H   0  0  0  0  0  0  0  0  0  0  0  0
   -0.2796   -0.0047   -4.8134 H   0  0  0  0  0  0  0  0  0  0  0  0
    2.0392   -1.9599   -4.3582 H   0  0  0  0  0  0  0  0  0  0  0  0
    1.7551   -1.0271   -5.8450 H   0  0  0  0  0  0  0  0  0  0  0  0
    2.1562   -0.1865   -4.3348 H   0  0  0  0  0  0  0  0  0  0  0  0
   -1.1701   -1.9287   -6.3566 N   0  0  0  0  0  0  0  0  0  0  0  0
   -1.9253   -2.9606   -7.0552 C   0  0  0  0  0  0  0  0  0  0  0  0
   -1.0806   -1.0097   -6.7801 H   0  0  0  0  0  0  0  0  0  0  0  0
   -1.3146   -3.8604   -7.1842 H   0  0  0  0  0  0  0  0  0  0  0  0
   -2.8265   -3.2229   -6.4914 H   0  0  0  0  0  0  0  0  0  0  0  0
   -2.2273   -2.6035   -8.0443 H   0  0  0  0  0  0  0  0  0  0  0  0
  1  2  2  0  0  0  0
  1  3  1  0  0  0  0
  1  7  1  0  0  0  0
  3  4  1  0  0  0  0
  3  5  1  0  0  0  0
  3  6  1  0  0  0  0
  7  8  1  0  0  0  0
  7 12  1  0  0  0  0
  8  9  1  0  0  0  0
  8 11  1  0  0  0  0
  8 13  1  0  0  0  0
  9 10  2  0  0  0  0
  9 17  1  0  0  0  0
 11 14  1  0  0  0  0
 11 15  1  0  0  0  0
 11 16  1  0  0  0  0
 17 18  1  0  0  0  0
 17 26  1  0  0  0  0
 18 19  1  0  0  0  0
 18 21  1  0  0  0  0
 18 27  1  0  0  0  0
 19 20  2  0  0  0  0
 19 32  1  0  0  0  0
 21 22  1  0  0  0  0
 21 28  1  0  0  0  0
 21 29  1  0  0  0  0
 22 23  1  0  0  0  0
 22 30  1  0  0  0  0
 22 31  1  0  0  0  0
 23 24  1  0  0  0  0
 23 25  2  0  0  0  0
 32 33  1  0  0  0  0
 32 37  1  0  0  0  0
 33 34  1  0  0  0  0
 33 36  1  0  0  0  0
 33 38  1  0  0  0  0
 34 35  2  0  0  0  0
 34 42  1  0  0  0  0
 36 39  1  0  0  0  0
 36 40  1  0  0  0  0
 36 41  1  0  0  0  0
 42 43  1  0  0  0  0
 42 44  1  0  0  0  0
 43 45  1  0  0  0  0
 43 46  1  0  0  0  0
 43 47  1  0  0  0  0
M  CHG  1  24  -1
M  END
$$$$

  -OEChem-05262216243D

 47 46  0     1  0  0  0  0  0999 V2000
    0.2100   -5.7166    1.6733 C   0  0  0  0  0  0  0  0  0  0  0  0
    1.1230   -5.6899    2.4834 O   0  0  0  0  0  0  0  0  0  0  0  0
   -0.8273   -6.8228    1.7360 C   0  0  0  0  0  0  0  0  0  0  0  0
   -0.8761   -7.3436    0.7766 H   0  0  0  0  0  0  0  0  0  0  0  0
   -0.5645   -7.5436    2.5155 H   0  0  0  0  0  0  0  0  0  0  0  0
   -1.8089   -6.3993    1.9633 H   0  0  0  0  0  0  0  0  0  0  0  0
    0.1098   -4.7441    0.7023 N   0  0  0  0  0  0  0  0  0  0  0  0
    0.9299   -3.5269    0.6447 C   0  0  2  0  0  0  0  0  0  0  0  0
    0.1799   -2.3970   -0.0926 C   0  0  0  0  0  0  0  0  0  0  0  0
   -0.8747   -2.6366   -0.6765 O   0  0  0  0  0  0  0  0  0  0  0  0
    2.2482   -3.8503   -0.0672 C   0  0  0  0  0  0  0  0  0  0  0  0
   -0.7276   -4.7488    0.1198 H   0  0  0  0  0  0  0  0  0  0  0  0
    1.1423   -3.1760    1.6606 H   0  0  0  0  0  0  0  0  0  0  0  0
    2.0577   -4.1874   -1.0911 H   0  0  0  0  0  0  0  0  0  0  0  0
    2.8919   -2.9662   -0.1049 H   0  0  0  0  0  0  0  0  0  0  0  0
    2.7842   -4.6411    0.4667 H   0  0  0  0  0  0  0  0  0  0  0  0
    0.7061   -1.1233   -0.1723 N   0  0  0  0  0  0  0  0  0  0  0  0
   -0.0773    0.0396   -0.6184 C   0  0  2  0  0  0  0  0  0  0  0  0
    0.0359    0.2129   -2.1504 C   0  0  0  0  0  0  0  0  0  0  0  0
    0.5047    1.2161   -2.6774 O   0  0  0  0  0  0  0  0  0  0  0  0
    0.4431    1.2586    0.1641 C   0  0  0  0  0  0  0  0  0  0  0  0
    0.1172    1.1406    1.6638 C   0  0  0  0  0  0  0  0  0  0  0  0
    0.6605    2.3420    2.4318 C   0  0  0  0  0  0  0  0  0  0  0  0
    1.8973    2.3631    2.6506 O   0  5  0  0  0  0  0  0  0  0  0  0
   -0.1512    3.2260    2.7985 O   0  0  0  0  0  0  0  0  0  0  0  0
    1.5173   -0.9282    0.4109 H   0  0  0  0  0  0  0  0  0  0  0  0
   -1.1382   -0.0912   -0.3789 H   0  0  0  0  0  0  0  0  0  0  0  0
   -0.0270    2.1700   -0.2224 H   0  0  0  0  0  0  0  0  0  0  0  0
    1.5248    1.3627    0.0224 H   0  0  0  0  0  0  0  0  0  0  0  0
   -0.9661    1.0769    1.8044 H   0  0  0  0  0  0  0  0  0  0  0  0
    0.5614    0.2339    2.0833 H   0  0  0  0  0  0  0  0  0  0  0  0
   -0.3948   -0.8177   -2.9643 N   0  0  0  0  0  0  0  0  0  0  0  0
   -0.2558   -0.8467   -4.4244 C   0  0  2  0  0  0  0  0  0  0  0  0
   -1.3222   -1.7228   -5.1136 C   0  0  0  0  0  0  0  0  0  0  0  0
   -1.7096   -2.7684   -4.6050 O   0  0  0  0  0  0  0  0  0  0  0  0
    1.1468   -1.3593   -4.7645 C   0  0  0  0  0  0  0  0  0  0  0  0
   -0.7553   -1.6512   -2.4876 H   0  0  0  0  0  0  0  0  0  0  0  0
   -0.3686    0.1701   -4.8142 H   0  0  0  0  0  0  0  0  0  0  0  0
    1.2875   -2.3725   -4.3749 H   0  0  0  0  0  0  0  0  0  0  0  0
    1.2946   -1.3775   -5.8483 H   0  0  0  0  0  0  0  0  0  0  0  0
    1.9074   -0.7075   -4.3231 H   0  0  0  0  0  0  0  0  0  0  0  0
   -1.8159   -1.3550   -6.3531 N   0  0  0  0  0  0  0  0  0  0  0  0
   -2.8454   -2.1046   -7.0615 C   0  0  0  0  0  0  0  0  0  0  0  0
   -1.5199   -0.4561   -6.7219 H   0  0  0  0  0  0  0  0  0  0  0  0
   -2.5384   -3.1469   -7.1977 H   0  0  0  0  0  0  0  0  0  0  0  0
   -3.7862   -2.0838   -6.5018 H   0  0  0  0  0  0  0  0  0  0  0  0
   -3.0180   -1.6664   -8.0491 H   0  0  0  0  0  0  0  0  0  0  0  0
  1  2  2  0  0  0  0
  1  3  1  0  0  0  0
  1  7  1  0  0  0  0
  3  4  1  0  0  0  0
  3  5  1  0  0  0  0
  3  6  1  0  0  0  0
  7  8  1  0  0  0  0
  7 12  1  0  0  0  0
  8  9  1  0  0  0  0
  8 11  1  0  0  0  0
  8 13  1  0  0  0  0
  9 10  2  0  0  0  0
  9 17  1  0  0  0  0
 11 14  1  0  0  0  0
 11 15  1  0  0  0  0
 11 16  1  0  0  0  0
 17 18  1  0  0  0  0
 17 26  1  0  0  0  0
 18 19  1  0  0  0  0
 18 21  1  0  0  0  0
 18 27  1  0  0  0  0
 19 20  2  0  0  0  0
 19 32  1  0  0  0  0
 21 22  1  0  0  0  0
 21 28  1  0  0  0  0
 21 29  1  0  0  0  0
 22 23  1  0  0  0  0
 22 30  1  0  0  0  0
 22 31  1  0  0  0  0
 23 24  1  0  0  0  0
 23 25  2  0  0  0  0
 32 33  1  0  0  0  0
 32 37  1  0  0  0  0
 33 34  1  0  0  0  0
 33 36  1  0  0  0  0
 33 38  1  0  0  0  0
 34 35  2  0  0  0  0
 34 42  1  0  0  0  0
 36 39  1  0  0  0  0
 36 40  1  0  0  0  0
 36 41  1  0  0  0  0
 42 43  1  0  0  0  0
 42 44  1  0  0  0  0
 43 45  1  0  0  0  0
 43 46  1  0  0  0  0
 43 47  1  0  0  0  0
M  CHG  1  24  -1
M  END
$$$$

  -OEChem-05262216243D

 47 46  0     1  0  0  0  0  0999 V2000
    0.2280   -5.7202    1.6277 C   0  0  0  0  0  0  0  0  0  0  0  0
    1.1792   -5.7210    2.3931 O   0  0  0  0  0  0  0  0  0  0  0  0
   -0.8192   -6.8144    1.7191 C   0  0  0  0  0  0  0  0  0  0  0  0
   -0.9443   -7.2938    0.7452 H   0  0  0  0  0  0  0  0  0  0  0  0
   -0.5129   -7.5701    2.4477 H   0  0  0  0  0  0  0  0  0  0  0  0
   -1.7752   -6.3882    2.0332 H   0  0  0  0  0  0  0  0  0  0  0  0
    0.0933   -4.7287    0.6803 N   0  0  0  0  0  0  0  0  0  0  0  0
    0.9319   -3.5260    0.5962 C   0  0  2  0  0  0  0  0  0  0  0  0
    0.1751   -2.3817   -0.1116 C   0  0  0  0  0  0  0  0  0  0  0  0
   -0.8928   -2.6073   -0.6782 O   0  0  0  0  0  0  0  0  0  0  0  0
    2.2172   -3.8678   -0.1660 C   0  0  0  0  0  0  0  0  0  0  0  0
   -0.7709   -4.7118    0.1385 H   0  0  0  0  0  0  0  0  0  0  0  0
    1.1865   -3.1828    1.6051 H   0  0  0  0  0  0  0  0  0  0  0  0
    1.9812   -4.2104   -1.1785 H   0  0  0  0  0  0  0  0  0  0  0  0
    2.8671   -2.9903   -0.2372 H   0  0  0  0  0  0  0  0  0  0  0  0
    2.7676   -4.6596    0.3514 H   0  0  0  0  0  0  0  0  0  0  0  0
    0.7049   -1.1089   -0.1783 N   0  0  0  0  0  0  0  0  0  0  0  0
   -0.0834    0.0555   -0.6050 C   0  0  2  0  0  0  0  0  0  0  0  0
    0.0228    0.2391   -2.1338 C   0  0  0  0  0  0  0  0  0  0  0  0
    0.7073    1.1136   -2.6543 O   0  0  0  0  0  0  0  0  0  0  0  0
    0.4363    1.2735    0.1785 C   0  0  0  0  0  0  0  0  0  0  0  0
    0.1244    1.1476    1.6802 C   0  0  0  0  0  0  0  0  0  0  0  0
    0.6684    2.3502    2.4464 C   0  0  0  0  0  0  0  0  0  0  0  0
    1.8919    2.3375    2.7299 O   0  5  0  0  0  0  0  0  0  0  0  0
   -0.1286    3.2753    2.7363 O   0  0  0  0  0  0  0  0  0  0  0  0
    1.5303   -0.9227    0.3874 H   0  0  0  0  0  0  0  0  0  0  0  0
   -1.1418   -0.0762   -0.3571 H   0  0  0  0  0  0  0  0  0  0  0  0
   -0.0392    2.1835   -0.2035 H   0  0  0  0  0  0  0  0  0  0  0  0
    1.5169    1.3827    0.0314 H   0  0  0  0  0  0  0  0  0  0  0  0
   -0.9574    1.0793    1.8300 H   0  0  0  0  0  0  0  0  0  0  0  0
    0.5752    0.2405    2.0923 H   0  0  0  0  0  0  0  0  0  0  0  0
   -0.6823   -0.6261   -2.9488 N   0  0  0  0  0  0  0  0  0  0  0  0
   -0.6047   -0.6382   -4.4143 C   0  0  2  0  0  0  0  0  0  0  0  0
   -1.8886   -1.1720   -5.0826 C   0  0  0  0  0  0  0  0  0  0  0  0
   -2.5374   -2.0794   -4.5747 O   0  0  0  0  0  0  0  0  0  0  0  0
    0.5984   -1.4917   -4.8252 C   0  0  0  0  0  0  0  0  0  0  0  0
   -1.1471   -1.4094   -2.4790 H   0  0  0  0  0  0  0  0  0  0  0  0
   -0.4547    0.3850   -4.7736 H   0  0  0  0  0  0  0  0  0  0  0  0
    0.4742   -2.5204   -4.4720 H   0  0  0  0  0  0  0  0  0  0  0  0
    0.7033   -1.5057   -5.9140 H   0  0  0  0  0  0  0  0  0  0  0  0
    1.5179   -1.0832   -4.3944 H   0  0  0  0  0  0  0  0  0  0  0  0
   -2.2939   -0.6569   -6.3017 N   0  0  0  0  0  0  0  0  0  0  0  0
   -3.5086   -1.0800   -6.9861 C   0  0  0  0  0  0  0  0  0  0  0  0
   -1.7722    0.1337   -6.6685 H   0  0  0  0  0  0  0  0  0  0  0  0
   -3.5005   -2.1631   -7.1473 H   0  0  0  0  0  0  0  0  0  0  0  0
   -4.3915   -0.8169   -6.3942 H   0  0  0  0  0  0  0  0  0  0  0  0
   -3.5837   -0.5881   -7.9605 H   0  0  0  0  0  0  0  0  0  0  0  0
  1  2  2  0  0  0  0
  1  3  1  0  0  0  0
  1  7  1  0  0  0  0
  3  4  1  0  0  0  0
  3  5  1  0  0  0  0
  3  6  1  0  0  0  0
  7  8  1  0  0  0  0
  7 12  1  0  0  0  0
  8  9  1  0  0  0  0
  8 11  1  0  0  0  0
  8 13  1  0  0  0  0
  9 10  2  0  0  0  0
  9 17  1  0  0  0  0
 11 14  1  0  0  0  0
 11 15  1  0  0  0  0
 11 16  1  0  0  0  0
 17 18  1  0  0  0  0
 17 26  1  0  0  0  0
 18 19  1  0  0  0  0
 18 21  1  0  0  0  0
 18 27  1  0  0  0  0
 19 20  2  0  0  0  0
 19 32  1  0  0  0  0
 21 22  1  0  0  0  0
 21 28  1  0  0  0  0
 21 29  1  0  0  0  0
 22 23  1  0  0  0  0
 22 30  1  0  0  0  0
 22 31  1  0  0  0  0
 23 24  1  0  0  0  0
 23 25  2  0  0  0  0
 32 33  1  0  0  0  0
 32 37  1  0  0  0  0
 33 34  1  0  0  0  0
 33 36  1  0  0  0  0
 33 38  1  0  0  0  0
 34 35  2  0  0  0  0
 34 42  1  0  0  0  0
 36 39  1  0  0  0  0
 36 40  1  0  0  0  0
 36 41  1  0  0  0  0
 42 43  1  0  0  0  0
 42 44  1  0  0  0  0
 43 45  1  0  0  0  0
 43 46  1  0  0  0  0
 43 47  1  0  0  0  0
M  CHG  1  24  -1
M  END
$$$$

  -OEChem-05262216243D

 47 46  0     1  0  0  0  0  0999 V2000
    0.2390   -5.7297    1.6007 C   0  0  0  0  0  0  0  0  0  0  0  0
    1.2253   -5.7482    2.3201 O   0  0  0  0  0  0  0  0  0  0  0  0
   -0.8175   -6.8109    1.7346 C   0  0  0  0  0  0  0  0  0  0  0  0
   -0.9774   -7.2990    0.7701 H   0  0  0  0  0  0  0  0  0  0  0  0
   -0.4987   -7.5629    2.4619 H   0  0  0  0  0  0  0  0  0  0  0  0
   -1.7590   -6.3706    2.0719 H   0  0  0  0  0  0  0  0  0  0  0  0
    0.0735   -4.7304    0.6664 N   0  0  0  0  0  0  0  0  0  0  0  0
    0.9261   -3.5407    0.5463 C   0  0  2  0  0  0  0  0  0  0  0  0
    0.1532   -2.3781   -0.1122 C   0  0  0  0  0  0  0  0  0  0  0  0
   -0.9372   -2.5862   -0.6419 O   0  0  0  0  0  0  0  0  0  0  0  0
    2.1622   -3.8991   -0.2863 C   0  0  0  0  0  0  0  0  0  0  0  0
   -0.8141   -4.6982    0.1651 H   0  0  0  0  0  0  0  0  0  0  0  0
    1.2403   -3.2089    1.5422 H   0  0  0  0  0  0  0  0  0  0  0  0
    1.8661   -4.2235   -1.2890 H   0  0  0  0  0  0  0  0  0  0  0  0
    2.8259   -3.0345   -0.3813 H   0  0  0  0  0  0  0  0  0  0  0  0
    2.7219   -4.7088    0.1918 H   0  0  0  0  0  0  0  0  0  0  0  0
    0.6887   -1.1071   -0.1644 N   0  0  0  0  0  0  0  0  0  0  0  0
   -0.0932    0.0643   -0.5782 C   0  0  2  0  0  0  0  0  0  0  0  0
    0.0155    0.2636   -2.1038 C   0  0  0  0  0  0  0  0  0  0  0  0
    0.8909    0.9521   -2.6181 O   0  0  0  0  0  0  0  0  0  0  0  0
    0.4358    1.2791    0.2038 C   0  0  0  0  0  0  0  0  0  0  0  0
    0.1350    1.1551    1.7072 C   0  0  0  0  0  0  0  0  0  0  0  0
    0.6913    2.3580    2.4636 C   0  0  0  0  0  0  0  0  0  0  0  0
    1.8743    2.2754    2.8768 O   0  5  0  0  0  0  0  0  0  0  0  0
   -0.0507    3.3612    2.5993 O   0  0  0  0  0  0  0  0  0  0  0  0
    1.5354   -0.9340    0.3728 H   0  0  0  0  0  0  0  0  0  0  0  0
   -1.1514   -0.0628   -0.3259 H   0  0  0  0  0  0  0  0  0  0  0  0
   -0.0385    2.1915   -0.1753 H   0  0  0  0  0  0  0  0  0  0  0  0
    1.5160    1.3843    0.0506 H   0  0  0  0  0  0  0  0  0  0  0  0
   -0.9456    1.0945    1.8675 H   0  0  0  0  0  0  0  0  0  0  0  0
    0.5828    0.2448    2.1156 H   0  0  0  0  0  0  0  0  0  0  0  0
   -0.9086   -0.3580   -2.9214 N   0  0  0  0  0  0  0  0  0  0  0  0
   -0.8829   -0.3126   -4.3879 C   0  0  2  0  0  0  0  0  0  0  0  0
   -2.2796   -0.4939   -5.0166 C   0  0  0  0  0  0  0  0  0  0  0  0
   -3.1244   -1.2073   -4.4875 O   0  0  0  0  0  0  0  0  0  0  0  0
    0.0669   -1.4035   -4.8924 C   0  0  0  0  0  0  0  0  0  0  0  0
   -1.5291   -1.0345   -2.4716 H   0  0  0  0  0  0  0  0  0  0  0  0
   -0.5072    0.6642   -4.7094 H   0  0  0  0  0  0  0  0  0  0  0  0
   -0.2822   -2.3909   -4.5734 H   0  0  0  0  0  0  0  0  0  0  0  0
    0.1208   -1.3879   -5.9850 H   0  0  0  0  0  0  0  0  0  0  0  0
    1.0741   -1.2442   -4.4947 H   0  0  0  0  0  0  0  0  0  0  0  0
   -2.5761    0.1233   -6.2189 N   0  0  0  0  0  0  0  0  0  0  0  0
   -3.8796    0.0355   -6.8633 C   0  0  0  0  0  0  0  0  0  0  0  0
   -1.8798    0.7578   -6.5990 H   0  0  0  0  0  0  0  0  0  0  0  0
   -4.1425   -1.0099   -7.0555 H   0  0  0  0  0  0  0  0  0  0  0  0
   -4.6509    0.4828   -6.2278 H   0  0  0  0  0  0  0  0  0  0  0  0
   -3.8645    0.5683   -7.8187 H   0  0  0  0  0  0  0  0  0  0  0  0
  1  2  2  0  0  0  0
  1  3  1  0  0  0  0
  1  7  1  0  0  0  0
  3  4  1  0  0  0  0
  3  5  1  0  0  0  0
  3  6  1  0  0  0  0
  7  8  1  0  0  0  0
  7 12  1  0  0  0  0
  8  9  1  0  0  0  0
  8 11  1  0  0  0  0
  8 13  1  0  0  0  0
  9 10  2  0  0  0  0
  9 17  1  0  0  0  0
 11 14  1  0  0  0  0
 11 15  1  0  0  0  0
 11 16  1  0  0  0  0
 17 18  1  0  0  0  0
 17 26  1  0  0  0  0
 18 19  1  0  0  0  0
 18 21  1  0  0  0  0
 18 27  1  0  0  0  0
 19 20  2  0  0  0  0
 19 32  1  0  0  0  0
 21 22  1  0  0  0  0
 21 28  1  0  0  0  0
 21 29  1  0  0  0  0
 22 23  1  0  0  0  0
 22 30  1  0  0  0  0
 22 31  1  0  0  0  0
 23 24  1  0  0  0  0
 23 25  2  0  0  0  0
 32 33  1  0  0  0  0
 32 37  1  0  0  0  0
 33 34  1  0  0  0  0
 33 36  1  0  0  0  0
 33 38  1  0  0  0  0
 34 35  2  0  0  0  0
 34 42  1  0  0  0  0
 36 39  1  0  0  0  0
 36 40  1  0  0  0  0
 36 41  1  0  0  0  0
 42 43  1  0  0  0  0
 42 44  1  0  0  0  0
 43 45  1  0  0  0  0
 43 46  1  0  0  0  0
 43 47  1  0  0  0  0
M  CHG  1  24  -1
M  END
$$$$

  -OEChem-05262216243D

 47 46  0     1  0  0  0  0  0999 V2000
    0.2819   -5.7505    1.5976 C   0  0  0  0  0  0  0  0  0  0  0  0
    1.3207   -5.7883    2.2379 O   0  0  0  0  0  0  0  0  0  0  0  0
   -0.7876   -6.8033    1.8264 C   0  0  0  0  0  0  0  0  0  0  0  0
   -0.9798   -7.3479    0.8988 H   0  0  0  0  0  0  0  0  0  0  0  0
   -0.4618   -7.5136    2.5916 H   0  0  0  0  0  0  0  0  0  0  0  0
   -1.7131   -6.3273    2.1600 H   0  0  0  0  0  0  0  0  0  0  0  0
    0.0692   -4.7551    0.6686 N   0  0  0  0  0  0  0  0  0  0  0  0
    0.9278   -3.5769    0.4899 C   0  0  2  0  0  0  0  0  0  0  0  0
    0.1221   -2.3969   -0.0948 C   0  0  0  0  0  0  0  0  0  0  0  0
   -1.0029   -2.5890   -0.5520 O   0  0  0  0  0  0  0  0  0  0  0  0
    2.0890   -3.9427   -0.4409 C   0  0  0  0  0  0  0  0  0  0  0  0
   -0.8560   -4.7010    0.2430 H   0  0  0  0  0  0  0  0  0  0  0  0
    1.3257   -3.2590    1.4600 H   0  0  0  0  0  0  0  0  0  0  0  0
    1.7101   -4.2573   -1.4184 H   0  0  0  0  0  0  0  0  0  0  0  0
    2.7518   -3.0838   -0.5839 H   0  0  0  0  0  0  0  0  0  0  0  0
    2.6764   -4.7612   -0.0138 H   0  0  0  0  0  0  0  0  0  0  0  0
    0.6589   -1.1264   -0.1393 N   0  0  0  0  0  0  0  0  0  0  0  0
   -0.1028    0.0597   -0.5491 C   0  0  2  0  0  0  0  0  0  0  0  0
    0.0111    0.2834   -2.0706 C   0  0  0  0  0  0  0  0  0  0  0  0
    1.0406    0.7105   -2.5838 O   0  0  0  0  0  0  0  0  0  0  0  0
    0.4295    1.2696    0.2363 C   0  0  0  0  0  0  0  0  0  0  0  0
    0.1167    1.1476    1.7372 C   0  0  0  0  0  0  0  0  0  0  0  0
    0.6748    2.3451    2.5016 C   0  0  0  0  0  0  0  0  0  0  0  0
    1.7808    2.1960    3.0773 O   0  5  0  0  0  0  0  0  0  0  0  0
    0.0161    3.4136    2.4735 O   0  0  0  0  0  0  0  0  0  0  0  0
    1.5602   -0.9754    0.3070 H   0  0  0  0  0  0  0  0  0  0  0  0
   -1.1623   -0.0606   -0.3001 H   0  0  0  0  0  0  0  0  0  0  0  0
   -0.0336    2.1860   -0.1464 H   0  0  0  0  0  0  0  0  0  0  0  0
    1.5118    1.3644    0.0921 H   0  0  0  0  0  0  0  0  0  0  0  0
   -0.9653    1.0957    1.8902 H   0  0  0  0  0  0  0  0  0  0  0  0
    0.5542    0.2322    2.1454 H   0  0  0  0  0  0  0  0  0  0  0  0
   -1.0585   -0.0274   -2.8883 N   0  0  0  0  0  0  0  0  0  0  0  0
   -1.0569    0.1018   -4.3500 C   0  0  2  0  0  0  0  0  0  0  0  0
   -2.4736    0.2995   -4.9284 C   0  0  0  0  0  0  0  0  0  0  0  0
   -3.4585   -0.1442   -4.3482 O   0  0  0  0  0  0  0  0  0  0  0  0
   -0.4132   -1.1529   -4.9488 C   0  0  0  0  0  0  0  0  0  0  0  0
   -1.8670   -0.4670   -2.4482 H   0  0  0  0  0  0  0  0  0  0  0  0
   -0.4648    0.9789   -4.6315 H   0  0  0  0  0  0  0  0  0  0  0  0
   -0.9828   -2.0449   -4.6684 H   0  0  0  0  0  0  0  0  0  0  0  0
   -0.3839   -1.0845   -6.0402 H   0  0  0  0  0  0  0  0  0  0  0  0
    0.6123   -1.2657   -4.5830 H   0  0  0  0  0  0  0  0  0  0  0  0
   -2.6430    0.9625   -6.1314 N   0  0  0  0  0  0  0  0  0  0  0  0
   -3.9487    1.2256   -6.7229 C   0  0  0  0  0  0  0  0  0  0  0  0
   -1.8164    1.3678   -6.5608 H   0  0  0  0  0  0  0  0  0  0  0  0
   -4.4815    0.2869   -6.9079 H   0  0  0  0  0  0  0  0  0  0  0  0
   -4.5528    1.8485   -6.0550 H   0  0  0  0  0  0  0  0  0  0  0  0
   -3.8333    1.7505   -7.6760 H   0  0  0  0  0  0  0  0  0  0  0  0
  1  2  2  0  0  0  0
  1  3  1  0  0  0  0
  1  7  1  0  0  0  0
  3  4  1  0  0  0  0
  3  5  1  0  0  0  0
  3  6  1  0  0  0  0
  7  8  1  0  0  0  0
  7 12  1  0  0  0  0
  8  9  1  0  0  0  0
  8 11  1  0  0  0  0
  8 13  1  0  0  0  0
  9 10  2  0  0  0  0
  9 17  1  0  0  0  0
 11 14  1  0  0  0  0
 11 15  1  0  0  0  0
 11 16  1  0  0  0  0
 17 18  1  0  0  0  0
 17 26  1  0  0  0  0
 18 19  1  0  0  0  0
 18 21  1  0  0  0  0
 18 27  1  0  0  0  0
 19 20  2  0  0  0  0
 19 32  1  0  0  0  0
 21 22  1  0  0  0  0
 21 28  1  0  0  0  0
 21 29  1  0  0  0  0
 22 23  1  0  0  0  0
 22 30  1  0  0  0  0
 22 31  1  0  0  0  0
 23 24  1  0  0  0  0
 23 25  2  0  0  0  0
 32 33  1  0  0  0  0
 32 37  1  0  0  0  0
 33 34  1  0  0  0  0
 33 36  1  0  0  0  0
 33 38  1  0  0  0  0
 34 35  2  0  0  0  0
 34 42  1  0  0  0  0
 36 39  1  0  0  0  0
 36 40  1  0  0  0  0
 36 41  1  0  0  0  0
 42 43  1  0  0  0  0
 42 44  1  0  0  0  0
 43 45  1  0  0  0  0
 43 46  1  0  0  0  0
 43 47  1  0  0  0  0
M  CHG  1  24  -1
M  END
$$$$

  -OEChem-05262216243D

 47 46  0     1  0  0  0  0  0999 V2000
    0.3213   -5.7990    1.5644 C   0  0  0  0  0  0  0  0  0  0  0  0
    1.3916   -5.8510    2.1497 O   0  0  0  0  0  0  0  0  0  0  0  0
   -0.7277   -6.8681    1.8085 C   0  0  0  0  0  0  0  0  0  0  0  0
   -0.9698   -7.3738    0.8706 H   0  0  0  0  0  0  0  0  0  0  0  0
   -0.3547   -7.6079    2.5224 H   0  0  0  0  0  0  0  0  0  0  0  0
   -1.6349   -6.4134    2.2143 H   0  0  0  0  0  0  0  0  0  0  0  0
    0.0547   -4.7756    0.6811 N   0  0  0  0  0  0  0  0  0  0  0  0
    0.9005   -3.5909    0.4870 C   0  0  2  0  0  0  0  0  0  0  0  0
    0.0649   -2.3999   -0.0293 C   0  0  0  0  0  0  0  0  0  0  0  0
   -1.0880   -2.5822   -0.4147 O   0  0  0  0  0  0  0  0  0  0  0  0
    2.0147   -3.9327   -0.5086 C   0  0  0  0  0  0  0  0  0  0  0  0
   -0.8919   -4.7137    0.3064 H   0  0  0  0  0  0  0  0  0  0  0  0
    1.3448   -3.2934    1.4432 H   0  0  0  0  0  0  0  0  0  0  0  0
    1.5887   -4.2278   -1.4728 H   0  0  0  0  0  0  0  0  0  0  0  0
    2.6677   -3.0689   -0.6663 H   0  0  0  0  0  0  0  0  0  0  0  0
    2.6244   -4.7582   -0.1285 H   0  0  0  0  0  0  0  0  0  0  0  0
    0.6072   -1.1325   -0.0864 N   0  0  0  0  0  0  0  0  0  0  0  0
   -0.1334    0.0589   -0.5187 C   0  0  2  0  0  0  0  0  0  0  0  0
   -0.0029    0.2706   -2.0402 C   0  0  0  0  0  0  0  0  0  0  0  0
    1.0956    0.4130   -2.5691 O   0  0  0  0  0  0  0  0  0  0  0  0
    0.4095    1.2784    0.2417 C   0  0  0  0  0  0  0  0  0  0  0  0
    0.0922    1.1972    1.7439 C   0  0  0  0  0  0  0  0  0  0  0  0
    0.6643    2.4082    2.4768 C   0  0  0  0  0  0  0  0  0  0  0  0
    1.7340    2.2469    3.1140 O   0  5  0  0  0  0  0  0  0  0  0  0
    0.0584    3.5011    2.3540 O   0  0  0  0  0  0  0  0  0  0  0  0
    1.5578   -1.0036    0.2503 H   0  0  0  0  0  0  0  0  0  0  0  0
   -1.1958   -0.0470   -0.2756 H   0  0  0  0  0  0  0  0  0  0  0  0
   -0.0425    2.1909   -0.1632 H   0  0  0  0  0  0  0  0  0  0  0  0
    1.4930    1.3572    0.0982 H   0  0  0  0  0  0  0  0  0  0  0  0
   -0.9902    1.1620    1.8974 H   0  0  0  0  0  0  0  0  0  0  0  0
    0.5182    0.2863    2.1746 H   0  0  0  0  0  0  0  0  0  0  0  0
   -1.1297    0.2747   -2.8398 N   0  0  0  0  0  0  0  0  0  0  0  0
   -1.1226    0.4772   -4.2926 C   0  0  2  0  0  0  0  0  0  0  0  0
   -2.4500    1.0734   -4.8044 C   0  0  0  0  0  0  0  0  0  0  0  0
   -3.4966    0.8901   -4.1922 O   0  0  0  0  0  0  0  0  0  0  0  0
   -0.8504   -0.8694   -4.9701 C   0  0  0  0  0  0  0  0  0  0  0  0
   -2.0305    0.1301   -2.3852 H   0  0  0  0  0  0  0  0  0  0  0  0
   -0.3250    1.1799   -4.5553 H   0  0  0  0  0  0  0  0  0  0  0  0
   -1.6272   -1.5939   -4.7050 H   0  0  0  0  0  0  0  0  0  0  0  0
   -0.8346   -0.7556   -6.0581 H   0  0  0  0  0  0  0  0  0  0  0  0
    0.1186   -1.2658   -4.6504 H   0  0  0  0  0  0  0  0  0  0  0  0
   -2.4727    1.8111   -5.9747 N   0  0  0  0  0  0  0  0  0  0  0  0
   -3.6738    2.4576   -6.4872 C   0  0  0  0  0  0  0  0  0  0  0  0
   -1.5813    1.9999   -6.4237 H   0  0  0  0  0  0  0  0  0  0  0  0
   -4.4609    1.7175   -6.6657 H   0  0  0  0  0  0  0  0  0  0  0  0
   -4.0431    3.2000   -5.7719 H   0  0  0  0  0  0  0  0  0  0  0  0
   -3.4562    2.9647   -7.4320 H   0  0  0  0  0  0  0  0  0  0  0  0
  1  2  2  0  0  0  0
  1  3  1  0  0  0  0
  1  7  1  0  0  0  0
  3  4  1  0  0  0  0
  3  5  1  0  0  0  0
  3  6  1  0  0  0  0
  7  8  1  0  0  0  0
  7 12  1  0  0  0  0
  8  9  1  0  0  0  0
  8 11  1  0  0  0  0
  8 13  1  0  0  0  0
  9 10  2  0  0  0  0
  9 17  1  0  0  0  0
 11 14  1  0  0  0  0
 11 15  1  0  0  0  0
 11 16  1  0  0  0  0
 17 18  1  0  0  0  0
 17 26  1  0  0  0  0
 18 19  1  0  0  0  0
 18 21  1  0  0  0  0
 18 27  1  0  0  0  0
 19 20  2  0  0  0  0
 19 32  1  0  0  0  0
 21 22  1  0  0  0  0
 21 28  1  0  0  0  0
 21 29  1  0  0  0  0
 22 23  1  0  0  0  0
 22 30  1  0  0  0  0
 22 31  1  0  0  0  0
 23 24  1  0  0  0  0
 23 25  2  0  0  0  0
 32 33  1  0  0  0  0
 32 37  1  0  0  0  0
 33 34  1  0  0  0  0
 33 36  1  0  0  0  0
 33 38  1  0  0  0  0
 34 35  2  0  0  0  0
 34 42  1  0  0  0  0
 36 39  1  0  0  0  0
 36 40  1  0  0  0  0
 36 41  1  0  0  0  0
 42 43  1  0  0  0  0
 42 44  1  0  0  0  0
 43 45  1  0  0  0  0
 43 46  1  0  0  0  0
 43 47  1  0  0  0  0
M  CHG  1  24  -1
M  END
$$$$

  -OEChem-05262216243D

 47 46  0     1  0  0  0  0  0999 V2000
    0.3488   -5.8348    1.5011 C   0  0  0  0  0  0  0  0  0  0  0  0
    1.4452   -5.9046    2.0342 O   0  0  0  0  0  0  0  0  0  0  0  0
   -0.6993   -6.8970    1.7778 C   0  0  0  0  0  0  0  0  0  0  0  0
   -0.9964   -7.3799    0.8438 H   0  0  0  0  0  0  0  0  0  0  0  0
   -0.2990   -7.6556    2.4562 H   0  0  0  0  0  0  0  0  0  0  0  0
   -1.5784   -6.4398    2.2391 H   0  0  0  0  0  0  0  0  0  0  0  0
    0.0477   -4.7928    0.6519 N   0  0  0  0  0  0  0  0  0  0  0  0
    0.8816   -3.5993    0.4617 C   0  0  2  0  0  0  0  0  0  0  0  0
    0.0169   -2.3915    0.0413 C   0  0  0  0  0  0  0  0  0  0  0  0
   -1.1609   -2.5619   -0.2669 O   0  0  0  0  0  0  0  0  0  0  0  0
    1.9395   -3.8993   -0.6055 C   0  0  0  0  0  0  0  0  0  0  0  0
   -0.9172   -4.7155    0.3304 H   0  0  0  0  0  0  0  0  0  0  0  0
    1.3773   -3.3398    1.4038 H   0  0  0  0  0  0  0  0  0  0  0  0
    1.4612   -4.1477   -1.5581 H   0  0  0  0  0  0  0  0  0  0  0  0
    2.5889   -3.0320   -0.7578 H   0  0  0  0  0  0  0  0  0  0  0  0
    2.5624   -4.7442   -0.2964 H   0  0  0  0  0  0  0  0  0  0  0  0
    0.5633   -1.1265   -0.0245 N   0  0  0  0  0  0  0  0  0  0  0  0
   -0.1671    0.0646   -0.4762 C   0  0  2  0  0  0  0  0  0  0  0  0
   -0.0244    0.2648   -1.9982 C   0  0  0  0  0  0  0  0  0  0  0  0
    1.0641    0.1379   -2.5523 O   0  0  0  0  0  0  0  0  0  0  0  0
    0.3828    1.2955    0.2599 C   0  0  0  0  0  0  0  0  0  0  0  0
    0.0699    1.2548    1.7642 C   0  0  0  0  0  0  0  0  0  0  0  0
    0.6543    2.4819    2.4606 C   0  0  0  0  0  0  0  0  0  0  0  0
    1.7184    2.3292    3.1094 O   0  5  0  0  0  0  0  0  0  0  0  0
    0.0673    3.5790    2.2905 O   0  0  0  0  0  0  0  0  0  0  0  0
    1.5532   -1.0246    0.1811 H   0  0  0  0  0  0  0  0  0  0  0  0
   -1.2312   -0.0327   -0.2382 H   0  0  0  0  0  0  0  0  0  0  0  0
   -0.0621    2.2025   -0.1646 H   0  0  0  0  0  0  0  0  0  0  0  0
    1.4668    1.3623    0.1132 H   0  0  0  0  0  0  0  0  0  0  0  0
   -1.0123    1.2321    1.9221 H   0  0  0  0  0  0  0  0  0  0  0  0
    0.4910    0.3523    2.2166 H   0  0  0  0  0  0  0  0  0  0  0  0
   -1.1288    0.5775   -2.7677 N   0  0  0  0  0  0  0  0  0  0  0  0
   -1.0924    0.8375   -4.2109 C   0  0  2  0  0  0  0  0  0  0  0  0
   -2.2374    1.7678   -4.6596 C   0  0  0  0  0  0  0  0  0  0  0  0
   -3.3001    1.7896   -4.0482 O   0  0  0  0  0  0  0  0  0  0  0  0
   -1.1763   -0.5012   -4.9501 C   0  0  0  0  0  0  0  0  0  0  0  0
   -2.0201    0.6987   -2.2882 H   0  0  0  0  0  0  0  0  0  0  0  0
   -0.1489    1.3313   -4.4657 H   0  0  0  0  0  0  0  0  0  0  0  0
   -2.1080   -1.0182   -4.6987 H   0  0  0  0  0  0  0  0  0  0  0  0
   -1.1440   -0.3439   -6.0322 H   0  0  0  0  0  0  0  0  0  0  0  0
   -0.3356   -1.1435   -4.6691 H   0  0  0  0  0  0  0  0  0  0  0  0
   -2.0769    2.5802   -5.7678 N   0  0  0  0  0  0  0  0  0  0  0  0
   -3.0799    3.5455   -6.1982 C   0  0  0  0  0  0  0  0  0  0  0  0
   -1.1602    2.5948   -6.2051 H   0  0  0  0  0  0  0  0  0  0  0  0
   -4.0231    3.0402   -6.4308 H   0  0  0  0  0  0  0  0  0  0  0  0
   -3.2606    4.2854   -5.4113 H   0  0  0  0  0  0  0  0  0  0  0  0
   -2.7389    4.0703   -7.0957 H   0  0  0  0  0  0  0  0  0  0  0  0
  1  2  2  0  0  0  0
  1  3  1  0  0  0  0
  1  7  1  0  0  0  0
  3  4  1  0  0  0  0
  3  5  1  0  0  0  0
  3  6  1  0  0  0  0
  7  8  1  0  0  0  0
  7 12  1  0  0  0  0
  8  9  1  0  0  0  0
  8 11  1  0  0  0  0
  8 13  1  0  0  0  0
  9 10  2  0  0  0  0
  9 17  1  0  0  0  0
 11 14  1  0  0  0  0
 11 15  1  0  0  0  0
 11 16  1  0  0  0  0
 17 18  1  0  0  0  0
 17 26  1  0  0  0  0
 18 19  1  0  0  0  0
 18 21  1  0  0  0  0
 18 27  1  0  0  0  0
 19 20  2  0  0  0  0
 19 32  1  0  0  0  0
 21 22  1  0  0  0  0
 21 28  1  0  0  0  0
 21 29  1  0  0  0  0
 22 23  1  0  0  0  0
 22 30  1  0  0  0  0
 22 31  1  0  0  0  0
 23 24  1  0  0  0  0
 23 25  2  0  0  0  0
 32 33  1  0  0  0  0
 32 37  1  0  0  0  0
 33 34  1  0  0  0  0
 33 36  1  0  0  0  0
 33 38  1  0  0  0  0
 34 35  2  0  0  0  0
 34 42  1  0  0  0  0
 36 39  1  0  0  0  0
 36 40  1  0  0  0  0
 36 41  1  0  0  0  0
 42 43  1  0  0  0  0
 42 44  1  0  0  0  0
 43 45  1  0  0  0  0
 43 46  1  0  0  0  0
 43 47  1  0  0  0  0
M  CHG  1  24  -1
M  END
$$$$

  -OEChem-05262216243D

 47 46  0     1  0  0  0  0  0999 V2000
    0.3570   -5.8406    1.4694 C   0  0  0  0  0  0  0  0  0  0  0  0
    1.4719   -5.9245    1.9605 O   0  0  0  0  0  0  0  0  0  0  0  0
   -0.6927   -6.8897    1.7871 C   0  0  0  0  0  0  0  0  0  0  0  0
   -1.0378   -7.3636    0.8650 H   0  0  0  0  0  0  0  0  0  0  0  0
   -0.2736   -7.6569    2.4442 H   0  0  0  0  0  0  0  0  0  0  0  0
   -1.5443   -6.4230    2.2888 H   0  0  0  0  0  0  0  0  0  0  0  0
    0.0354   -4.7928    0.6349 N   0  0  0  0  0  0  0  0  0  0  0  0
    0.8671   -3.6003    0.4285 C   0  0  2  0  0  0  0  0  0  0  0  0
   -0.0078   -2.3807    0.0675 C   0  0  0  0  0  0  0  0  0  0  0  0
   -1.1986   -2.5411   -0.1923 O   0  0  0  0  0  0  0  0  0  0  0  0
    1.8768   -3.8858   -0.6883 C   0  0  0  0  0  0  0  0  0  0  0  0
   -0.9407   -4.7046    0.3528 H   0  0  0  0  0  0  0  0  0  0  0  0
    1.4044   -3.3588    1.3521 H   0  0  0  0  0  0  0  0  0  0  0  0
    1.3574   -4.1100   -1.6254 H   0  0  0  0  0  0  0  0  0  0  0  0
    2.5266   -3.0199   -0.8498 H   0  0  0  0  0  0  0  0  0  0  0  0
    2.5045   -4.7421   -0.4231 H   0  0  0  0  0  0  0  0  0  0  0  0
    0.5431   -1.1170    0.0085 N   0  0  0  0  0  0  0  0  0  0  0  0
   -0.1831    0.0750   -0.4497 C   0  0  2  0  0  0  0  0  0  0  0  0
   -0.0297    0.2820   -1.9706 C   0  0  0  0  0  0  0  0  0  0  0  0
    0.9916   -0.0687   -2.5564 O   0  0  0  0  0  0  0  0  0  0  0  0
    0.3703    1.3023    0.2897 C   0  0  0  0  0  0  0  0  0  0  0  0
    0.0525    1.2643    1.7921 C   0  0  0  0  0  0  0  0  0  0  0  0
    0.6440    2.4903    2.4826 C   0  0  0  0  0  0  0  0  0  0  0  0
    1.7870    2.3740    2.9893 O   0  5  0  0  0  0  0  0  0  0  0  0
   -0.0182    3.5561    2.4393 O   0  0  0  0  0  0  0  0  0  0  0  0
    1.5481   -1.0357    0.1337 H   0  0  0  0  0  0  0  0  0  0  0  0
   -1.2493   -0.0187   -0.2200 H   0  0  0  0  0  0  0  0  0  0  0  0
   -0.0691    2.2127   -0.1333 H   0  0  0  0  0  0  0  0  0  0  0  0
    1.4548    1.3638    0.1466 H   0  0  0  0  0  0  0  0  0  0  0  0
   -1.0301    1.2459    1.9471 H   0  0  0  0  0  0  0  0  0  0  0  0
    0.4692    0.3616    2.2481 H   0  0  0  0  0  0  0  0  0  0  0  0
   -1.0358    0.8898   -2.6974 N   0  0  0  0  0  0  0  0  0  0  0  0
   -0.9516    1.2129   -4.1261 C   0  0  2  0  0  0  0  0  0  0  0  0
   -1.8574    2.4027   -4.5024 C   0  0  0  0  0  0  0  0  0  0  0  0
   -2.8915    2.6177   -3.8799 O   0  0  0  0  0  0  0  0  0  0  0  0
   -1.3466   -0.0272   -4.9337 C   0  0  0  0  0  0  0  0  0  0  0  0
   -1.8534    1.2212   -2.1864 H   0  0  0  0  0  0  0  0  0  0  0  0
    0.0780    1.4922   -4.3732 H   0  0  0  0  0  0  0  0  0  0  0  0
   -2.3709   -0.3288   -4.6923 H   0  0  0  0  0  0  0  0  0  0  0  0
   -1.2863    0.1789   -6.0065 H   0  0  0  0  0  0  0  0  0  0  0  0
   -0.6755   -0.8608   -4.7035 H   0  0  0  0  0  0  0  0  0  0  0  0
   -1.5151    3.2311   -5.5563 N   0  0  0  0  0  0  0  0  0  0  0  0
   -2.2741    4.4240   -5.9098 C   0  0  0  0  0  0  0  0  0  0  0  0
   -0.6165    3.0702   -6.0017 H   0  0  0  0  0  0  0  0  0  0  0  0
   -3.3060    4.1607   -6.1642 H   0  0  0  0  0  0  0  0  0  0  0  0
   -2.2866    5.1313   -5.0739 H   0  0  0  0  0  0  0  0  0  0  0  0
   -1.8205    4.9172   -6.7746 H   0  0  0  0  0  0  0  0  0  0  0  0
  1  2  2  0  0  0  0
  1  3  1  0  0  0  0
  1  7  1  0  0  0  0
  3  4  1  0  0  0  0
  3  5  1  0  0  0  0
  3  6  1  0  0  0  0
  7  8  1  0  0  0  0
  7 12  1  0  0  0  0
  8  9  1  0  0  0  0
  8 11  1  0  0  0  0
  8 13  1  0  0  0  0
  9 10  2  0  0  0  0
  9 17  1  0  0  0  0
 11 14  1  0  0  0  0
 11 15  1  0  0  0  0
 11 16  1  0  0  0  0
 17 18  1  0  0  0  0
 17 26  1  0  0  0  0
 18 19  1  0  0  0  0
 18 21  1  0  0  0  0
 18 27  1  0  0  0  0
 19 20  2  0  0  0  0
 19 32  1  0  0  0  0
 21 22  1  0  0  0  0
 21 28  1  0  0  0  0
 21 29  1  0  0  0  0
 22 23  1  0  0  0  0
 22 30  1  0  0  0  0
 22 31  1  0  0  0  0
 23 24  1  0  0  0  0
 23 25  2  0  0  0  0
 32 33  1  0  0  0  0
 32 37  1  0  0  0  0
 33 34  1  0  0  0  0
 33 36  1  0  0  0  0
 33 38  1  0  0  0  0
 34 35  2  0  0  0  0
 34 42  1  0  0  0  0
 36 39  1  0  0  0  0
 36 40  1  0  0  0  0
 36 41  1  0  0  0  0
 42 43  1  0  0  0  0
 42 44  1  0  0  0  0
 43 45  1  0  0  0  0
 43 46  1  0  0  0  0
 43 47  1  0  0  0  0
M  CHG  1  24  -1
M  END
$$$$

  -OEChem-05262216243D

 47 46  0     1  0  0  0  0  0999 V2000
    0.3593   -5.8357    1.4618 C   0  0  0  0  0  0  0  0  0  0  0  0
    1.4884   -5.9218    1.9192 O   0  0  0  0  0  0  0  0  0  0  0  0
   -0.6759   -6.8947    1.7946 C   0  0  0  0  0  0  0  0  0  0  0  0
   -1.0514   -7.3516    0.8759 H   0  0  0  0  0  0  0  0  0  0  0  0
   -0.2317   -7.6739    2.4201 H   0  0  0  0  0  0  0  0  0  0  0  0
   -1.5108   -6.4418    2.3351 H   0  0  0  0  0  0  0  0  0  0  0  0
    0.0120   -4.7798    0.6476 N   0  0  0  0  0  0  0  0  0  0  0  0
    0.8443   -3.5926    0.4142 C   0  0  2  0  0  0  0  0  0  0  0  0
   -0.0313   -2.3653    0.0825 C   0  0  0  0  0  0  0  0  0  0  0  0
   -1.2295   -2.5155   -0.1480 O   0  0  0  0  0  0  0  0  0  0  0  0
    1.8150   -3.8832   -0.7358 C   0  0  0  0  0  0  0  0  0  0  0  0
   -0.9718   -4.6874    0.3949 H   0  0  0  0  0  0  0  0  0  0  0  0
    1.4133   -3.3569    1.3201 H   0  0  0  0  0  0  0  0  0  0  0  0
    1.2634   -4.1039   -1.6551 H   0  0  0  0  0  0  0  0  0  0  0  0
    2.4633   -3.0207   -0.9190 H   0  0  0  0  0  0  0  0  0  0  0  0
    2.4474   -4.7426   -0.4923 H   0  0  0  0  0  0  0  0  0  0  0  0
    0.5285   -1.1052    0.0284 N   0  0  0  0  0  0  0  0  0  0  0  0
   -0.1889    0.0900   -0.4378 C   0  0  2  0  0  0  0  0  0  0  0  0
   -0.0278    0.3058   -1.9589 C   0  0  0  0  0  0  0  0  0  0  0  0
    0.8754   -0.2423   -2.5864 O   0  0  0  0  0  0  0  0  0  0  0  0
    0.3720    1.3072    0.3157 C   0  0  0  0  0  0  0  0  0  0  0  0
    0.0396    1.2615    1.8150 C   0  0  0  0  0  0  0  0  0  0  0  0
    0.6387    2.4759    2.5191 C   0  0  0  0  0  0  0  0  0  0  0  0
    1.8336    2.3910    2.8962 O   0  5  0  0  0  0  0  0  0  0  0  0
   -0.0745    3.5043    2.6166 O   0  0  0  0  0  0  0  0  0  0  0  0
    1.5381   -1.0405    0.1191 H   0  0  0  0  0  0  0  0  0  0  0  0
   -1.2575    0.0023   -0.2170 H   0  0  0  0  0  0  0  0  0  0  0  0
   -0.0504    2.2278   -0.1023 H   0  0  0  0  0  0  0  0  0  0  0  0
    1.4589    1.3558    0.1839 H   0  0  0  0  0  0  0  0  0  0  0  0
   -1.0450    1.2530    1.9586 H   0  0  0  0  0  0  0  0  0  0  0  0
    0.4435    0.3526    2.2700 H   0  0  0  0  0  0  0  0  0  0  0  0
   -0.8633    1.1778   -2.6329 N   0  0  0  0  0  0  0  0  0  0  0  0
   -0.7111    1.5542   -4.0437 C   0  0  2  0  0  0  0  0  0  0  0  0
   -1.3283    2.9358   -4.3424 C   0  0  0  0  0  0  0  0  0  0  0  0
   -2.2827    3.3434   -3.6902 O   0  0  0  0  0  0  0  0  0  0  0  0
   -1.3730    0.4820   -4.9156 C   0  0  0  0  0  0  0  0  0  0  0  0
   -1.5618    1.6806   -2.0853 H   0  0  0  0  0  0  0  0  0  0  0  0
    0.3546    1.6099   -4.2885 H   0  0  0  0  0  0  0  0  0  0  0  0
   -2.4385    0.4004   -4.6773 H   0  0  0  0  0  0  0  0  0  0  0  0
   -1.2698    0.7328   -5.9756 H   0  0  0  0  0  0  0  0  0  0  0  0
   -0.9027   -0.4916   -4.7443 H   0  0  0  0  0  0  0  0  0  0  0  0
   -0.8158    3.7237   -5.3578 N   0  0  0  0  0  0  0  0  0  0  0  0
   -1.2885    5.0754   -5.6310 C   0  0  0  0  0  0  0  0  0  0  0  0
    0.0231    3.3928   -5.8250 H   0  0  0  0  0  0  0  0  0  0  0  0
   -2.3547    5.0664   -5.8810 H   0  0  0  0  0  0  0  0  0  0  0  0
   -1.1369    5.7179   -4.7570 H   0  0  0  0  0  0  0  0  0  0  0  0
   -0.7400    5.5041   -6.4753 H   0  0  0  0  0  0  0  0  0  0  0  0
  1  2  2  0  0  0  0
  1  3  1  0  0  0  0
  1  7  1  0  0  0  0
  3  4  1  0  0  0  0
  3  5  1  0  0  0  0
  3  6  1  0  0  0  0
  7  8  1  0  0  0  0
  7 12  1  0  0  0  0
  8  9  1  0  0  0  0
  8 11  1  0  0  0  0
  8 13  1  0  0  0  0
  9 10  2  0  0  0  0
  9 17  1  0  0  0  0
 11 14  1  0  0  0  0
 11 15  1  0  0  0  0
 11 16  1  0  0  0  0
 17 18  1  0  0  0  0
 17 26  1  0  0  0  0
 18 19  1  0  0  0  0
 18 21  1  0  0  0  0
 18 27  1  0  0  0  0
 19 20  2  0  0  0  0
 19 32  1  0  0  0  0
 21 22  1  0  0  0  0
 21 28  1  0  0  0  0
 21 29  1  0  0  0  0
 22 23  1  0  0  0  0
 22 30  1  0  0  0  0
 22 31  1  0  0  0  0
 23 24  1  0  0  0  0
 23 25  2  0  0  0  0
 32 33  1  0  0  0  0
 32 37  1  0  0  0  0
 33 34  1  0  0  0  0
 33 36  1  0  0  0  0
 33 38  1  0  0  0  0
 34 35  2  0  0  0  0
 34 42  1  0  0  0  0
 36 39  1  0  0  0  0
 36 40  1  0  0  0  0
 36 41  1  0  0  0  0
 42 43  1  0  0  0  0
 42 44  1  0  0  0  0
 43 45  1  0  0  0  0
 43 46  1  0  0  0  0
 43 47  1  0  0  0  0
M  CHG  1  24  -1
M  END
$$$$

  -OEChem-05262216243D

 47 46  0     1  0  0  0  0  0999 V2000
    0.3511   -5.8354    1.3514 C   0  0  0  0  0  0  0  0  0  0  0  0
    1.5093   -5.9746    1.7130 O   0  0  0  0  0  0  0  0  0  0  0  0
   -0.6853   -6.8856    1.7068 C   0  0  0  0  0  0  0  0  0  0  0  0
   -1.1625   -7.2611    0.7985 H   0  0  0  0  0  0  0  0  0  0  0  0
   -0.2120   -7.7221    2.2278 H   0  0  0  0  0  0  0  0  0  0  0  0
   -1.4479   -6.4502    2.3572 H   0  0  0  0  0  0  0  0  0  0  0  0
   -0.0286   -4.7282    0.6254 N   0  0  0  0  0  0  0  0  0  0  0  0
    0.8198   -3.5568    0.3711 C   0  0  2  0  0  0  0  0  0  0  0  0
   -0.0398   -2.2897    0.1752 C   0  0  0  0  0  0  0  0  0  0  0  0
   -1.2616   -2.3900    0.0779 O   0  0  0  0  0  0  0  0  0  0  0  0
    1.6708   -3.8206   -0.8757 C   0  0  0  0  0  0  0  0  0  0  0  0
   -1.0258   -4.5982    0.4551 H   0  0  0  0  0  0  0  0  0  0  0  0
    1.4767   -3.3817    1.2300 H   0  0  0  0  0  0  0  0  0  0  0  0
    1.0303   -3.9720   -1.7505 H   0  0  0  0  0  0  0  0  0  0  0  0
    2.3333   -2.9727   -1.0744 H   0  0  0  0  0  0  0  0  0  0  0  0
    2.2874   -4.7136   -0.7341 H   0  0  0  0  0  0  0  0  0  0  0  0
    0.5531   -1.0436    0.1233 N   0  0  0  0  0  0  0  0  0  0  0  0
   -0.1556    0.1532   -0.3529 C   0  0  2  0  0  0  0  0  0  0  0  0
   -0.3139    0.1749   -1.8937 C   0  0  0  0  0  0  0  0  0  0  0  0
    0.2346   -0.6644   -2.6047 O   0  0  0  0  0  0  0  0  0  0  0  0
    0.6530    1.3776    0.1118 C   0  0  0  0  0  0  0  0  0  0  0  0
    0.6370    1.5320    1.6405 C   0  0  0  0  0  0  0  0  0  0  0  0
    1.4711    2.7421    2.0516 C   0  0  0  0  0  0  0  0  0  0  0  0
    2.7172    2.5918    2.0940 O   0  5  0  0  0  0  0  0  0  0  0  0
    0.8696    3.8233    2.2613 O   0  0  0  0  0  0  0  0  0  0  0  0
    1.5682   -1.0180    0.1186 H   0  0  0  0  0  0  0  0  0  0  0  0
   -1.1558    0.1980    0.0901 H   0  0  0  0  0  0  0  0  0  0  0  0
    0.2329    2.2903   -0.3242 H   0  0  0  0  0  0  0  0  0  0  0  0
    1.6881    1.2943   -0.2387 H   0  0  0  0  0  0  0  0  0  0  0  0
   -0.3909    1.6577    1.9929 H   0  0  0  0  0  0  0  0  0  0  0  0
    1.0480    0.6402    2.1222 H   0  0  0  0  0  0  0  0  0  0  0  0
   -0.9601    1.2280   -2.5163 N   0  0  0  0  0  0  0  0  0  0  0  0
   -1.0343    1.4224   -3.9696 C   0  0  2  0  0  0  0  0  0  0  0  0
   -1.2751    2.8996   -4.3410 C   0  0  0  0  0  0  0  0  0  0  0  0
   -1.9239    3.6278   -3.5988 O   0  0  0  0  0  0  0  0  0  0  0  0
   -2.1634    0.5519   -4.5317 C   0  0  0  0  0  0  0  0  0  0  0  0
   -1.3429    1.9646   -1.9235 H   0  0  0  0  0  0  0  0  0  0  0  0
   -0.0851    1.1178   -4.4223 H   0  0  0  0  0  0  0  0  0  0  0  0
   -3.1214    0.8303   -4.0807 H   0  0  0  0  0  0  0  0  0  0  0  0
   -2.2383    0.6769   -5.6160 H   0  0  0  0  0  0  0  0  0  0  0  0
   -1.9731   -0.5047   -4.3188 H   0  0  0  0  0  0  0  0  0  0  0  0
   -0.7810    3.4104   -5.5282 N   0  0  0  0  0  0  0  0  0  0  0  0
   -0.9213    4.8092   -5.9130 C   0  0  0  0  0  0  0  0  0  0  0  0
   -0.1936    2.8014   -6.0898 H   0  0  0  0  0  0  0  0  0  0  0  0
   -1.9785    5.0707   -6.0268 H   0  0  0  0  0  0  0  0  0  0  0  0
   -0.4760    5.4620   -5.1548 H   0  0  0  0  0  0  0  0  0  0  0  0
   -0.4156    4.9913   -6.8659 H   0  0  0  0  0  0  0  0  0  0  0  0
  1  2  2  0  0  0  0
  1  3  1  0  0  0  0
  1  7  1  0  0  0  0
  3  4  1  0  0  0  0
  3  5  1  0  0  0  0
  3  6  1  0  0  0  0
  7  8  1  0  0  0  0
  7 12  1  0  0  0  0
  8  9  1  0  0  0  0
  8 11  1  0  0  0  0
  8 13  1  0  0  0  0
  9 10  2  0  0  0  0
  9 17  1  0  0  0  0
 11 14  1  0  0  0  0
 11 15  1  0  0  0  0
 11 16  1  0  0  0  0
 17 18  1  0  0  0  0
 17 26  1  0  0  0  0
 18 19  1  0  0  0  0
 18 21  1  0  0  0  0
 18 27  1  0  0  0  0
 19 20  2  0  0  0  0
 19 32  1  0  0  0  0
 21 22  1  0  0  0  0
 21 28  1  0  0  0  0
 21 29  1  0  0  0  0
 22 23  1  0  0  0  0
 22 30  1  0  0  0  0
 22 31  1  0  0  0  0
 23 24  1  0  0  0  0
 23 25  2  0  0  0  0
 32 33  1  0  0  0  0
 32 37  1  0  0  0  0
 33 34  1  0  0  0  0
 33 36  1  0  0  0  0
 33 38  1  0  0  0  0
 34 35  2  0  0  0  0
 34 42  1  0  0  0  0
 36 39  1  0  0  0  0
 36 40  1  0  0  0  0
 36 41  1  0  0  0  0
 42 43  1  0  0  0  0
 42 44  1  0  0  0  0
 43 45  1  0  0  0  0
 43 46  1  0  0  0  0
 43 47  1  0  0  0  0
M  CHG  1  24  -1
M  END
$$$$

  -OEChem-05262216243D

 47 46  0     1  0  0  0  0  0999 V2000
    0.3523   -5.8242    1.3100 C   0  0  0  0  0  0  0  0  0  0  0  0
    1.5155   -5.9693    1.6534 O   0  0  0  0  0  0  0  0  0  0  0  0
   -0.6807   -6.8746    1.6749 C   0  0  0  0  0  0  0  0  0  0  0  0
   -1.1962   -7.2200    0.7755 H   0  0  0  0  0  0  0  0  0  0  0  0
   -0.1962   -7.7301    2.1538 H   0  0  0  0  0  0  0  0  0  0  0  0
   -1.4139   -6.4505    2.3656 H   0  0  0  0  0  0  0  0  0  0  0  0
   -0.0355   -4.7088    0.6008 N   0  0  0  0  0  0  0  0  0  0  0  0
    0.8114   -3.5358    0.3505 C   0  0  2  0  0  0  0  0  0  0  0  0
   -0.0468   -2.2645    0.1770 C   0  0  0  0  0  0  0  0  0  0  0  0
   -1.2701   -2.3605    0.0963 O   0  0  0  0  0  0  0  0  0  0  0  0
    1.6479   -3.7861   -0.9085 C   0  0  0  0  0  0  0  0  0  0  0  0
   -1.0345   -4.5746    0.4447 H   0  0  0  0  0  0  0  0  0  0  0  0
    1.4775   -3.3721    1.2044 H   0  0  0  0  0  0  0  0  0  0  0  0
    0.9965   -3.9218   -1.7779 H   0  0  0  0  0  0  0  0  0  0  0  0
    2.3123   -2.9388   -1.1029 H   0  0  0  0  0  0  0  0  0  0  0  0
    2.2618   -4.6836   -0.7865 H   0  0  0  0  0  0  0  0  0  0  0  0
    0.5500   -1.0189    0.1426 N   0  0  0  0  0  0  0  0  0  0  0  0
   -0.1487    0.1854   -0.3323 C   0  0  2  0  0  0  0  0  0  0  0  0
   -0.2876    0.2227   -1.8783 C   0  0  0  0  0  0  0  0  0  0  0  0
    0.0559   -0.7307   -2.5735 O   0  0  0  0  0  0  0  0  0  0  0  0
    0.6614    1.3939    0.1757 C   0  0  0  0  0  0  0  0  0  0  0  0
    0.6128    1.5170    1.7073 C   0  0  0  0  0  0  0  0  0  0  0  0
    1.4476    2.7097    2.1653 C   0  0  0  0  0  0  0  0  0  0  0  0
    2.6968    2.5866    2.1131 O   0  5  0  0  0  0  0  0  0  0  0  0
    0.8413    3.7501    2.5180 O   0  0  0  0  0  0  0  0  0  0  0  0
    1.5651   -0.9966    0.1525 H   0  0  0  0  0  0  0  0  0  0  0  0
   -1.1564    0.2288    0.0939 H   0  0  0  0  0  0  0  0  0  0  0  0
    0.2596    2.3219   -0.2440 H   0  0  0  0  0  0  0  0  0  0  0  0
    1.7024    1.3087   -0.1559 H   0  0  0  0  0  0  0  0  0  0  0  0
   -0.4224    1.6422    2.0390 H   0  0  0  0  0  0  0  0  0  0  0  0
    1.0084    0.6132    2.1789 H   0  0  0  0  0  0  0  0  0  0  0  0
   -0.6336    1.3921   -2.5338 N   0  0  0  0  0  0  0  0  0  0  0  0
   -0.6288    1.5695   -3.9919 C   0  0  2  0  0  0  0  0  0  0  0  0
   -0.4969    3.0525   -4.3939 C   0  0  0  0  0  0  0  0  0  0  0  0
   -0.9246    3.9361   -3.6606 O   0  0  0  0  0  0  0  0  0  0  0  0
   -1.9226    0.9863   -4.5699 C   0  0  0  0  0  0  0  0  0  0  0  0
   -0.8314    2.2138   -1.9622 H   0  0  0  0  0  0  0  0  0  0  0  0
    0.2280    1.0363   -4.4163 H   0  0  0  0  0  0  0  0  0  0  0  0
   -2.7929    1.5035   -4.1537 H   0  0  0  0  0  0  0  0  0  0  0  0
   -1.9388    1.0951   -5.6584 H   0  0  0  0  0  0  0  0  0  0  0  0
   -2.0023   -0.0784   -4.3296 H   0  0  0  0  0  0  0  0  0  0  0  0
    0.0864    3.3975   -5.6002 N   0  0  0  0  0  0  0  0  0  0  0  0
    0.2889    4.7779   -6.0224 C   0  0  0  0  0  0  0  0  0  0  0  0
    0.4788    2.6476   -6.1613 H   0  0  0  0  0  0  0  0  0  0  0  0
   -0.6733    5.2889   -6.1341 H   0  0  0  0  0  0  0  0  0  0  0  0
    0.8926    5.3196   -5.2863 H   0  0  0  0  0  0  0  0  0  0  0  0
    0.8098    4.8061   -6.9843 H   0  0  0  0  0  0  0  0  0  0  0  0
  1  2  2  0  0  0  0
  1  3  1  0  0  0  0
  1  7  1  0  0  0  0
  3  4  1  0  0  0  0
  3  5  1  0  0  0  0
  3  6  1  0  0  0  0
  7  8  1  0  0  0  0
  7 12  1  0  0  0  0
  8  9  1  0  0  0  0
  8 11  1  0  0  0  0
  8 13  1  0  0  0  0
  9 10  2  0  0  0  0
  9 17  1  0  0  0  0
 11 14  1  0  0  0  0
 11 15  1  0  0  0  0
 11 16  1  0  0  0  0
 17 18  1  0  0  0  0
 17 26  1  0  0  0  0
 18 19  1  0  0  0  0
 18 21  1  0  0  0  0
 18 27  1  0  0  0  0
 19 20  2  0  0  0  0
 19 32  1  0  0  0  0
 21 22  1  0  0  0  0
 21 28  1  0  0  0  0
 21 29  1  0  0  0  0
 22 23  1  0  0  0  0
 22 30  1  0  0  0  0
 22 31  1  0  0  0  0
 23 24  1  0  0  0  0
 23 25  2  0  0  0  0
 32 33  1  0  0  0  0
 32 37  1  0  0  0  0
 33 34  1  0  0  0  0
 33 36  1  0  0  0  0
 33 38  1  0  0  0  0
 34 35  2  0  0  0  0
 34 42  1  0  0  0  0
 36 39  1  0  0  0  0
 36 40  1  0  0  0  0
 36 41  1  0  0  0  0
 42 43  1  0  0  0  0
 42 44  1  0  0  0  0
 43 45  1  0  0  0  0
 43 46  1  0  0  0  0
 43 47  1  0  0  0  0
M  CHG  1  24  -1
M  END
$$$$

  -OEChem-05262216243D

 47 46  0     1  0  0  0  0  0999 V2000
    0.3634   -5.8171    1.2553 C   0  0  0  0  0  0  0  0  0  0  0  0
    1.5296   -5.9729    1.5835 O   0  0  0  0  0  0  0  0  0  0  0  0
   -0.6698   -6.8717    1.6072 C   0  0  0  0  0  0  0  0  0  0  0  0
   -1.1959   -7.1944    0.7055 H   0  0  0  0  0  0  0  0  0  0  0  0
   -0.1845   -7.7397    2.0619 H   0  0  0  0  0  0  0  0  0  0  0  0
   -1.3932   -6.4610    2.3157 H   0  0  0  0  0  0  0  0  0  0  0  0
   -0.0267   -4.6870    0.5710 N   0  0  0  0  0  0  0  0  0  0  0  0
    0.8227   -3.5142    0.3289 C   0  0  2  0  0  0  0  0  0  0  0  0
   -0.0333   -2.2369    0.1885 C   0  0  0  0  0  0  0  0  0  0  0  0
   -1.2577   -2.3296    0.1245 O   0  0  0  0  0  0  0  0  0  0  0  0
    1.6387   -3.7498   -0.9464 C   0  0  0  0  0  0  0  0  0  0  0  0
   -1.0265   -4.5465    0.4250 H   0  0  0  0  0  0  0  0  0  0  0  0
    1.5015   -3.3681    1.1760 H   0  0  0  0  0  0  0  0  0  0  0  0
    0.9732   -3.8801   -1.8057 H   0  0  0  0  0  0  0  0  0  0  0  0
    2.2971   -2.8990   -1.1445 H   0  0  0  0  0  0  0  0  0  0  0  0
    2.2569   -4.6465   -0.8430 H   0  0  0  0  0  0  0  0  0  0  0  0
    0.5657   -0.9911    0.1783 N   0  0  0  0  0  0  0  0  0  0  0  0
   -0.1176    0.2184   -0.3086 C   0  0  2  0  0  0  0  0  0  0  0  0
   -0.2110    0.2648   -1.8605 C   0  0  0  0  0  0  0  0  0  0  0  0
   -0.1124   -0.7567   -2.5352 O   0  0  0  0  0  0  0  0  0  0  0  0
    0.6593    1.4233    0.2591 C   0  0  0  0  0  0  0  0  0  0  0  0
    0.5362    1.5184    1.7882 C   0  0  0  0  0  0  0  0  0  0  0  0
    1.3411    2.7087    2.3024 C   0  0  0  0  0  0  0  0  0  0  0  0
    2.5884    2.5718    2.3603 O   0  5  0  0  0  0  0  0  0  0  0  0
    0.7194    3.7631    2.5787 O   0  0  0  0  0  0  0  0  0  0  0  0
    1.5802   -0.9728    0.2099 H   0  0  0  0  0  0  0  0  0  0  0  0
   -1.1410    0.2524    0.0795 H   0  0  0  0  0  0  0  0  0  0  0  0
    0.2666    2.3568   -0.1564 H   0  0  0  0  0  0  0  0  0  0  0  0
    1.7156    1.3537   -0.0247 H   0  0  0  0  0  0  0  0  0  0  0  0
   -0.5140    1.6335    2.0727 H   0  0  0  0  0  0  0  0  0  0  0  0
    0.9126    0.6082    2.2634 H   0  0  0  0  0  0  0  0  0  0  0  0
   -0.2290    1.4663   -2.5496 N   0  0  0  0  0  0  0  0  0  0  0  0
   -0.1856    1.5992   -4.0123 C   0  0  2  0  0  0  0  0  0  0  0  0
    0.3388    2.9797   -4.4574 C   0  0  0  0  0  0  0  0  0  0  0  0
    0.2304    3.9533   -3.7220 O   0  0  0  0  0  0  0  0  0  0  0  0
   -1.5946    1.3734   -4.5708 C   0  0  0  0  0  0  0  0  0  0  0  0
   -0.2095    2.3265   -2.0013 H   0  0  0  0  0  0  0  0  0  0  0  0
    0.4913    0.8434   -4.4237 H   0  0  0  0  0  0  0  0  0  0  0  0
   -2.2892    2.1155   -4.1643 H   0  0  0  0  0  0  0  0  0  0  0  0
   -1.5923    1.4577   -5.6615 H   0  0  0  0  0  0  0  0  0  0  0  0
   -1.9555    0.3753   -4.3034 H   0  0  0  0  0  0  0  0  0  0  0  0
    0.9186    3.1366   -5.7040 N   0  0  0  0  0  0  0  0  0  0  0  0
    1.4706    4.4016   -6.1727 C   0  0  0  0  0  0  0  0  0  0  0  0
    1.0326    2.3053   -6.2759 H   0  0  0  0  0  0  0  0  0  0  0  0
    0.6923    5.1713   -6.2016 H   0  0  0  0  0  0  0  0  0  0  0  0
    2.2744    4.7379   -5.5090 H   0  0  0  0  0  0  0  0  0  0  0  0
    1.8797    4.2860   -7.1809 H   0  0  0  0  0  0  0  0  0  0  0  0
  1  2  2  0  0  0  0
  1  3  1  0  0  0  0
  1  7  1  0  0  0  0
  3  4  1  0  0  0  0
  3  5  1  0  0  0  0
  3  6  1  0  0  0  0
  7  8  1  0  0  0  0
  7 12  1  0  0  0  0
  8  9  1  0  0  0  0
  8 11  1  0  0  0  0
  8 13  1  0  0  0  0
  9 10  2  0  0  0  0
  9 17  1  0  0  0  0
 11 14  1  0  0  0  0
 11 15  1  0  0  0  0
 11 16  1  0  0  0  0
 17 18  1  0  0  0  0
 17 26  1  0  0  0  0
 18 19  1  0  0  0  0
 18 21  1  0  0  0  0
 18 27  1  0  0  0  0
 19 20  2  0  0  0  0
 19 32  1  0  0  0  0
 21 22  1  0  0  0  0
 21 28  1  0  0  0  0
 21 29  1  0  0  0  0
 22 23  1  0  0  0  0
 22 30  1  0  0  0  0
 22 31  1  0  0  0  0
 23 24  1  0  0  0  0
 23 25  2  0  0  0  0
 32 33  1  0  0  0  0
 32 37  1  0  0  0  0
 33 34  1  0  0  0  0
 33 36  1  0  0  0  0
 33 38  1  0  0  0  0
 34 35  2  0  0  0  0
 34 42  1  0  0  0  0
 36 39  1  0  0  0  0
 36 40  1  0  0  0  0
 36 41  1  0  0  0  0
 42 43  1  0  0  0  0
 42 44  1  0  0  0  0
 43 45  1  0  0  0  0
 43 46  1  0  0  0  0
 43 47  1  0  0  0  0
M  CHG  1  24  -1
M  END
$$$$

  -OEChem-05262216243D

 47 46  0     1  0  0  0  0  0999 V2000
    0.3921   -5.8204    1.2186 C   0  0  0  0  0  0  0  0  0  0  0  0
    1.5567   -5.9827    1.5491 O   0  0  0  0  0  0  0  0  0  0  0  0
   -0.6457   -6.8749    1.5565 C   0  0  0  0  0  0  0  0  0  0  0  0
   -1.1738   -7.1823    0.6506 H   0  0  0  0  0  0  0  0  0  0  0  0
   -0.1639   -7.7514    1.9987 H   0  0  0  0  0  0  0  0  0  0  0  0
   -1.3678   -6.4702    2.2703 H   0  0  0  0  0  0  0  0  0  0  0  0
    0.0061   -4.6813    0.5476 N   0  0  0  0  0  0  0  0  0  0  0  0
    0.8525   -3.5015    0.3324 C   0  0  2  0  0  0  0  0  0  0  0  0
   -0.0104   -2.2298    0.1840 C   0  0  0  0  0  0  0  0  0  0  0  0
   -1.2327   -2.3328    0.1059 O   0  0  0  0  0  0  0  0  0  0  0  0
    1.6954   -3.7197   -0.9287 C   0  0  0  0  0  0  0  0  0  0  0  0
   -0.9931   -4.5400    0.3976 H   0  0  0  0  0  0  0  0  0  0  0  0
    1.5133   -3.3582    1.1941 H   0  0  0  0  0  0  0  0  0  0  0  0
    1.0481   -3.8432   -1.8034 H   0  0  0  0  0  0  0  0  0  0  0  0
    2.3542   -2.8637   -1.1029 H   0  0  0  0  0  0  0  0  0  0  0  0
    2.3154   -4.6153   -0.8226 H   0  0  0  0  0  0  0  0  0  0  0  0
    0.5792   -0.9791    0.1954 N   0  0  0  0  0  0  0  0  0  0  0  0
   -0.0930    0.2297   -0.3088 C   0  0  2  0  0  0  0  0  0  0  0  0
   -0.1341    0.2788   -1.8626 C   0  0  0  0  0  0  0  0  0  0  0  0
   -0.3105   -0.7377   -2.5267 O   0  0  0  0  0  0  0  0  0  0  0  0
    0.6291    1.4462    0.3042 C   0  0  0  0  0  0  0  0  0  0  0  0
    0.4263    1.5253    1.8254 C   0  0  0  0  0  0  0  0  0  0  0  0
    1.1773    2.7272    2.3903 C   0  0  0  0  0  0  0  0  0  0  0  0
    2.3508    2.5360    2.7942 O   0  5  0  0  0  0  0  0  0  0  0  0
    0.6047    3.8431    2.3438 O   0  0  0  0  0  0  0  0  0  0  0  0
    1.5908   -0.9526    0.2754 H   0  0  0  0  0  0  0  0  0  0  0  0
   -1.1326    0.2460    0.0350 H   0  0  0  0  0  0  0  0  0  0  0  0
    0.2337    2.3728   -0.1259 H   0  0  0  0  0  0  0  0  0  0  0  0
    1.6998    1.4021    0.0757 H   0  0  0  0  0  0  0  0  0  0  0  0
   -0.6386    1.6197    2.0579 H   0  0  0  0  0  0  0  0  0  0  0  0
    0.7937    0.6165    2.3106 H   0  0  0  0  0  0  0  0  0  0  0  0
    0.1707    1.4326   -2.5657 N   0  0  0  0  0  0  0  0  0  0  0  0
    0.2375    1.5317   -4.0307 C   0  0  2  0  0  0  0  0  0  0  0  0
    1.1656    2.6689   -4.5050 C   0  0  0  0  0  0  0  0  0  0  0  0
    1.4955    3.5667   -3.7399 O   0  0  0  0  0  0  0  0  0  0  0  0
   -1.1816    1.7512   -4.5653 C   0  0  0  0  0  0  0  0  0  0  0  0
    0.4356    2.2585   -2.0279 H   0  0  0  0  0  0  0  0  0  0  0  0
    0.6377    0.5986   -4.4406 H   0  0  0  0  0  0  0  0  0  0  0  0
   -1.5979    2.6825   -4.1680 H   0  0  0  0  0  0  0  0  0  0  0  0
   -1.1778    1.8082   -5.6577 H   0  0  0  0  0  0  0  0  0  0  0  0
   -1.8323    0.9233   -4.2665 H   0  0  0  0  0  0  0  0  0  0  0  0
    1.6324    2.6870   -5.8079 N   0  0  0  0  0  0  0  0  0  0  0  0
    2.5381    3.7084   -6.3182 C   0  0  0  0  0  0  0  0  0  0  0  0
    1.3706    1.9127   -6.4105 H   0  0  0  0  0  0  0  0  0  0  0  0
    2.1013    4.7052   -6.1956 H   0  0  0  0  0  0  0  0  0  0  0  0
    3.4929    3.6736   -5.7835 H   0  0  0  0  0  0  0  0  0  0  0  0
    2.7304    3.5457   -7.3828 H   0  0  0  0  0  0  0  0  0  0  0  0
  1  2  2  0  0  0  0
  1  3  1  0  0  0  0
  1  7  1  0  0  0  0
  3  4  1  0  0  0  0
  3  5  1  0  0  0  0
  3  6  1  0  0  0  0
  7  8  1  0  0  0  0
  7 12  1  0  0  0  0
  8  9  1  0  0  0  0
  8 11  1  0  0  0  0
  8 13  1  0  0  0  0
  9 10  2  0  0  0  0
  9 17  1  0  0  0  0
 11 14  1  0  0  0  0
 11 15  1  0  0  0  0
 11 16  1  0  0  0  0
 17 18  1  0  0  0  0
 17 26  1  0  0  0  0
 18 19  1  0  0  0  0
 18 21  1  0  0  0  0
 18 27  1  0  0  0  0
 19 20  2  0  0  0  0
 19 32  1  0  0  0  0
 21 22  1  0  0  0  0
 21 28  1  0  0  0  0
 21 29  1  0  0  0  0
 22 23  1  0  0  0  0
 22 30  1  0  0  0  0
 22 31  1  0  0  0  0
 23 24  1  0  0  0  0
 23 25  2  0  0  0  0
 32 33  1  0  0  0  0
 32 37  1  0  0  0  0
 33 34  1  0  0  0  0
 33 36  1  0  0  0  0
 33 38  1  0  0  0  0
 34 35  2  0  0  0  0
 34 42  1  0  0  0  0
 36 39  1  0  0  0  0
 36 40  1  0  0  0  0
 36 41  1  0  0  0  0
 42 43  1  0  0  0  0
 42 44  1  0  0  0  0
 43 45  1  0  0  0  0
 43 46  1  0  0  0  0
 43 47  1  0  0  0  0
M  CHG  1  24  -1
M  END
$$$$

  -OEChem-05262216243D

 47 46  0     1  0  0  0  0  0999 V2000
    0.3869   -5.7953    1.3484 C   0  0  0  0  0  0  0  0  0  0  0  0
    1.5280   -5.9115    1.7685 O   0  0  0  0  0  0  0  0  0  0  0  0
   -0.6574   -6.8411    1.6935 C   0  0  0  0  0  0  0  0  0  0  0  0
   -1.0596   -7.2828    0.7786 H   0  0  0  0  0  0  0  0  0  0  0  0
   -0.2130   -7.6337    2.3020 H   0  0  0  0  0  0  0  0  0  0  0  0
   -1.4732   -6.3802    2.2560 H   0  0  0  0  0  0  0  0  0  0  0  0
    0.0338   -4.7148    0.5705 N   0  0  0  0  0  0  0  0  0  0  0  0
    0.8732   -3.5307    0.3523 C   0  0  2  0  0  0  0  0  0  0  0  0
    0.0017   -2.2827    0.0940 C   0  0  0  0  0  0  0  0  0  0  0  0
   -1.2098   -2.4124   -0.0581 O   0  0  0  0  0  0  0  0  0  0  0  0
    1.7984   -3.7923   -0.8407 C   0  0  0  0  0  0  0  0  0  0  0  0
   -0.9563   -4.5970    0.3535 H   0  0  0  0  0  0  0  0  0  0  0  0
    1.4764   -3.3343    1.2453 H   0  0  0  0  0  0  0  0  0  0  0  0
    1.2108   -3.9818   -1.7449 H   0  0  0  0  0  0  0  0  0  0  0  0
    2.4461   -2.9291   -1.0214 H   0  0  0  0  0  0  0  0  0  0  0  0
    2.4324   -4.6629   -0.6466 H   0  0  0  0  0  0  0  0  0  0  0  0
    0.5700   -1.0232    0.1181 N   0  0  0  0  0  0  0  0  0  0  0  0
   -0.0884    0.1901   -0.3915 C   0  0  2  0  0  0  0  0  0  0  0  0
   -0.0965    0.2589   -1.9432 C   0  0  0  0  0  0  0  0  0  0  0  0
   -0.5741   -0.6443   -2.6198 O   0  0  0  0  0  0  0  0  0  0  0  0
    0.6099    1.4024    0.2535 C   0  0  0  0  0  0  0  0  0  0  0  0
    0.3608    1.4657    1.7685 C   0  0  0  0  0  0  0  0  0  0  0  0
    1.0894    2.6644    2.3681 C   0  0  0  0  0  0  0  0  0  0  0  0
    2.2135    2.4556    2.8864 O   0  5  0  0  0  0  0  0  0  0  0  0
    0.5583    3.7936    2.2312 O   0  0  0  0  0  0  0  0  0  0  0  0
    1.5654   -0.9719    0.3118 H   0  0  0  0  0  0  0  0  0  0  0  0
   -1.1366    0.1986   -0.0737 H   0  0  0  0  0  0  0  0  0  0  0  0
    0.2239    2.3288   -0.1861 H   0  0  0  0  0  0  0  0  0  0  0  0
    1.6879    1.3633    0.0601 H   0  0  0  0  0  0  0  0  0  0  0  0
   -0.7106    1.5549    1.9707 H   0  0  0  0  0  0  0  0  0  0  0  0
    0.7159    0.5527    2.2548 H   0  0  0  0  0  0  0  0  0  0  0  0
    0.5094    1.3007   -2.6262 N   0  0  0  0  0  0  0  0  0  0  0  0
    0.6151    1.3980   -4.0890 C   0  0  2  0  0  0  0  0  0  0  0  0
    1.8734    2.1670   -4.5453 C   0  0  0  0  0  0  0  0  0  0  0  0
    2.5774    2.7575   -3.7350 O   0  0  0  0  0  0  0  0  0  0  0  0
   -0.6515    2.0841   -4.6119 C   0  0  0  0  0  0  0  0  0  0  0  0
    1.0226    1.9879   -2.0736 H   0  0  0  0  0  0  0  0  0  0  0  0
    0.6843    0.3935   -4.5193 H   0  0  0  0  0  0  0  0  0  0  0  0
   -0.7323    3.0963   -4.2029 H   0  0  0  0  0  0  0  0  0  0  0  0
   -0.6341    2.1480   -5.7038 H   0  0  0  0  0  0  0  0  0  0  0  0
   -1.5396    1.5169   -4.3156 H   0  0  0  0  0  0  0  0  0  0  0  0
    2.2218    2.1954   -5.8844 N   0  0  0  0  0  0  0  0  0  0  0  0
    3.3739    2.9252   -6.3979 C   0  0  0  0  0  0  0  0  0  0  0  0
    1.6144    1.7078   -6.5358 H   0  0  0  0  0  0  0  0  0  0  0  0
    3.2730    3.9953   -6.1879 H   0  0  0  0  0  0  0  0  0  0  0  0
    4.2967    2.5597   -5.9354 H   0  0  0  0  0  0  0  0  0  0  0  0
    3.4536    2.7909   -7.4807 H   0  0  0  0  0  0  0  0  0  0  0  0
  1  2  2  0  0  0  0
  1  3  1  0  0  0  0
  1  7  1  0  0  0  0
  3  4  1  0  0  0  0
  3  5  1  0  0  0  0
  3  6  1  0  0  0  0
  7  8  1  0  0  0  0
  7 12  1  0  0  0  0
  8  9  1  0  0  0  0
  8 11  1  0  0  0  0
  8 13  1  0  0  0  0
  9 10  2  0  0  0  0
  9 17  1  0  0  0  0
 11 14  1  0  0  0  0
 11 15  1  0  0  0  0
 11 16  1  0  0  0  0
 17 18  1  0  0  0  0
 17 26  1  0  0  0  0
 18 19  1  0  0  0  0
 18 21  1  0  0  0  0
 18 27  1  0  0  0  0
 19 20  2  0  0  0  0
 19 32  1  0  0  0  0
 21 22  1  0  0  0  0
 21 28  1  0  0  0  0
 21 29  1  0  0  0  0
 22 23  1  0  0  0  0
 22 30  1  0  0  0  0
 22 31  1  0  0  0  0
 23 24  1  0  0  0  0
 23 25  2  0  0  0  0
 32 33  1  0  0  0  0
 32 37  1  0  0  0  0
 33 34  1  0  0  0  0
 33 36  1  0  0  0  0
 33 38  1  0  0  0  0
 34 35  2  0  0  0  0
 34 42  1  0  0  0  0
 36 39  1  0  0  0  0
 36 40  1  0  0  0  0
 36 41  1  0  0  0  0
 42 43  1  0  0  0  0
 42 44  1  0  0  0  0
 43 45  1  0  0  0  0
 43 46  1  0  0  0  0
 43 47  1  0  0  0  0
M  CHG  1  24  -1
M  END
$$$$

  -OEChem-05262216243D

 47 46  0     1  0  0  0  0  0999 V2000
    1.1464   -5.5763    0.4364 C   0  0  0  0  0  0  0  0  0  0  0  0
    2.2356   -5.5457    0.9883 O   0  0  0  0  0  0  0  0  0  0  0  0
    0.3403   -6.8622    0.4181 C   0  0  0  0  0  0  0  0  0  0  0  0
    0.1026   -7.1389   -0.6120 H   0  0  0  0  0  0  0  0  0  0  0  0
    0.9120   -7.6731    0.8779 H   0  0  0  0  0  0  0  0  0  0  0  0
   -0.5901   -6.7258    0.9750 H   0  0  0  0  0  0  0  0  0  0  0  0
    0.6401   -4.4482   -0.1714 N   0  0  0  0  0  0  0  0  0  0  0  0
    1.2342   -3.1084   -0.0857 C   0  0  2  0  0  0  0  0  0  0  0  0
    0.1624   -2.0153   -0.2840 C   0  0  0  0  0  0  0  0  0  0  0  0
   -0.9720   -2.3340   -0.6248 O   0  0  0  0  0  0  0  0  0  0  0  0
    2.3213   -2.9823   -1.1596 C   0  0  0  0  0  0  0  0  0  0  0  0
   -0.3206   -4.4883   -0.5132 H   0  0  0  0  0  0  0  0  0  0  0  0
    1.6782   -2.9642    0.9052 H   0  0  0  0  0  0  0  0  0  0  0  0
    1.8874   -3.1140   -2.1559 H   0  0  0  0  0  0  0  0  0  0  0  0
    2.7973   -1.9981   -1.1143 H   0  0  0  0  0  0  0  0  0  0  0  0
    3.0934   -3.7436   -1.0117 H   0  0  0  0  0  0  0  0  0  0  0  0
    0.4795   -0.6868   -0.0714 N   0  0  0  0  0  0  0  0  0  0  0  0
   -0.3365    0.4430   -0.5431 C   0  0  2  0  0  0  0  0  0  0  0  0
   -0.1813    0.6689   -2.0689 C   0  0  0  0  0  0  0  0  0  0  0  0
   -0.5979   -0.1459   -2.8836 O   0  0  0  0  0  0  0  0  0  0  0  0
    0.0769    1.6947    0.2504 C   0  0  0  0  0  0  0  0  0  0  0  0
   -0.2902    1.6098    1.7431 C   0  0  0  0  0  0  0  0  0  0  0  0
    0.1491    2.8526    2.5270 C   0  0  0  0  0  0  0  0  0  0  0  0
   -0.1072    2.8679    3.7541 O   0  5  0  0  0  0  0  0  0  0  0  0
    0.7510    3.7696    1.9100 O   0  0  0  0  0  0  0  0  0  0  0  0
    1.4214   -0.4865    0.2507 H   0  0  0  0  0  0  0  0  0  0  0  0
   -1.3961    0.2439   -0.3479 H   0  0  0  0  0  0  0  0  0  0  0  0
   -0.4285    2.5718   -0.1697 H   0  0  0  0  0  0  0  0  0  0  0  0
    1.1573    1.8523    0.1560 H   0  0  0  0  0  0  0  0  0  0  0  0
   -1.3734    1.4958    1.8454 H   0  0  0  0  0  0  0  0  0  0  0  0
    0.1830    0.7341    2.1956 H   0  0  0  0  0  0  0  0  0  0  0  0
    0.5705    1.7233   -2.5618 N   0  0  0  0  0  0  0  0  0  0  0  0
    0.8552    1.9587   -3.9864 C   0  0  2  0  0  0  0  0  0  0  0  0
    1.9620    1.0264   -4.5446 C   0  0  0  0  0  0  0  0  0  0  0  0
    2.9275    1.4639   -5.1617 O   0  0  0  0  0  0  0  0  0  0  0  0
    1.2004    3.4453   -4.1313 C   0  0  0  0  0  0  0  0  0  0  0  0
    0.9561    2.3706   -1.8771 H   0  0  0  0  0  0  0  0  0  0  0  0
   -0.0507    1.7667   -4.5708 H   0  0  0  0  0  0  0  0  0  0  0  0
    2.1186    3.6814   -3.5841 H   0  0  0  0  0  0  0  0  0  0  0  0
    1.3493    3.7001   -5.1851 H   0  0  0  0  0  0  0  0  0  0  0  0
    0.3888    4.0654   -3.7381 H   0  0  0  0  0  0  0  0  0  0  0  0
    1.8538   -0.3385   -4.3604 N   0  0  0  0  0  0  0  0  0  0  0  0
    2.8087   -1.3152   -4.8610 C   0  0  0  0  0  0  0  0  0  0  0  0
    1.0003   -0.6587   -3.8924 H   0  0  0  0  0  0  0  0  0  0  0  0
    2.8519   -1.2815   -5.9542 H   0  0  0  0  0  0  0  0  0  0  0  0
    3.8070   -1.1136   -4.4595 H   0  0  0  0  0  0  0  0  0  0  0  0
    2.5105   -2.3224   -4.5558 H   0  0  0  0  0  0  0  0  0  0  0  0
  1  2  2  0  0  0  0
  1  3  1  0  0  0  0
  1  7  1  0  0  0  0
  3  4  1  0  0  0  0
  3  5  1  0  0  0  0
  3  6  1  0  0  0  0
  7  8  1  0  0  0  0
  7 12  1  0  0  0  0
  8  9  1  0  0  0  0
  8 11  1  0  0  0  0
  8 13  1  0  0  0  0
  9 10  2  0  0  0  0
  9 17  1  0  0  0  0
 11 14  1  0  0  0  0
 11 15  1  0  0  0  0
 11 16  1  0  0  0  0
 17 18  1  0  0  0  0
 17 26  1  0  0  0  0
 18 19  1  0  0  0  0
 18 21  1  0  0  0  0
 18 27  1  0  0  0  0
 19 20  2  0  0  0  0
 19 32  1  0  0  0  0
 21 22  1  0  0  0  0
 21 28  1  0  0  0  0
 21 29  1  0  0  0  0
 22 23  1  0  0  0  0
 22 30  1  0  0  0  0
 22 31  1  0  0  0  0
 23 24  1  0  0  0  0
 23 25  2  0  0  0  0
 32 33  1  0  0  0  0
 32 37  1  0  0  0  0
 33 34  1  0  0  0  0
 33 36  1  0  0  0  0
 33 38  1  0  0  0  0
 34 35  2  0  0  0  0
 34 42  1  0  0  0  0
 36 39  1  0  0  0  0
 36 40  1  0  0  0  0
 36 41  1  0  0  0  0
 42 43  1  0  0  0  0
 42 44  1  0  0  0  0
 43 45  1  0  0  0  0
 43 46  1  0  0  0  0
 43 47  1  0  0  0  0
M  CHG  1  24  -1
M  END
$$$$

  -OEChem-05262216243D

 47 46  0     1  0  0  0  0  0999 V2000
    0.2957   -5.7625    1.4823 C   0  0  0  0  0  0  0  0  0  0  0  0
    1.2668   -5.7744    2.2226 O   0  0  0  0  0  0  0  0  0  0  0  0
   -0.7406   -6.8675    1.5743 C   0  0  0  0  0  0  0  0  0  0  0  0
   -0.8120   -7.3927    0.6188 H   0  0  0  0  0  0  0  0  0  0  0  0
   -0.4610   -7.5844    2.3515 H   0  0  0  0  0  0  0  0  0  0  0  0
   -1.7164   -6.4425    1.8219 H   0  0  0  0  0  0  0  0  0  0  0  0
    0.1292   -4.7499    0.5633 N   0  0  0  0  0  0  0  0  0  0  0  0
    0.9339   -3.5226    0.5159 C   0  0  2  0  0  0  0  0  0  0  0  0
    0.1122   -2.3492   -0.0610 C   0  0  0  0  0  0  0  0  0  0  0  0
   -1.0012   -2.5659   -0.5259 O   0  0  0  0  0  0  0  0  0  0  0  0
    2.1772   -3.7808   -0.3414 C   0  0  0  0  0  0  0  0  0  0  0  0
   -0.7612   -4.7128    0.0664 H   0  0  0  0  0  0  0  0  0  0  0  0
    1.2419   -3.2426    1.5292 H   0  0  0  0  0  0  0  0  0  0  0  0
    1.8876   -4.0426   -1.3642 H   0  0  0  0  0  0  0  0  0  0  0  0
    2.8132   -2.8909   -0.3759 H   0  0  0  0  0  0  0  0  0  0  0  0
    2.7625   -4.6049    0.0782 H   0  0  0  0  0  0  0  0  0  0  0  0
    0.6134   -1.0627   -0.0166 N   0  0  0  0  0  0  0  0  0  0  0  0
   -0.0773    0.1343   -0.5204 C   0  0  2  0  0  0  0  0  0  0  0  0
   -0.0641    0.2350   -2.0651 C   0  0  0  0  0  0  0  0  0  0  0  0
   -1.0045   -0.1682   -2.7384 O   0  0  0  0  0  0  0  0  0  0  0  0
    0.5878    1.3602    0.1301 C   0  0  0  0  0  0  0  0  0  0  0  0
    0.3387    1.4130    1.6449 C   0  0  0  0  0  0  0  0  0  0  0  0
    1.0396    2.6297    2.2411 C   0  0  0  0  0  0  0  0  0  0  0  0
    2.2395    2.4828    2.5804 O   0  5  0  0  0  0  0  0  0  0  0  0
    0.4069    3.7123    2.2828 O   0  0  0  0  0  0  0  0  0  0  0  0
    1.4797   -0.9223    0.4971 H   0  0  0  0  0  0  0  0  0  0  0  0
   -1.1278    0.1066   -0.2107 H   0  0  0  0  0  0  0  0  0  0  0  0
    0.1820    2.2746   -0.3180 H   0  0  0  0  0  0  0  0  0  0  0  0
    1.6673    1.3496   -0.0574 H   0  0  0  0  0  0  0  0  0  0  0  0
   -0.7347    1.4749    1.8465 H   0  0  0  0  0  0  0  0  0  0  0  0
    0.7182    0.5101    2.1315 H   0  0  0  0  0  0  0  0  0  0  0  0
    0.9659    0.8892   -2.7192 N   0  0  0  0  0  0  0  0  0  0  0  0
    1.0823    1.0224   -4.1765 C   0  0  2  0  0  0  0  0  0  0  0  0
    2.5316    0.8371   -4.6719 C   0  0  0  0  0  0  0  0  0  0  0  0
    3.4758    0.8925   -3.8918 O   0  0  0  0  0  0  0  0  0  0  0  0
    0.5525    2.4058   -4.5614 C   0  0  0  0  0  0  0  0  0  0  0  0
    1.7784    1.1460   -2.1606 H   0  0  0  0  0  0  0  0  0  0  0  0
    0.4761    0.2566   -4.6713 H   0  0  0  0  0  0  0  0  0  0  0  0
    1.1497    3.1899   -4.0848 H   0  0  0  0  0  0  0  0  0  0  0  0
    0.5924    2.5456   -5.6456 H   0  0  0  0  0  0  0  0  0  0  0  0
   -0.4875    2.5144   -4.2369 H   0  0  0  0  0  0  0  0  0  0  0  0
    2.7793    0.6048   -6.0132 N   0  0  0  0  0  0  0  0  0  0  0  0
    4.1162    0.4162   -6.5608 C   0  0  0  0  0  0  0  0  0  0  0  0
    1.9769    0.5371   -6.6321 H   0  0  0  0  0  0  0  0  0  0  0  0
    4.7235    1.3139   -6.4054 H   0  0  0  0  0  0  0  0  0  0  0  0
    4.6113   -0.4330   -6.0784 H   0  0  0  0  0  0  0  0  0  0  0  0
    4.0599    0.2189   -7.6354 H   0  0  0  0  0  0  0  0  0  0  0  0
  1  2  2  0  0  0  0
  1  3  1  0  0  0  0
  1  7  1  0  0  0  0
  3  4  1  0  0  0  0
  3  5  1  0  0  0  0
  3  6  1  0  0  0  0
  7  8  1  0  0  0  0
  7 12  1  0  0  0  0
  8  9  1  0  0  0  0
  8 11  1  0  0  0  0
  8 13  1  0  0  0  0
  9 10  2  0  0  0  0
  9 17  1  0  0  0  0
 11 14  1  0  0  0  0
 11 15  1  0  0  0  0
 11 16  1  0  0  0  0
 17 18  1  0  0  0  0
 17 26  1  0  0  0  0
 18 19  1  0  0  0  0
 18 21  1  0  0  0  0
 18 27  1  0  0  0  0
 19 20  2  0  0  0  0
 19 32  1  0  0  0  0
 21 22  1  0  0  0  0
 21 28  1  0  0  0  0
 21 29  1  0  0  0  0
 22 23  1  0  0  0  0
 22 30  1  0  0  0  0
 22 31  1  0  0  0  0
 23 24  1  0  0  0  0
 23 25  2  0  0  0  0
 32 33  1  0  0  0  0
 32 37  1  0  0  0  0
 33 34  1  0  0  0  0
 33 36  1  0  0  0  0
 33 38  1  0  0  0  0
 34 35  2  0  0  0  0
 34 42  1  0  0  0  0
 36 39  1  0  0  0  0
 36 40  1  0  0  0  0
 36 41  1  0  0  0  0
 42 43  1  0  0  0  0
 42 44  1  0  0  0  0
 43 45  1  0  0  0  0
 43 46  1  0  0  0  0
 43 47  1  0  0  0  0
M  CHG  1  24  -1
M  END
$$$$

  -OEChem-05262216243D

 47 46  0     1  0  0  0  0  0999 V2000
    0.2443   -5.7385    1.5965 C   0  0  0  0  0  0  0  0  0  0  0  0
    1.1939   -5.7297    2.3642 O   0  0  0  0  0  0  0  0  0  0  0  0
   -0.8050   -6.8301    1.7008 C   0  0  0  0  0  0  0  0  0  0  0  0
   -0.8644   -7.3815    0.7593 H   0  0  0  0  0  0  0  0  0  0  0  0
   -0.5468   -7.5274    2.5027 H   0  0  0  0  0  0  0  0  0  0  0  0
   -1.7810   -6.3889    1.9184 H   0  0  0  0  0  0  0  0  0  0  0  0
    0.1139   -4.7615    0.6340 N   0  0  0  0  0  0  0  0  0  0  0  0
    0.9412   -3.5513    0.5497 C   0  0  2  0  0  0  0  0  0  0  0  0
    0.1471   -2.3879   -0.0829 C   0  0  0  0  0  0  0  0  0  0  0  0
   -0.9338   -2.6148   -0.6151 O   0  0  0  0  0  0  0  0  0  0  0  0
    2.1877   -3.8638   -0.2846 C   0  0  0  0  0  0  0  0  0  0  0  0
   -0.7571   -4.7406    0.1030 H   0  0  0  0  0  0  0  0  0  0  0  0
    1.2445   -3.2384    1.5547 H   0  0  0  0  0  0  0  0  0  0  0  0
    1.9028   -4.1735   -1.2951 H   0  0  0  0  0  0  0  0  0  0  0  0
    2.8318   -2.9822   -0.3595 H   0  0  0  0  0  0  0  0  0  0  0  0
    2.7623   -4.6713    0.1794 H   0  0  0  0  0  0  0  0  0  0  0  0
    0.6423   -1.0990   -0.0402 N   0  0  0  0  0  0  0  0  0  0  0  0
   -0.0615    0.0859   -0.5544 C   0  0  2  0  0  0  0  0  0  0  0  0
   -0.0383    0.1643   -2.0972 C   0  0  0  0  0  0  0  0  0  0  0  0
   -1.0634    0.0384   -2.7563 O   0  0  0  0  0  0  0  0  0  0  0  0
    0.5973    1.3309    0.0620 C   0  0  0  0  0  0  0  0  0  0  0  0
    0.3672    1.4137    1.5790 C   0  0  0  0  0  0  0  0  0  0  0  0
    1.0622    2.6503    2.1420 C   0  0  0  0  0  0  0  0  0  0  0  0
    2.3103    2.5865    2.2676 O   0  5  0  0  0  0  0  0  0  0  0  0
    0.3639    3.6612    2.3952 O   0  0  0  0  0  0  0  0  0  0  0  0
    1.4703   -0.9406    0.5290 H   0  0  0  0  0  0  0  0  0  0  0  0
   -1.1115    0.0542   -0.2431 H   0  0  0  0  0  0  0  0  0  0  0  0
    0.1734    2.2294   -0.4009 H   0  0  0  0  0  0  0  0  0  0  0  0
    1.6737    1.3306   -0.1420 H   0  0  0  0  0  0  0  0  0  0  0  0
   -0.7050    1.4642    1.7923 H   0  0  0  0  0  0  0  0  0  0  0  0
    0.7670    0.5274    2.0796 H   0  0  0  0  0  0  0  0  0  0  0  0
    1.1213    0.5375   -2.7537 N   0  0  0  0  0  0  0  0  0  0  0  0
    1.2624    0.6334   -4.2112 C   0  0  2  0  0  0  0  0  0  0  0  0
    2.6176    0.0891   -4.7106 C   0  0  0  0  0  0  0  0  0  0  0  0
    3.5322   -0.1422   -3.9268 O   0  0  0  0  0  0  0  0  0  0  0  0
    1.0934    2.1049   -4.5992 C   0  0  0  0  0  0  0  0  0  0  0  0
    1.9756    0.5610   -2.1994 H   0  0  0  0  0  0  0  0  0  0  0  0
    0.4813    0.0416   -4.6998 H   0  0  0  0  0  0  0  0  0  0  0  0
    1.8722    2.7156   -4.1310 H   0  0  0  0  0  0  0  0  0  0  0  0
    1.1574    2.2274   -5.6842 H   0  0  0  0  0  0  0  0  0  0  0  0
    0.1169    2.4727   -4.2675 H   0  0  0  0  0  0  0  0  0  0  0  0
    2.8143   -0.1408   -6.0610 N   0  0  0  0  0  0  0  0  0  0  0  0
    4.0681   -0.6323   -6.6176 C   0  0  0  0  0  0  0  0  0  0  0  0
    2.0383    0.0550   -6.6864 H   0  0  0  0  0  0  0  0  0  0  0  0
    4.8736    0.0875   -6.4386 H   0  0  0  0  0  0  0  0  0  0  0  0
    4.3419   -1.5895   -6.1613 H   0  0  0  0  0  0  0  0  0  0  0  0
    3.9696   -0.7805   -7.6972 H   0  0  0  0  0  0  0  0  0  0  0  0
  1  2  2  0  0  0  0
  1  3  1  0  0  0  0
  1  7  1  0  0  0  0
  3  4  1  0  0  0  0
  3  5  1  0  0  0  0
  3  6  1  0  0  0  0
  7  8  1  0  0  0  0
  7 12  1  0  0  0  0
  8  9  1  0  0  0  0
  8 11  1  0  0  0  0
  8 13  1  0  0  0  0
  9 10  2  0  0  0  0
  9 17  1  0  0  0  0
 11 14  1  0  0  0  0
 11 15  1  0  0  0  0
 11 16  1  0  0  0  0
 17 18  1  0  0  0  0
 17 26  1  0  0  0  0
 18 19  1  0  0  0  0
 18 21  1  0  0  0  0
 18 27  1  0  0  0  0
 19 20  2  0  0  0  0
 19 32  1  0  0  0  0
 21 22  1  0  0  0  0
 21 28  1  0  0  0  0
 21 29  1  0  0  0  0
 22 23  1  0  0  0  0
 22 30  1  0  0  0  0
 22 31  1  0  0  0  0
 23 24  1  0  0  0  0
 23 25  2  0  0  0  0
 32 33  1  0  0  0  0
 32 37  1  0  0  0  0
 33 34  1  0  0  0  0
 33 36  1  0  0  0  0
 33 38  1  0  0  0  0
 34 35  2  0  0  0  0
 34 42  1  0  0  0  0
 36 39  1  0  0  0  0
 36 40  1  0  0  0  0
 36 41  1  0  0  0  0
 42 43  1  0  0  0  0
 42 44  1  0  0  0  0
 43 45  1  0  0  0  0
 43 46  1  0  0  0  0
 43 47  1  0  0  0  0
M  CHG  1  24  -1
M  END
$$$$

  -OEChem-05262216243D

 47 46  0     1  0  0  0  0  0999 V2000
    0.2467   -5.7223    1.6079 C   0  0  0  0  0  0  0  0  0  0  0  0
    1.1884   -5.7066    2.3852 O   0  0  0  0  0  0  0  0  0  0  0  0
   -0.8046   -6.8120    1.7111 C   0  0  0  0  0  0  0  0  0  0  0  0
   -0.8651   -7.3615    0.7687 H   0  0  0  0  0  0  0  0  0  0  0  0
   -0.5472   -7.5112    2.5115 H   0  0  0  0  0  0  0  0  0  0  0  0
   -1.7796   -6.3692    1.9294 H   0  0  0  0  0  0  0  0  0  0  0  0
    0.1247   -4.7519    0.6376 N   0  0  0  0  0  0  0  0  0  0  0  0
    0.9538   -3.5431    0.5516 C   0  0  2  0  0  0  0  0  0  0  0  0
    0.1653   -2.3846   -0.0956 C   0  0  0  0  0  0  0  0  0  0  0  0
   -0.9003   -2.6151   -0.6571 O   0  0  0  0  0  0  0  0  0  0  0  0
    2.2062   -3.8608   -0.2721 C   0  0  0  0  0  0  0  0  0  0  0  0
   -0.7405   -4.7365    0.0971 H   0  0  0  0  0  0  0  0  0  0  0  0
    1.2499   -3.2236    1.5568 H   0  0  0  0  0  0  0  0  0  0  0  0
    1.9292   -4.1815   -1.2817 H   0  0  0  0  0  0  0  0  0  0  0  0
    2.8481   -2.9783   -0.3521 H   0  0  0  0  0  0  0  0  0  0  0  0
    2.7806   -4.6616    0.2037 H   0  0  0  0  0  0  0  0  0  0  0  0
    0.6566   -1.0948   -0.0530 N   0  0  0  0  0  0  0  0  0  0  0  0
   -0.0622    0.0843   -0.5604 C   0  0  2  0  0  0  0  0  0  0  0  0
   -0.0488    0.1540   -2.1017 C   0  0  0  0  0  0  0  0  0  0  0  0
   -1.0846    0.2867   -2.7428 O   0  0  0  0  0  0  0  0  0  0  0  0
    0.6077    1.3333    0.0316 C   0  0  0  0  0  0  0  0  0  0  0  0
    0.4103    1.4237    1.5535 C   0  0  0  0  0  0  0  0  0  0  0  0
    1.1136    2.6634    2.0997 C   0  0  0  0  0  0  0  0  0  0  0  0
    2.3681    2.6231    2.1510 O   0  5  0  0  0  0  0  0  0  0  0  0
    0.4108    3.6488    2.4295 O   0  0  0  0  0  0  0  0  0  0  0  0
    1.4635   -0.9282    0.5440 H   0  0  0  0  0  0  0  0  0  0  0  0
   -1.1082    0.0529   -0.2353 H   0  0  0  0  0  0  0  0  0  0  0  0
    0.1729    2.2280   -0.4283 H   0  0  0  0  0  0  0  0  0  0  0  0
    1.6787    1.3323   -0.1997 H   0  0  0  0  0  0  0  0  0  0  0  0
   -0.6574    1.4735    1.7884 H   0  0  0  0  0  0  0  0  0  0  0  0
    0.8214    0.5401    2.0496 H   0  0  0  0  0  0  0  0  0  0  0  0
    1.1599    0.2243   -2.7700 N   0  0  0  0  0  0  0  0  0  0  0  0
    1.3046    0.2220   -4.2294 C   0  0  2  0  0  0  0  0  0  0  0  0
    2.4850   -0.6554   -4.6976 C   0  0  0  0  0  0  0  0  0  0  0  0
    3.3144   -1.0756   -3.8968 O   0  0  0  0  0  0  0  0  0  0  0  0
    1.4890    1.6726   -4.6826 C   0  0  0  0  0  0  0  0  0  0  0  0
    1.9911    0.0115   -2.2214 H   0  0  0  0  0  0  0  0  0  0  0  0
    0.4001   -0.1861   -4.6923 H   0  0  0  0  0  0  0  0  0  0  0  0
    2.3925    2.1009   -4.2367 H   0  0  0  0  0  0  0  0  0  0  0  0
    1.5749    1.7291   -5.7717 H   0  0  0  0  0  0  0  0  0  0  0  0
    0.6292    2.2752   -4.3723 H   0  0  0  0  0  0  0  0  0  0  0  0
    2.6179   -0.9790   -6.0363 N   0  0  0  0  0  0  0  0  0  0  0  0
    3.7080   -1.7909   -6.5607 C   0  0  0  0  0  0  0  0  0  0  0  0
    1.9115   -0.6260   -6.6751 H   0  0  0  0  0  0  0  0  0  0  0  0
    4.6700   -1.2989   -6.3826 H   0  0  0  0  0  0  0  0  0  0  0  0
    3.7191   -2.7740   -6.0789 H   0  0  0  0  0  0  0  0  0  0  0  0
    3.5874   -1.9358   -7.6384 H   0  0  0  0  0  0  0  0  0  0  0  0
  1  2  2  0  0  0  0
  1  3  1  0  0  0  0
  1  7  1  0  0  0  0
  3  4  1  0  0  0  0
  3  5  1  0  0  0  0
  3  6  1  0  0  0  0
  7  8  1  0  0  0  0
  7 12  1  0  0  0  0
  8  9  1  0  0  0  0
  8 11  1  0  0  0  0
  8 13  1  0  0  0  0
  9 10  2  0  0  0  0
  9 17  1  0  0  0  0
 11 14  1  0  0  0  0
 11 15  1  0  0  0  0
 11 16  1  0  0  0  0
 17 18  1  0  0  0  0
 17 26  1  0  0  0  0
 18 19  1  0  0  0  0
 18 21  1  0  0  0  0
 18 27  1  0  0  0  0
 19 20  2  0  0  0  0
 19 32  1  0  0  0  0
 21 22  1  0  0  0  0
 21 28  1  0  0  0  0
 21 29  1  0  0  0  0
 22 23  1  0  0  0  0
 22 30  1  0  0  0  0
 22 31  1  0  0  0  0
 23 24  1  0  0  0  0
 23 25  2  0  0  0  0
 32 33  1  0  0  0  0
 32 37  1  0  0  0  0
 33 34  1  0  0  0  0
 33 36  1  0  0  0  0
 33 38  1  0  0  0  0
 34 35  2  0  0  0  0
 34 42  1  0  0  0  0
 36 39  1  0  0  0  0
 36 40  1  0  0  0  0
 36 41  1  0  0  0  0
 42 43  1  0  0  0  0
 42 44  1  0  0  0  0
 43 45  1  0  0  0  0
 43 46  1  0  0  0  0
 43 47  1  0  0  0  0
M  CHG  1  24  -1
M  END
$$$$

  -OEChem-05262216243D

 47 46  0     1  0  0  0  0  0999 V2000
    0.8677   -5.7322    0.8278 C   0  0  0  0  0  0  0  0  0  0  0  0
    1.6038   -5.6522    1.7986 O   0  0  0  0  0  0  0  0  0  0  0  0
    0.0732   -7.0018    0.5813 C   0  0  0  0  0  0  0  0  0  0  0  0
    0.3406   -7.4269   -0.3893 H   0  0  0  0  0  0  0  0  0  0  0  0
    0.2876   -7.7388    1.3603 H   0  0  0  0  0  0  0  0  0  0  0  0
   -0.9968   -6.7798    0.5920 H   0  0  0  0  0  0  0  0  0  0  0  0
    0.7483   -4.6723   -0.0449 N   0  0  0  0  0  0  0  0  0  0  0  0
    1.3384   -3.3438    0.1635 C   0  0  2  0  0  0  0  0  0  0  0  0
    0.5125   -2.2529   -0.5500 C   0  0  0  0  0  0  0  0  0  0  0  0
   -0.3478   -2.5750   -1.3630 O   0  0  0  0  0  0  0  0  0  0  0  0
    2.7735   -3.3556   -0.3744 C   0  0  0  0  0  0  0  0  0  0  0  0
    0.0369   -4.7396   -0.7724 H   0  0  0  0  0  0  0  0  0  0  0  0
    1.3507   -3.1075    1.2332 H   0  0  0  0  0  0  0  0  0  0  0  0
    2.7773   -3.5710   -1.4480 H   0  0  0  0  0  0  0  0  0  0  0  0
    3.2535   -2.3859   -0.2119 H   0  0  0  0  0  0  0  0  0  0  0  0
    3.3652   -4.1210    0.1373 H   0  0  0  0  0  0  0  0  0  0  0  0
    0.7696   -0.9139   -0.3231 N   0  0  0  0  0  0  0  0  0  0  0  0
   -0.0459    0.1747   -0.8858 C   0  0  2  0  0  0  0  0  0  0  0  0
    0.2409    0.3716   -2.3869 C   0  0  0  0  0  0  0  0  0  0  0  0
   -0.6635    0.3774   -3.2131 O   0  0  0  0  0  0  0  0  0  0  0  0
    0.3162    1.4516   -0.1169 C   0  0  0  0  0  0  0  0  0  0  0  0
   -0.1315    1.3786    1.3516 C   0  0  0  0  0  0  0  0  0  0  0  0
    0.2731    2.6561    2.0806 C   0  0  0  0  0  0  0  0  0  0  0  0
    1.4963    2.7912    2.3328 O   0  5  0  0  0  0  0  0  0  0  0  0
   -0.6158    3.4989    2.3479 O   0  0  0  0  0  0  0  0  0  0  0  0
    1.3513   -0.6890    0.4818 H   0  0  0  0  0  0  0  0  0  0  0  0
   -1.1135   -0.0381   -0.7606 H   0  0  0  0  0  0  0  0  0  0  0  0
   -0.1767    2.3100   -0.5878 H   0  0  0  0  0  0  0  0  0  0  0  0
    1.3968    1.6270   -0.1639 H   0  0  0  0  0  0  0  0  0  0  0  0
   -1.2171    1.2518    1.4046 H   0  0  0  0  0  0  0  0  0  0  0  0
    0.3300    0.5260    1.8572 H   0  0  0  0  0  0  0  0  0  0  0  0
    1.5502    0.3825   -2.8331 N   0  0  0  0  0  0  0  0  0  0  0  0
    1.9322    0.1847   -4.2383 C   0  0  2  0  0  0  0  0  0  0  0  0
    1.8608   -1.3089   -4.6448 C   0  0  0  0  0  0  0  0  0  0  0  0
    2.8359   -1.9015   -5.0963 O   0  0  0  0  0  0  0  0  0  0  0  0
    3.3282    0.7922   -4.4197 C   0  0  0  0  0  0  0  0  0  0  0  0
    2.2551    0.2280   -2.1187 H   0  0  0  0  0  0  0  0  0  0  0  0
    1.2419    0.7327   -4.8884 H   0  0  0  0  0  0  0  0  0  0  0  0
    4.0597    0.2705   -3.7944 H   0  0  0  0  0  0  0  0  0  0  0  0
    3.6445    0.7121   -5.4644 H   0  0  0  0  0  0  0  0  0  0  0  0
    3.3205    1.8504   -4.1416 H   0  0  0  0  0  0  0  0  0  0  0  0
    0.6870   -2.0081   -4.4422 N   0  0  0  0  0  0  0  0  0  0  0  0
    0.5715   -3.4521   -4.5709 C   0  0  0  0  0  0  0  0  0  0  0  0
   -0.0597   -1.4989   -3.9605 H   0  0  0  0  0  0  0  0  0  0  0  0
    0.8182   -3.7669   -5.5898 H   0  0  0  0  0  0  0  0  0  0  0  0
    1.2466   -3.9529   -3.8696 H   0  0  0  0  0  0  0  0  0  0  0  0
   -0.4529   -3.7654   -4.3487 H   0  0  0  0  0  0  0  0  0  0  0  0
  1  2  2  0  0  0  0
  1  3  1  0  0  0  0
  1  7  1  0  0  0  0
  3  4  1  0  0  0  0
  3  5  1  0  0  0  0
  3  6  1  0  0  0  0
  7  8  1  0  0  0  0
  7 12  1  0  0  0  0
  8  9  1  0  0  0  0
  8 11  1  0  0  0  0
  8 13  1  0  0  0  0
  9 10  2  0  0  0  0
  9 17  1  0  0  0  0
 11 14  1  0  0  0  0
 11 15  1  0  0  0  0
 11 16  1  0  0  0  0
 17 18  1  0  0  0  0
 17 26  1  0  0  0  0
 18 19  1  0  0  0  0
 18 21  1  0  0  0  0
 18 27  1  0  0  0  0
 19 20  2  0  0  0  0
 19 32  1  0  0  0  0
 21 22  1  0  0  0  0
 21 28  1  0  0  0  0
 21 29  1  0  0  0  0
 22 23  1  0  0  0  0
 22 30  1  0  0  0  0
 22 31  1  0  0  0  0
 23 24  1  0  0  0  0
 23 25  2  0  0  0  0
 32 33  1  0  0  0  0
 32 37  1  0  0  0  0
 33 34  1  0  0  0  0
 33 36  1  0  0  0  0
 33 38  1  0  0  0  0
 34 35  2  0  0  0  0
 34 42  1  0  0  0  0
 36 39  1  0  0  0  0
 36 40  1  0  0  0  0
 36 41  1  0  0  0  0
 42 43  1  0  0  0  0
 42 44  1  0  0  0  0
 43 45  1  0  0  0  0
 43 46  1  0  0  0  0
 43 47  1  0  0  0  0
M  CHG  1  24  -1
M  END
$$$$

  -OEChem-05262216243D

 47 46  0     1  0  0  0  0  0999 V2000
    0.2301   -5.7315    1.5911 C   0  0  0  0  0  0  0  0  0  0  0  0
    1.1567   -5.7209    2.3861 O   0  0  0  0  0  0  0  0  0  0  0  0
   -0.8030   -6.8417    1.6464 C   0  0  0  0  0  0  0  0  0  0  0  0
   -0.8489   -7.3558    0.6832 H   0  0  0  0  0  0  0  0  0  0  0  0
   -0.5373   -7.5668    2.4208 H   0  0  0  0  0  0  0  0  0  0  0  0
   -1.7863   -6.4238    1.8764 H   0  0  0  0  0  0  0  0  0  0  0  0
    0.1105   -4.7386    0.6437 N   0  0  0  0  0  0  0  0  0  0  0  0
    0.9447   -3.5325    0.5800 C   0  0  2  0  0  0  0  0  0  0  0  0
    0.1734   -2.3675   -0.0755 C   0  0  0  0  0  0  0  0  0  0  0  0
   -0.8847   -2.5861   -0.6572 O   0  0  0  0  0  0  0  0  0  0  0  0
    2.2102   -3.8514   -0.2239 C   0  0  0  0  0  0  0  0  0  0  0  0
   -0.7382   -4.7259    0.0785 H   0  0  0  0  0  0  0  0  0  0  0  0
    1.2237   -3.2208    1.5924 H   0  0  0  0  0  0  0  0  0  0  0  0
    1.9505   -4.1436   -1.2468 H   0  0  0  0  0  0  0  0  0  0  0  0
    2.8684   -2.9785   -0.2691 H   0  0  0  0  0  0  0  0  0  0  0  0
    2.7615   -4.6725    0.2445 H   0  0  0  0  0  0  0  0  0  0  0  0
    0.6809   -1.0830   -0.0477 N   0  0  0  0  0  0  0  0  0  0  0  0
   -0.0370    0.0939   -0.5669 C   0  0  2  0  0  0  0  0  0  0  0  0
   -0.0333    0.1421   -2.1086 C   0  0  0  0  0  0  0  0  0  0  0  0
   -0.9150    0.7220   -2.7317 O   0  0  0  0  0  0  0  0  0  0  0  0
    0.6673    1.3382   -0.0072 C   0  0  0  0  0  0  0  0  0  0  0  0
    0.4999    1.4503    1.5180 C   0  0  0  0  0  0  0  0  0  0  0  0
    1.2329    2.6810    2.0457 C   0  0  0  0  0  0  0  0  0  0  0  0
    2.4884    2.6346    2.0367 O   0  5  0  0  0  0  0  0  0  0  0  0
    0.5517    3.6551    2.4465 O   0  0  0  0  0  0  0  0  0  0  0  0
    1.4727   -0.9103    0.5686 H   0  0  0  0  0  0  0  0  0  0  0  0
   -1.0793    0.0826   -0.2304 H   0  0  0  0  0  0  0  0  0  0  0  0
    0.2396    2.2349   -0.4702 H   0  0  0  0  0  0  0  0  0  0  0  0
    1.7326    1.3133   -0.2631 H   0  0  0  0  0  0  0  0  0  0  0  0
   -0.5628    1.5206    1.7693 H   0  0  0  0  0  0  0  0  0  0  0  0
    0.9039    0.5653    2.0169 H   0  0  0  0  0  0  0  0  0  0  0  0
    1.0294   -0.4070   -2.8007 N   0  0  0  0  0  0  0  0  0  0  0  0
    1.0703   -0.5852   -4.2539 C   0  0  2  0  0  0  0  0  0  0  0  0
    1.7498   -1.9146   -4.6457 C   0  0  0  0  0  0  0  0  0  0  0  0
    2.4148   -2.5453   -3.8288 O   0  0  0  0  0  0  0  0  0  0  0  0
    1.8185    0.6068   -4.8564 C   0  0  0  0  0  0  0  0  0  0  0  0
    1.6576   -0.9882   -2.2488 H   0  0  0  0  0  0  0  0  0  0  0  0
    0.0506   -0.6105   -4.6522 H   0  0  0  0  0  0  0  0  0  0  0  0
    2.8466    0.6411   -4.4820 H   0  0  0  0  0  0  0  0  0  0  0  0
    1.8449    0.5335   -5.9473 H   0  0  0  0  0  0  0  0  0  0  0  0
    1.3183    1.5422   -4.5849 H   0  0  0  0  0  0  0  0  0  0  0  0
    1.6189   -2.4063   -5.9323 N   0  0  0  0  0  0  0  0  0  0  0  0
    2.2233   -3.6542   -6.3800 C   0  0  0  0  0  0  0  0  0  0  0  0
    1.0372   -1.8793   -6.5769 H   0  0  0  0  0  0  0  0  0  0  0  0
    3.3143   -3.6011   -6.3011 H   0  0  0  0  0  0  0  0  0  0  0  0
    1.8658   -4.4925   -5.7728 H   0  0  0  0  0  0  0  0  0  0  0  0
    1.9613   -3.8472   -7.4247 H   0  0  0  0  0  0  0  0  0  0  0  0
  1  2  2  0  0  0  0
  1  3  1  0  0  0  0
  1  7  1  0  0  0  0
  3  4  1  0  0  0  0
  3  5  1  0  0  0  0
  3  6  1  0  0  0  0
  7  8  1  0  0  0  0
  7 12  1  0  0  0  0
  8  9  1  0  0  0  0
  8 11  1  0  0  0  0
  8 13  1  0  0  0  0
  9 10  2  0  0  0  0
  9 17  1  0  0  0  0
 11 14  1  0  0  0  0
 11 15  1  0  0  0  0
 11 16  1  0  0  0  0
 17 18  1  0  0  0  0
 17 26  1  0  0  0  0
 18 19  1  0  0  0  0
 18 21  1  0  0  0  0
 18 27  1  0  0  0  0
 19 20  2  0  0  0  0
 19 32  1  0  0  0  0
 21 22  1  0  0  0  0
 21 28  1  0  0  0  0
 21 29  1  0  0  0  0
 22 23  1  0  0  0  0
 22 30  1  0  0  0  0
 22 31  1  0  0  0  0
 23 24  1  0  0  0  0
 23 25  2  0  0  0  0
 32 33  1  0  0  0  0
 32 37  1  0  0  0  0
 33 34  1  0  0  0  0
 33 36  1  0  0  0  0
 33 38  1  0  0  0  0
 34 35  2  0  0  0  0
 34 42  1  0  0  0  0
 36 39  1  0  0  0  0
 36 40  1  0  0  0  0
 36 41  1  0  0  0  0
 42 43  1  0  0  0  0
 42 44  1  0  0  0  0
 43 45  1  0  0  0  0
 43 46  1  0  0  0  0
 43 47  1  0  0  0  0
M  CHG  1  24  -1
M  END
$$$$

  -OEChem-05262216243D

 47 46  0     1  0  0  0  0  0999 V2000
    0.1708   -5.7122    1.7213 C   0  0  0  0  0  0  0  0  0  0  0  0
    1.0906   -5.6867    2.5240 O   0  0  0  0  0  0  0  0  0  0  0  0
   -0.8954   -6.7875    1.8238 C   0  0  0  0  0  0  0  0  0  0  0  0
   -0.9084   -7.3882    0.9112 H   0  0  0  0  0  0  0  0  0  0  0  0
   -0.6906   -7.4429    2.6749 H   0  0  0  0  0  0  0  0  0  0  0  0
   -1.8765   -6.3264    1.9621 H   0  0  0  0  0  0  0  0  0  0  0  0
    0.0859   -4.7641    0.7254 N   0  0  0  0  0  0  0  0  0  0  0  0
    0.9404   -3.5747    0.6238 C   0  0  2  0  0  0  0  0  0  0  0  0
    0.1877   -2.4158   -0.0622 C   0  0  0  0  0  0  0  0  0  0  0  0
   -0.8671   -2.6334   -0.6501 O   0  0  0  0  0  0  0  0  0  0  0  0
    2.1965   -3.9394   -0.1738 C   0  0  0  0  0  0  0  0  0  0  0  0
   -0.7570   -4.7598    0.1515 H   0  0  0  0  0  0  0  0  0  0  0  0
    1.2296   -3.2380    1.6253 H   0  0  0  0  0  0  0  0  0  0  0  0
    1.9280   -4.2613   -1.1855 H   0  0  0  0  0  0  0  0  0  0  0  0
    2.8677   -3.0786   -0.2499 H   0  0  0  0  0  0  0  0  0  0  0  0
    2.7361   -4.7534    0.3200 H   0  0  0  0  0  0  0  0  0  0  0  0
    0.7062   -1.1354   -0.0544 N   0  0  0  0  0  0  0  0  0  0  0  0
   -0.0079    0.0401   -0.5841 C   0  0  2  0  0  0  0  0  0  0  0  0
   -0.0251    0.0850   -2.1282 C   0  0  0  0  0  0  0  0  0  0  0  0
   -0.7713    0.8457   -2.7339 O   0  0  0  0  0  0  0  0  0  0  0  0
    0.7115    1.2804   -0.0329 C   0  0  0  0  0  0  0  0  0  0  0  0
    0.5488    1.4022    1.4928 C   0  0  0  0  0  0  0  0  0  0  0  0
    1.2945    2.6269    2.0173 C   0  0  0  0  0  0  0  0  0  0  0  0
    2.5494    2.5872    1.9648 O   0  5  0  0  0  0  0  0  0  0  0  0
    0.6233    3.5850    2.4704 O   0  0  0  0  0  0  0  0  0  0  0  0
    1.5004   -0.9592    0.5578 H   0  0  0  0  0  0  0  0  0  0  0  0
   -1.0472    0.0385   -0.2378 H   0  0  0  0  0  0  0  0  0  0  0  0
    0.2934    2.1800   -0.4989 H   0  0  0  0  0  0  0  0  0  0  0  0
    1.7755    1.2420   -0.2924 H   0  0  0  0  0  0  0  0  0  0  0  0
   -0.5129    1.4831    1.7450 H   0  0  0  0  0  0  0  0  0  0  0  0
    0.9456    0.5160    1.9950 H   0  0  0  0  0  0  0  0  0  0  0  0
    0.8351   -0.7206   -2.8499 N   0  0  0  0  0  0  0  0  0  0  0  0
    0.7869   -0.9049   -4.3018 C   0  0  2  0  0  0  0  0  0  0  0  0
    1.2322   -2.3257   -4.7083 C   0  0  0  0  0  0  0  0  0  0  0  0
    1.8485   -3.0407   -3.9231 O   0  0  0  0  0  0  0  0  0  0  0  0
    1.6872    0.1495   -4.9524 C   0  0  0  0  0  0  0  0  0  0  0  0
    1.3246   -1.4327   -2.3116 H   0  0  0  0  0  0  0  0  0  0  0  0
   -0.2419   -0.7700   -4.6521 H   0  0  0  0  0  0  0  0  0  0  0  0
    2.7225    0.0252   -4.6193 H   0  0  0  0  0  0  0  0  0  0  0  0
    1.6568    0.0626   -6.0423 H   0  0  0  0  0  0  0  0  0  0  0  0
    1.3517    1.1547   -4.6772 H   0  0  0  0  0  0  0  0  0  0  0  0
    0.9439   -2.8055   -5.9735 N   0  0  0  0  0  0  0  0  0  0  0  0
    1.3105   -4.1404   -6.4280 C   0  0  0  0  0  0  0  0  0  0  0  0
    0.4026   -2.2047   -6.5882 H   0  0  0  0  0  0  0  0  0  0  0  0
    2.3979   -4.2685   -6.4025 H   0  0  0  0  0  0  0  0  0  0  0  0
    0.8500   -4.9018   -5.7897 H   0  0  0  0  0  0  0  0  0  0  0  0
    0.9681   -4.2967   -7.4555 H   0  0  0  0  0  0  0  0  0  0  0  0
  1  2  2  0  0  0  0
  1  3  1  0  0  0  0
  1  7  1  0  0  0  0
  3  4  1  0  0  0  0
  3  5  1  0  0  0  0
  3  6  1  0  0  0  0
  7  8  1  0  0  0  0
  7 12  1  0  0  0  0
  8  9  1  0  0  0  0
  8 11  1  0  0  0  0
  8 13  1  0  0  0  0
  9 10  2  0  0  0  0
  9 17  1  0  0  0  0
 11 14  1  0  0  0  0
 11 15  1  0  0  0  0
 11 16  1  0  0  0  0
 17 18  1  0  0  0  0
 17 26  1  0  0  0  0
 18 19  1  0  0  0  0
 18 21  1  0  0  0  0
 18 27  1  0  0  0  0
 19 20  2  0  0  0  0
 19 32  1  0  0  0  0
 21 22  1  0  0  0  0
 21 28  1  0  0  0  0
 21 29  1  0  0  0  0
 22 23  1  0  0  0  0
 22 30  1  0  0  0  0
 22 31  1  0  0  0  0
 23 24  1  0  0  0  0
 23 25  2  0  0  0  0
 32 33  1  0  0  0  0
 32 37  1  0  0  0  0
 33 34  1  0  0  0  0
 33 36  1  0  0  0  0
 33 38  1  0  0  0  0
 34 35  2  0  0  0  0
 34 42  1  0  0  0  0
 36 39  1  0  0  0  0
 36 40  1  0  0  0  0
 36 41  1  0  0  0  0
 42 43  1  0  0  0  0
 42 44  1  0  0  0  0
 43 45  1  0  0  0  0
 43 46  1  0  0  0  0
 43 47  1  0  0  0  0
M  CHG  1  24  -1
M  END
$$$$

  -OEChem-05262216243D

 47 46  0     1  0  0  0  0  0999 V2000
    0.1760   -5.7383    1.7856 C   0  0  0  0  0  0  0  0  0  0  0  0
    1.0827   -5.7014    2.6028 O   0  0  0  0  0  0  0  0  0  0  0  0
   -0.8592   -6.8466    1.8507 C   0  0  0  0  0  0  0  0  0  0  0  0
   -0.9017   -7.3751    0.8952 H   0  0  0  0  0  0  0  0  0  0  0  0
   -0.5985   -7.5606    2.6369 H   0  0  0  0  0  0  0  0  0  0  0  0
   -1.8433   -6.4244    2.0691 H   0  0  0  0  0  0  0  0  0  0  0  0
    0.0784   -4.7743    0.8062 N   0  0  0  0  0  0  0  0  0  0  0  0
    0.9127   -3.5692    0.7246 C   0  0  2  0  0  0  0  0  0  0  0  0
    0.1516   -2.4216    0.0283 C   0  0  0  0  0  0  0  0  0  0  0  0
   -0.9130   -2.6461   -0.5385 O   0  0  0  0  0  0  0  0  0  0  0  0
    2.1889   -3.9095   -0.0527 C   0  0  0  0  0  0  0  0  0  0  0  0
   -0.7528   -4.7857    0.2154 H   0  0  0  0  0  0  0  0  0  0  0  0
    1.1776   -3.2309    1.7323 H   0  0  0  0  0  0  0  0  0  0  0  0
    1.9430   -4.2228   -1.0728 H   0  0  0  0  0  0  0  0  0  0  0  0
    2.8514   -3.0403   -0.1062 H   0  0  0  0  0  0  0  0  0  0  0  0
    2.7297   -4.7226    0.4413 H   0  0  0  0  0  0  0  0  0  0  0  0
    0.6862   -1.1496   -0.0311 N   0  0  0  0  0  0  0  0  0  0  0  0
   -0.0174    0.0194   -0.5903 C   0  0  2  0  0  0  0  0  0  0  0  0
   -0.0769    0.0151   -2.1374 C   0  0  0  0  0  0  0  0  0  0  0  0
   -0.6060    0.9319   -2.7556 O   0  0  0  0  0  0  0  0  0  0  0  0
    0.7381    1.2605   -0.0845 C   0  0  0  0  0  0  0  0  0  0  0  0
    0.6003    1.4298    1.4399 C   0  0  0  0  0  0  0  0  0  0  0  0
    1.3792    2.6517    1.9215 C   0  0  0  0  0  0  0  0  0  0  0  0
    2.6322    2.5837    1.8546 O   0  5  0  0  0  0  0  0  0  0  0  0
    0.7345    3.6329    2.3639 O   0  0  0  0  0  0  0  0  0  0  0  0
    1.5120   -0.9647    0.5350 H   0  0  0  0  0  0  0  0  0  0  0  0
   -1.0481    0.0487   -0.2211 H   0  0  0  0  0  0  0  0  0  0  0  0
    0.3341    2.1577   -0.5671 H   0  0  0  0  0  0  0  0  0  0  0  0
    1.7968    1.1912   -0.3590 H   0  0  0  0  0  0  0  0  0  0  0  0
   -0.4556    1.5409    1.7042 H   0  0  0  0  0  0  0  0  0  0  0  0
    0.9849    0.5493    1.9611 H   0  0  0  0  0  0  0  0  0  0  0  0
    0.4963   -1.0169   -2.8570 N   0  0  0  0  0  0  0  0  0  0  0  0
    0.4240   -1.1686   -4.3120 C   0  0  2  0  0  0  0  0  0  0  0  0
    0.5356   -2.6468   -4.7412 C   0  0  0  0  0  0  0  0  0  0  0  0
    1.0226   -3.4868   -3.9901 O   0  0  0  0  0  0  0  0  0  0  0  0
    1.5528   -0.3462   -4.9418 C   0  0  0  0  0  0  0  0  0  0  0  0
    0.7482   -1.8430   -2.3167 H   0  0  0  0  0  0  0  0  0  0  0  0
   -0.5413   -0.7933   -4.6670 H   0  0  0  0  0  0  0  0  0  0  0  0
    2.5263   -0.7073   -4.5949 H   0  0  0  0  0  0  0  0  0  0  0  0
    1.5203   -0.4202   -6.0326 H   0  0  0  0  0  0  0  0  0  0  0  0
    1.4550    0.7085   -4.6649 H   0  0  0  0  0  0  0  0  0  0  0  0
    0.0968   -3.0361   -5.9944 N   0  0  0  0  0  0  0  0  0  0  0  0
    0.1490   -4.4118   -6.4711 C   0  0  0  0  0  0  0  0  0  0  0  0
   -0.3250   -2.3239   -6.5834 H   0  0  0  0  0  0  0  0  0  0  0  0
    1.1822   -4.7739   -6.4846 H   0  0  0  0  0  0  0  0  0  0  0  0
   -0.4454   -5.0642   -5.8230 H   0  0  0  0  0  0  0  0  0  0  0  0
   -0.2523   -4.4741   -7.4870 H   0  0  0  0  0  0  0  0  0  0  0  0
  1  2  2  0  0  0  0
  1  3  1  0  0  0  0
  1  7  1  0  0  0  0
  3  4  1  0  0  0  0
  3  5  1  0  0  0  0
  3  6  1  0  0  0  0
  7  8  1  0  0  0  0
  7 12  1  0  0  0  0
  8  9  1  0  0  0  0
  8 11  1  0  0  0  0
  8 13  1  0  0  0  0
  9 10  2  0  0  0  0
  9 17  1  0  0  0  0
 11 14  1  0  0  0  0
 11 15  1  0  0  0  0
 11 16  1  0  0  0  0
 17 18  1  0  0  0  0
 17 26  1  0  0  0  0
 18 19  1  0  0  0  0
 18 21  1  0  0  0  0
 18 27  1  0  0  0  0
 19 20  2  0  0  0  0
 19 32  1  0  0  0  0
 21 22  1  0  0  0  0
 21 28  1  0  0  0  0
 21 29  1  0  0  0  0
 22 23  1  0  0  0  0
 22 30  1  0  0  0  0
 22 31  1  0  0  0  0
 23 24  1  0  0  0  0
 23 25  2  0  0  0  0
 32 33  1  0  0  0  0
 32 37  1  0  0  0  0
 33 34  1  0  0  0  0
 33 36  1  0  0  0  0
 33 38  1  0  0  0  0
 34 35  2  0  0  0  0
 34 42  1  0  0  0  0
 36 39  1  0  0  0  0
 36 40  1  0  0  0  0
 36 41  1  0  0  0  0
 42 43  1  0  0  0  0
 42 44  1  0  0  0  0
 43 45  1  0  0  0  0
 43 46  1  0  0  0  0
 43 47  1  0  0  0  0
M  CHG  1  24  -1
M  END
$$$$

  -OEChem-05262216243D

 47 46  0     1  0  0  0  0  0999 V2000
    0.2050   -5.7269    1.8548 C   0  0  0  0  0  0  0  0  0  0  0  0
    1.0950   -5.6609    2.6881 O   0  0  0  0  0  0  0  0  0  0  0  0
   -0.8076   -6.8557    1.9149 C   0  0  0  0  0  0  0  0  0  0  0  0
   -0.8060   -7.4076    0.9718 H   0  0  0  0  0  0  0  0  0  0  0  0
   -0.5575   -7.5443    2.7266 H   0  0  0  0  0  0  0  0  0  0  0  0
   -1.8073   -6.4507    2.0912 H   0  0  0  0  0  0  0  0  0  0  0  0
    0.1100   -4.7793    0.8590 N   0  0  0  0  0  0  0  0  0  0  0  0
    0.9277   -3.5624    0.7748 C   0  0  2  0  0  0  0  0  0  0  0  0
    0.1672   -2.4361    0.0438 C   0  0  0  0  0  0  0  0  0  0  0  0
   -0.8964   -2.6757   -0.5194 O   0  0  0  0  0  0  0  0  0  0  0  0
    2.2266   -3.8973    0.0339 C   0  0  0  0  0  0  0  0  0  0  0  0
   -0.7073   -4.8160    0.2500 H   0  0  0  0  0  0  0  0  0  0  0  0
    1.1644   -3.2035    1.7824 H   0  0  0  0  0  0  0  0  0  0  0  0
    2.0088   -4.2368   -0.9841 H   0  0  0  0  0  0  0  0  0  0  0  0
    2.8754   -3.0180   -0.0229 H   0  0  0  0  0  0  0  0  0  0  0  0
    2.7695   -4.6901    0.5581 H   0  0  0  0  0  0  0  0  0  0  0  0
    0.6984   -1.1657   -0.0544 N   0  0  0  0  0  0  0  0  0  0  0  0
   -0.0145   -0.0018   -0.6133 C   0  0  2  0  0  0  0  0  0  0  0  0
   -0.1210   -0.0224   -2.1610 C   0  0  0  0  0  0  0  0  0  0  0  0
   -0.4131    0.9850   -2.7956 O   0  0  0  0  0  0  0  0  0  0  0  0
    0.7499    1.2395   -0.1161 C   0  0  0  0  0  0  0  0  0  0  0  0
    0.6240    1.4068    1.4099 C   0  0  0  0  0  0  0  0  0  0  0  0
    1.4087    2.6257    1.8886 C   0  0  0  0  0  0  0  0  0  0  0  0
    2.6617    2.5390    1.8515 O   0  5  0  0  0  0  0  0  0  0  0  0
    0.7680    3.6226    2.3009 O   0  0  0  0  0  0  0  0  0  0  0  0
    1.5358   -0.9714    0.4913 H   0  0  0  0  0  0  0  0  0  0  0  0
   -1.0362    0.0296   -0.2214 H   0  0  0  0  0  0  0  0  0  0  0  0
    0.3430    2.1392   -0.5911 H   0  0  0  0  0  0  0  0  0  0  0  0
    1.8057    1.1698   -0.4012 H   0  0  0  0  0  0  0  0  0  0  0  0
   -0.4297    1.5203    1.6822 H   0  0  0  0  0  0  0  0  0  0  0  0
    1.0098    0.5250    1.9282 H   0  0  0  0  0  0  0  0  0  0  0  0
    0.1358   -1.1812   -2.8702 N   0  0  0  0  0  0  0  0  0  0  0  0
    0.0140   -1.3188   -4.3249 C   0  0  2  0  0  0  0  0  0  0  0  0
   -0.2382   -2.7788   -4.7546 C   0  0  0  0  0  0  0  0  0  0  0  0
    0.1132   -3.7172   -4.0467 O   0  0  0  0  0  0  0  0  0  0  0  0
    1.3006   -0.8006   -4.9758 C   0  0  0  0  0  0  0  0  0  0  0  0
    0.1249   -2.0396   -2.3160 H   0  0  0  0  0  0  0  0  0  0  0  0
   -0.8347   -0.7211   -4.6729 H   0  0  0  0  0  0  0  0  0  0  0  0
    2.1613   -1.3839   -4.6334 H   0  0  0  0  0  0  0  0  0  0  0  0
    1.2378   -0.8764   -6.0654 H   0  0  0  0  0  0  0  0  0  0  0  0
    1.4652    0.2490   -4.7129 H   0  0  0  0  0  0  0  0  0  0  0  0
   -0.8426   -3.0423   -5.9711 N   0  0  0  0  0  0  0  0  0  0  0  0
   -1.1252   -4.3882   -6.4511 C   0  0  0  0  0  0  0  0  0  0  0  0
   -1.1448   -2.2459   -6.5244 H   0  0  0  0  0  0  0  0  0  0  0  0
   -0.1959   -4.9550   -6.5698 H   0  0  0  0  0  0  0  0  0  0  0  0
   -1.7744   -4.9174   -5.7458 H   0  0  0  0  0  0  0  0  0  0  0  0
   -1.6303   -4.3448   -7.4205 H   0  0  0  0  0  0  0  0  0  0  0  0
  1  2  2  0  0  0  0
  1  3  1  0  0  0  0
  1  7  1  0  0  0  0
  3  4  1  0  0  0  0
  3  5  1  0  0  0  0
  3  6  1  0  0  0  0
  7  8  1  0  0  0  0
  7 12  1  0  0  0  0
  8  9  1  0  0  0  0
  8 11  1  0  0  0  0
  8 13  1  0  0  0  0
  9 10  2  0  0  0  0
  9 17  1  0  0  0  0
 11 14  1  0  0  0  0
 11 15  1  0  0  0  0
 11 16  1  0  0  0  0
 17 18  1  0  0  0  0
 17 26  1  0  0  0  0
 18 19  1  0  0  0  0
 18 21  1  0  0  0  0
 18 27  1  0  0  0  0
 19 20  2  0  0  0  0
 19 32  1  0  0  0  0
 21 22  1  0  0  0  0
 21 28  1  0  0  0  0
 21 29  1  0  0  0  0
 22 23  1  0  0  0  0
 22 30  1  0  0  0  0
 22 31  1  0  0  0  0
 23 24  1  0  0  0  0
 23 25  2  0  0  0  0
 32 33  1  0  0  0  0
 32 37  1  0  0  0  0
 33 34  1  0  0  0  0
 33 36  1  0  0  0  0
 33 38  1  0  0  0  0
 34 35  2  0  0  0  0
 34 42  1  0  0  0  0
 36 39  1  0  0  0  0
 36 40  1  0  0  0  0
 36 41  1  0  0  0  0
 42 43  1  0  0  0  0
 42 44  1  0  0  0  0
 43 45  1  0  0  0  0
 43 46  1  0  0  0  0
 43 47  1  0  0  0  0
M  CHG  1  24  -1
M  END
$$$$

  -OEChem-05262216243D

 47 46  0     1  0  0  0  0  0999 V2000
    0.2561   -5.7447    1.8094 C   0  0  0  0  0  0  0  0  0  0  0  0
    1.1734   -5.6928    2.6138 O   0  0  0  0  0  0  0  0  0  0  0  0
   -0.7576   -6.8715    1.8858 C   0  0  0  0  0  0  0  0  0  0  0  0
   -0.8228   -7.3809    0.9210 H   0  0  0  0  0  0  0  0  0  0  0  0
   -0.4597   -7.5967    2.6482 H   0  0  0  0  0  0  0  0  0  0  0  0
   -1.7403   -6.4700    2.1454 H   0  0  0  0  0  0  0  0  0  0  0  0
    0.1271   -4.7817    0.8328 N   0  0  0  0  0  0  0  0  0  0  0  0
    0.9332   -3.5571    0.7487 C   0  0  2  0  0  0  0  0  0  0  0  0
    0.1398   -2.4231    0.0661 C   0  0  0  0  0  0  0  0  0  0  0  0
   -0.9631   -2.6520   -0.4219 O   0  0  0  0  0  0  0  0  0  0  0  0
    2.2117   -3.8654   -0.0380 C   0  0  0  0  0  0  0  0  0  0  0  0
   -0.7190   -4.8030    0.2632 H   0  0  0  0  0  0  0  0  0  0  0  0
    1.1980   -3.2163    1.7555 H   0  0  0  0  0  0  0  0  0  0  0  0
    1.9654   -4.1820   -1.0568 H   0  0  0  0  0  0  0  0  0  0  0  0
    2.8528   -2.9803   -0.0929 H   0  0  0  0  0  0  0  0  0  0  0  0
    2.7753   -4.6665    0.4505 H   0  0  0  0  0  0  0  0  0  0  0  0
    0.6732   -1.1561   -0.0596 N   0  0  0  0  0  0  0  0  0  0  0  0
   -0.0420    0.0105   -0.6083 C   0  0  2  0  0  0  0  0  0  0  0  0
   -0.1851   -0.0275   -2.1548 C   0  0  0  0  0  0  0  0  0  0  0  0
   -0.2199    0.9978   -2.8262 O   0  0  0  0  0  0  0  0  0  0  0  0
    0.7408    1.2460   -0.1242 C   0  0  0  0  0  0  0  0  0  0  0  0
    0.6424    1.4142    1.4037 C   0  0  0  0  0  0  0  0  0  0  0  0
    1.4446    2.6269    1.8686 C   0  0  0  0  0  0  0  0  0  0  0  0
    2.6962    2.5309    1.8140 O   0  5  0  0  0  0  0  0  0  0  0  0
    0.8173    3.6294    2.2881 O   0  0  0  0  0  0  0  0  0  0  0  0
    1.5441   -0.9700    0.4338 H   0  0  0  0  0  0  0  0  0  0  0  0
   -1.0547    0.0516   -0.1942 H   0  0  0  0  0  0  0  0  0  0  0  0
    0.3323    2.1492   -0.5907 H   0  0  0  0  0  0  0  0  0  0  0  0
    1.7906    1.1679   -0.4282 H   0  0  0  0  0  0  0  0  0  0  0  0
   -0.4050    1.5349    1.6951 H   0  0  0  0  0  0  0  0  0  0  0  0
    1.0311    0.5296    1.9150 H   0  0  0  0  0  0  0  0  0  0  0  0
   -0.2630   -1.2335   -2.8272 N   0  0  0  0  0  0  0  0  0  0  0  0
   -0.4037   -1.3826   -4.2801 C   0  0  2  0  0  0  0  0  0  0  0  0
   -1.0178   -2.7396   -4.6819 C   0  0  0  0  0  0  0  0  0  0  0  0
   -0.8629   -3.7375   -3.9863 O   0  0  0  0  0  0  0  0  0  0  0  0
    0.9777   -1.2300   -4.9266 C   0  0  0  0  0  0  0  0  0  0  0  0
   -0.4343   -2.0566   -2.2416 H   0  0  0  0  0  0  0  0  0  0  0  0
   -1.0674   -0.5972   -4.6562 H   0  0  0  0  0  0  0  0  0  0  0  0
    1.6605   -1.9987   -4.5509 H   0  0  0  0  0  0  0  0  0  0  0  0
    0.9050   -1.3276   -6.0139 H   0  0  0  0  0  0  0  0  0  0  0  0
    1.4007   -0.2468   -4.6974 H   0  0  0  0  0  0  0  0  0  0  0  0
   -1.7205   -2.8502   -5.8689 N   0  0  0  0  0  0  0  0  0  0  0  0
   -2.3310   -4.0909   -6.3277 C   0  0  0  0  0  0  0  0  0  0  0  0
   -1.8517   -2.0034   -6.4142 H   0  0  0  0  0  0  0  0  0  0  0  0
   -1.5714   -4.8709   -6.4455 H   0  0  0  0  0  0  0  0  0  0  0  0
   -3.0829   -4.4354   -5.6101 H   0  0  0  0  0  0  0  0  0  0  0  0
   -2.8193   -3.9361   -7.2945 H   0  0  0  0  0  0  0  0  0  0  0  0
  1  2  2  0  0  0  0
  1  3  1  0  0  0  0
  1  7  1  0  0  0  0
  3  4  1  0  0  0  0
  3  5  1  0  0  0  0
  3  6  1  0  0  0  0
  7  8  1  0  0  0  0
  7 12  1  0  0  0  0
  8  9  1  0  0  0  0
  8 11  1  0  0  0  0
  8 13  1  0  0  0  0
  9 10  2  0  0  0  0
  9 17  1  0  0  0  0
 11 14  1  0  0  0  0
 11 15  1  0  0  0  0
 11 16  1  0  0  0  0
 17 18  1  0  0  0  0
 17 26  1  0  0  0  0
 18 19  1  0  0  0  0
 18 21  1  0  0  0  0
 18 27  1  0  0  0  0
 19 20  2  0  0  0  0
 19 32  1  0  0  0  0
 21 22  1  0  0  0  0
 21 28  1  0  0  0  0
 21 29  1  0  0  0  0
 22 23  1  0  0  0  0
 22 30  1  0  0  0  0
 22 31  1  0  0  0  0
 23 24  1  0  0  0  0
 23 25  2  0  0  0  0
 32 33  1  0  0  0  0
 32 37  1  0  0  0  0
 33 34  1  0  0  0  0
 33 36  1  0  0  0  0
 33 38  1  0  0  0  0
 34 35  2  0  0  0  0
 34 42  1  0  0  0  0
 36 39  1  0  0  0  0
 36 40  1  0  0  0  0
 36 41  1  0  0  0  0
 42 43  1  0  0  0  0
 42 44  1  0  0  0  0
 43 45  1  0  0  0  0
 43 46  1  0  0  0  0
 43 47  1  0  0  0  0
M  CHG  1  24  -1
M  END
$$$$

  -OEChem-05262216243D

 47 46  0     1  0  0  0  0  0999 V2000
    0.3163   -5.7687    1.7302 C   0  0  0  0  0  0  0  0  0  0  0  0
    1.3042   -5.7594    2.4479 O   0  0  0  0  0  0  0  0  0  0  0  0
   -0.7104   -6.8784    1.8656 C   0  0  0  0  0  0  0  0  0  0  0  0
   -0.8851   -7.3465    0.8938 H   0  0  0  0  0  0  0  0  0  0  0  0
   -0.3535   -7.6400    2.5644 H   0  0  0  0  0  0  0  0  0  0  0  0
   -1.6528   -6.4698    2.2389 H   0  0  0  0  0  0  0  0  0  0  0  0
    0.1196   -4.7720    0.7999 N   0  0  0  0  0  0  0  0  0  0  0  0
    0.9351   -3.5564    0.6830 C   0  0  2  0  0  0  0  0  0  0  0  0
    0.1120   -2.4041    0.0683 C   0  0  0  0  0  0  0  0  0  0  0  0
   -1.0287   -2.6128   -0.3359 O   0  0  0  0  0  0  0  0  0  0  0  0
    2.1598   -3.8666   -0.1854 C   0  0  0  0  0  0  0  0  0  0  0  0
   -0.7741   -4.7610    0.3078 H   0  0  0  0  0  0  0  0  0  0  0  0
    1.2655   -3.2344    1.6766 H   0  0  0  0  0  0  0  0  0  0  0  0
    1.8483   -4.1784   -1.1875 H   0  0  0  0  0  0  0  0  0  0  0  0
    2.8012   -2.9847   -0.2778 H   0  0  0  0  0  0  0  0  0  0  0  0
    2.7497   -4.6720    0.2632 H   0  0  0  0  0  0  0  0  0  0  0  0
    0.6483   -1.1392   -0.0691 N   0  0  0  0  0  0  0  0  0  0  0  0
   -0.0712    0.0330   -0.5984 C   0  0  2  0  0  0  0  0  0  0  0  0
   -0.2445   -0.0122   -2.1412 C   0  0  0  0  0  0  0  0  0  0  0  0
   -0.0138    0.9594   -2.8528 O   0  0  0  0  0  0  0  0  0  0  0  0
    0.7134    1.2703   -0.1212 C   0  0  0  0  0  0  0  0  0  0  0  0
    0.6354    1.4328    1.4083 C   0  0  0  0  0  0  0  0  0  0  0  0
    1.4390    2.6474    1.8650 C   0  0  0  0  0  0  0  0  0  0  0  0
    2.6904    2.5369    1.8458 O   0  5  0  0  0  0  0  0  0  0  0  0
    0.8120    3.6691    2.2362 O   0  0  0  0  0  0  0  0  0  0  0  0
    1.5554   -0.9689    0.3600 H   0  0  0  0  0  0  0  0  0  0  0  0
   -1.0763    0.0746   -0.1667 H   0  0  0  0  0  0  0  0  0  0  0  0
    0.2937    2.1723   -0.5801 H   0  0  0  0  0  0  0  0  0  0  0  0
    1.7596    1.1979   -0.4393 H   0  0  0  0  0  0  0  0  0  0  0  0
   -0.4083    1.5486    1.7157 H   0  0  0  0  0  0  0  0  0  0  0  0
    1.0342    0.5476    1.9110 H   0  0  0  0  0  0  0  0  0  0  0  0
   -0.6481   -1.1774   -2.7672 N   0  0  0  0  0  0  0  0  0  0  0  0
   -0.7851   -1.3545   -4.2176 C   0  0  2  0  0  0  0  0  0  0  0  0
   -1.7473   -2.4996   -4.5950 C   0  0  0  0  0  0  0  0  0  0  0  0
   -1.8431   -3.5041   -3.8989 O   0  0  0  0  0  0  0  0  0  0  0  0
    0.6019   -1.6267   -4.8095 C   0  0  0  0  0  0  0  0  0  0  0  0
   -0.9146   -1.9540   -2.1520 H   0  0  0  0  0  0  0  0  0  0  0  0
   -1.1869   -0.4331   -4.6516 H   0  0  0  0  0  0  0  0  0  0  0  0
    1.0312   -2.5347   -4.3743 H   0  0  0  0  0  0  0  0  0  0  0  0
    0.5362   -1.7553   -5.8938 H   0  0  0  0  0  0  0  0  0  0  0  0
    1.2759   -0.7896   -4.6026 H   0  0  0  0  0  0  0  0  0  0  0  0
   -2.4803   -2.4230   -5.7663 N   0  0  0  0  0  0  0  0  0  0  0  0
   -3.4160   -3.4549   -6.1936 C   0  0  0  0  0  0  0  0  0  0  0  0
   -2.4058   -1.5671   -6.3082 H   0  0  0  0  0  0  0  0  0  0  0  0
   -2.8988   -4.4122   -6.3166 H   0  0  0  0  0  0  0  0  0  0  0  0
   -4.2144   -3.5774   -5.4542 H   0  0  0  0  0  0  0  0  0  0  0  0
   -3.8694   -3.1816   -7.1511 H   0  0  0  0  0  0  0  0  0  0  0  0
  1  2  2  0  0  0  0
  1  3  1  0  0  0  0
  1  7  1  0  0  0  0
  3  4  1  0  0  0  0
  3  5  1  0  0  0  0
  3  6  1  0  0  0  0
  7  8  1  0  0  0  0
  7 12  1  0  0  0  0
  8  9  1  0  0  0  0
  8 11  1  0  0  0  0
  8 13  1  0  0  0  0
  9 10  2  0  0  0  0
  9 17  1  0  0  0  0
 11 14  1  0  0  0  0
 11 15  1  0  0  0  0
 11 16  1  0  0  0  0
 17 18  1  0  0  0  0
 17 26  1  0  0  0  0
 18 19  1  0  0  0  0
 18 21  1  0  0  0  0
 18 27  1  0  0  0  0
 19 20  2  0  0  0  0
 19 32  1  0  0  0  0
 21 22  1  0  0  0  0
 21 28  1  0  0  0  0
 21 29  1  0  0  0  0
 22 23  1  0  0  0  0
 22 30  1  0  0  0  0
 22 31  1  0  0  0  0
 23 24  1  0  0  0  0
 23 25  2  0  0  0  0
 32 33  1  0  0  0  0
 32 37  1  0  0  0  0
 33 34  1  0  0  0  0
 33 36  1  0  0  0  0
 33 38  1  0  0  0  0
 34 35  2  0  0  0  0
 34 42  1  0  0  0  0
 36 39  1  0  0  0  0
 36 40  1  0  0  0  0
 36 41  1  0  0  0  0
 42 43  1  0  0  0  0
 42 44  1  0  0  0  0
 43 45  1  0  0  0  0
 43 46  1  0  0  0  0
 43 47  1  0  0  0  0
M  CHG  1  24  -1
M  END
$$$$

  -OEChem-05262216243D

 47 46  0     1  0  0  0  0  0999 V2000
    0.3602   -5.7570    1.6802 C   0  0  0  0  0  0  0  0  0  0  0  0
    1.3909   -5.7598    2.3349 O   0  0  0  0  0  0  0  0  0  0  0  0
   -0.6759   -6.8456    1.8919 C   0  0  0  0  0  0  0  0  0  0  0  0
   -0.8495   -7.3822    0.9560 H   0  0  0  0  0  0  0  0  0  0  0  0
   -0.3294   -7.5564    2.6475 H   0  0  0  0  0  0  0  0  0  0  0  0
   -1.6164   -6.4032    2.2295 H   0  0  0  0  0  0  0  0  0  0  0  0
    0.1256   -4.7666    0.7516 N   0  0  0  0  0  0  0  0  0  0  0  0
    0.9482   -3.5614    0.5853 C   0  0  2  0  0  0  0  0  0  0  0  0
    0.1029   -2.3968    0.0265 C   0  0  0  0  0  0  0  0  0  0  0  0
   -1.0533   -2.5989   -0.3361 O   0  0  0  0  0  0  0  0  0  0  0  0
    2.1098   -3.8840   -0.3605 C   0  0  0  0  0  0  0  0  0  0  0  0
   -0.7988   -4.7402    0.3203 H   0  0  0  0  0  0  0  0  0  0  0  0
    1.3467   -3.2469    1.5563 H   0  0  0  0  0  0  0  0  0  0  0  0
    1.7313   -4.1786   -1.3444 H   0  0  0  0  0  0  0  0  0  0  0  0
    2.7594   -3.0119   -0.4830 H   0  0  0  0  0  0  0  0  0  0  0  0
    2.7108   -4.7050    0.0427 H   0  0  0  0  0  0  0  0  0  0  0  0
    0.6335   -1.1280   -0.0978 N   0  0  0  0  0  0  0  0  0  0  0  0
   -0.1049    0.0492   -0.5845 C   0  0  2  0  0  0  0  0  0  0  0  0
   -0.3093    0.0179   -2.1216 C   0  0  0  0  0  0  0  0  0  0  0  0
    0.1438    0.8850   -2.8611 O   0  0  0  0  0  0  0  0  0  0  0  0
    0.6757    1.2889   -0.1082 C   0  0  0  0  0  0  0  0  0  0  0  0
    0.6327    1.4240    1.4244 C   0  0  0  0  0  0  0  0  0  0  0  0
    1.4316    2.6412    1.8817 C   0  0  0  0  0  0  0  0  0  0  0  0
    2.6819    2.5214    1.9068 O   0  5  0  0  0  0  0  0  0  0  0  0
    0.8011    3.6787    2.1994 O   0  0  0  0  0  0  0  0  0  0  0  0
    1.5592   -0.9663    0.2931 H   0  0  0  0  0  0  0  0  0  0  0  0
   -1.1003    0.0775   -0.1294 H   0  0  0  0  0  0  0  0  0  0  0  0
    0.2335    2.1912   -0.5456 H   0  0  0  0  0  0  0  0  0  0  0  0
    1.7152    1.2348   -0.4511 H   0  0  0  0  0  0  0  0  0  0  0  0
   -0.4043    1.5221    1.7591 H   0  0  0  0  0  0  0  0  0  0  0  0
    1.0535    0.5348    1.9012 H   0  0  0  0  0  0  0  0  0  0  0  0
   -1.0031   -1.0264   -2.7044 N   0  0  0  0  0  0  0  0  0  0  0  0
   -1.1434   -1.2356   -4.1505 C   0  0  2  0  0  0  0  0  0  0  0  0
   -2.3825   -2.0769   -4.5204 C   0  0  0  0  0  0  0  0  0  0  0  0
   -2.7218   -3.0381   -3.8398 O   0  0  0  0  0  0  0  0  0  0  0  0
    0.1254   -1.9210   -4.6667 C   0  0  0  0  0  0  0  0  0  0  0  0
   -1.3200   -1.7681   -2.0694 H   0  0  0  0  0  0  0  0  0  0  0  0
   -1.2501   -0.2636   -4.6431 H   0  0  0  0  0  0  0  0  0  0  0  0
    0.2556   -2.8951   -4.1845 H   0  0  0  0  0  0  0  0  0  0  0  0
    0.0647   -2.0712   -5.7485 H   0  0  0  0  0  0  0  0  0  0  0  0
    1.0048   -1.3057   -4.4527 H   0  0  0  0  0  0  0  0  0  0  0  0
   -3.0914   -1.7886   -5.6738 N   0  0  0  0  0  0  0  0  0  0  0  0
   -4.2773   -2.5259   -6.0899 C   0  0  0  0  0  0  0  0  0  0  0  0
   -2.8180   -0.9596   -6.1934 H   0  0  0  0  0  0  0  0  0  0  0  0
   -4.0429   -3.5877   -6.2186 H   0  0  0  0  0  0  0  0  0  0  0  0
   -5.0705   -2.4275   -5.3416 H   0  0  0  0  0  0  0  0  0  0  0  0
   -4.6484   -2.1369   -7.0427 H   0  0  0  0  0  0  0  0  0  0  0  0
  1  2  2  0  0  0  0
  1  3  1  0  0  0  0
  1  7  1  0  0  0  0
  3  4  1  0  0  0  0
  3  5  1  0  0  0  0
  3  6  1  0  0  0  0
  7  8  1  0  0  0  0
  7 12  1  0  0  0  0
  8  9  1  0  0  0  0
  8 11  1  0  0  0  0
  8 13  1  0  0  0  0
  9 10  2  0  0  0  0
  9 17  1  0  0  0  0
 11 14  1  0  0  0  0
 11 15  1  0  0  0  0
 11 16  1  0  0  0  0
 17 18  1  0  0  0  0
 17 26  1  0  0  0  0
 18 19  1  0  0  0  0
 18 21  1  0  0  0  0
 18 27  1  0  0  0  0
 19 20  2  0  0  0  0
 19 32  1  0  0  0  0
 21 22  1  0  0  0  0
 21 28  1  0  0  0  0
 21 29  1  0  0  0  0
 22 23  1  0  0  0  0
 22 30  1  0  0  0  0
 22 31  1  0  0  0  0
 23 24  1  0  0  0  0
 23 25  2  0  0  0  0
 32 33  1  0  0  0  0
 32 37  1  0  0  0  0
 33 34  1  0  0  0  0
 33 36  1  0  0  0  0
 33 38  1  0  0  0  0
 34 35  2  0  0  0  0
 34 42  1  0  0  0  0
 36 39  1  0  0  0  0
 36 40  1  0  0  0  0
 36 41  1  0  0  0  0
 42 43  1  0  0  0  0
 42 44  1  0  0  0  0
 43 45  1  0  0  0  0
 43 46  1  0  0  0  0
 43 47  1  0  0  0  0
M  CHG  1  24  -1
M  END
$$$$

  -OEChem-05262216243D

 47 46  0     1  0  0  0  0  0999 V2000
    0.3683   -5.7685    1.5963 C   0  0  0  0  0  0  0  0  0  0  0  0
    1.4045   -5.7867    2.2420 O   0  0  0  0  0  0  0  0  0  0  0  0
   -0.6751   -6.8508    1.8063 C   0  0  0  0  0  0  0  0  0  0  0  0
   -0.8907   -7.3513    0.8591 H   0  0  0  0  0  0  0  0  0  0  0  0
   -0.3108   -7.5929    2.5222 H   0  0  0  0  0  0  0  0  0  0  0  0
   -1.5963   -6.4088    2.1946 H   0  0  0  0  0  0  0  0  0  0  0  0
    0.1309   -4.7634    0.6840 N   0  0  0  0  0  0  0  0  0  0  0  0
    0.9527   -3.5547    0.5358 C   0  0  2  0  0  0  0  0  0  0  0  0
    0.1079   -2.3838   -0.0106 C   0  0  0  0  0  0  0  0  0  0  0  0
   -1.0491   -2.5819   -0.3762 O   0  0  0  0  0  0  0  0  0  0  0  0
    2.1218   -3.8597   -0.4073 C   0  0  0  0  0  0  0  0  0  0  0  0
   -0.7994   -4.7243    0.2670 H   0  0  0  0  0  0  0  0  0  0  0  0
    1.3452   -3.2522    1.5129 H   0  0  0  0  0  0  0  0  0  0  0  0
    1.7512   -4.1391   -1.3986 H   0  0  0  0  0  0  0  0  0  0  0  0
    2.7697   -2.9840   -0.5111 H   0  0  0  0  0  0  0  0  0  0  0  0
    2.7230   -4.6853   -0.0139 H   0  0  0  0  0  0  0  0  0  0  0  0
    0.6370   -1.1129   -0.1173 N   0  0  0  0  0  0  0  0  0  0  0  0
   -0.1201    0.0620   -0.5739 C   0  0  2  0  0  0  0  0  0  0  0  0
   -0.3388    0.0376   -2.1058 C   0  0  0  0  0  0  0  0  0  0  0  0
    0.3012    0.7495   -2.8726 O   0  0  0  0  0  0  0  0  0  0  0  0
    0.6484    1.3110   -0.1068 C   0  0  0  0  0  0  0  0  0  0  0  0
    0.6360    1.4381    1.4266 C   0  0  0  0  0  0  0  0  0  0  0  0
    1.4242    2.6672    1.8701 C   0  0  0  0  0  0  0  0  0  0  0  0
    2.6710    2.5427    1.9557 O   0  5  0  0  0  0  0  0  0  0  0  0
    0.7878    3.7226    2.1073 O   0  0  0  0  0  0  0  0  0  0  0  0
    1.5651   -0.9513    0.2680 H   0  0  0  0  0  0  0  0  0  0  0  0
   -1.1084    0.0759   -0.1027 H   0  0  0  0  0  0  0  0  0  0  0  0
    0.1838    2.2065   -0.5346 H   0  0  0  0  0  0  0  0  0  0  0  0
    1.6822    1.2741   -0.4690 H   0  0  0  0  0  0  0  0  0  0  0  0
   -0.3949    1.5189    1.7846 H   0  0  0  0  0  0  0  0  0  0  0  0
    1.0810    0.5528    1.8894 H   0  0  0  0  0  0  0  0  0  0  0  0
   -1.2748   -0.8274   -2.6400 N   0  0  0  0  0  0  0  0  0  0  0  0
   -1.4652   -1.0567   -4.0767 C   0  0  2  0  0  0  0  0  0  0  0  0
   -2.8993   -1.5014   -4.4307 C   0  0  0  0  0  0  0  0  0  0  0  0
   -3.5012   -2.3139   -3.7376 O   0  0  0  0  0  0  0  0  0  0  0  0
   -0.4547   -2.1137   -4.5312 C   0  0  0  0  0  0  0  0  0  0  0  0
   -1.6603   -1.5176   -1.9866 H   0  0  0  0  0  0  0  0  0  0  0  0
   -1.2727   -0.1251   -4.6185 H   0  0  0  0  0  0  0  0  0  0  0  0
   -0.6188   -3.0535   -3.9943 H   0  0  0  0  0  0  0  0  0  0  0  0
   -0.5550   -2.3013   -5.6042 H   0  0  0  0  0  0  0  0  0  0  0  0
    0.5663   -1.7727   -4.3333 H   0  0  0  0  0  0  0  0  0  0  0  0
   -3.5003   -1.0257   -5.5832 N   0  0  0  0  0  0  0  0  0  0  0  0
   -4.8598   -1.3699   -5.9785 C   0  0  0  0  0  0  0  0  0  0  0  0
   -3.0026   -0.3094   -6.1042 H   0  0  0  0  0  0  0  0  0  0  0  0
   -4.9698   -2.4556   -6.0695 H   0  0  0  0  0  0  0  0  0  0  0  0
   -5.5780   -1.0027   -5.2380 H   0  0  0  0  0  0  0  0  0  0  0  0
   -5.0968   -0.9183   -6.9463 H   0  0  0  0  0  0  0  0  0  0  0  0
  1  2  2  0  0  0  0
  1  3  1  0  0  0  0
  1  7  1  0  0  0  0
  3  4  1  0  0  0  0
  3  5  1  0  0  0  0
  3  6  1  0  0  0  0
  7  8  1  0  0  0  0
  7 12  1  0  0  0  0
  8  9  1  0  0  0  0
  8 11  1  0  0  0  0
  8 13  1  0  0  0  0
  9 10  2  0  0  0  0
  9 17  1  0  0  0  0
 11 14  1  0  0  0  0
 11 15  1  0  0  0  0
 11 16  1  0  0  0  0
 17 18  1  0  0  0  0
 17 26  1  0  0  0  0
 18 19  1  0  0  0  0
 18 21  1  0  0  0  0
 18 27  1  0  0  0  0
 19 20  2  0  0  0  0
 19 32  1  0  0  0  0
 21 22  1  0  0  0  0
 21 28  1  0  0  0  0
 21 29  1  0  0  0  0
 22 23  1  0  0  0  0
 22 30  1  0  0  0  0
 22 31  1  0  0  0  0
 23 24  1  0  0  0  0
 23 25  2  0  0  0  0
 32 33  1  0  0  0  0
 32 37  1  0  0  0  0
 33 34  1  0  0  0  0
 33 36  1  0  0  0  0
 33 38  1  0  0  0  0
 34 35  2  0  0  0  0
 34 42  1  0  0  0  0
 36 39  1  0  0  0  0
 36 40  1  0  0  0  0
 36 41  1  0  0  0  0
 42 43  1  0  0  0  0
 42 44  1  0  0  0  0
 43 45  1  0  0  0  0
 43 46  1  0  0  0  0
 43 47  1  0  0  0  0
M  CHG  1  24  -1
M  END
$$$$

  -OEChem-05262216243D

 47 46  0     1  0  0  0  0  0999 V2000
    0.3256   -5.7574    1.5646 C   0  0  0  0  0  0  0  0  0  0  0  0
    1.3918   -5.8040    2.1579 O   0  0  0  0  0  0  0  0  0  0  0  0
   -0.7290   -6.8191    1.8189 C   0  0  0  0  0  0  0  0  0  0  0  0
   -0.9744   -7.3314    0.8855 H   0  0  0  0  0  0  0  0  0  0  0  0
   -0.3591   -7.5551    2.5385 H   0  0  0  0  0  0  0  0  0  0  0  0
   -1.6337   -6.3567    2.2216 H   0  0  0  0  0  0  0  0  0  0  0  0
    0.0693   -4.7428    0.6676 N   0  0  0  0  0  0  0  0  0  0  0  0
    0.9255   -3.5660    0.4666 C   0  0  2  0  0  0  0  0  0  0  0  0
    0.1030   -2.3687   -0.0557 C   0  0  0  0  0  0  0  0  0  0  0  0
   -1.0593   -2.5346   -0.4217 O   0  0  0  0  0  0  0  0  0  0  0  0
    2.0376   -3.9237   -0.5257 C   0  0  0  0  0  0  0  0  0  0  0  0
   -0.8751   -4.6810    0.2871 H   0  0  0  0  0  0  0  0  0  0  0  0
    1.3726   -3.2684    1.4214 H   0  0  0  0  0  0  0  0  0  0  0  0
    1.6101   -4.2187   -1.4891 H   0  0  0  0  0  0  0  0  0  0  0  0
    2.6999   -3.0674   -0.6860 H   0  0  0  0  0  0  0  0  0  0  0  0
    2.6384   -4.7540   -0.1414 H   0  0  0  0  0  0  0  0  0  0  0  0
    0.6537   -1.1045   -0.1252 N   0  0  0  0  0  0  0  0  0  0  0  0
   -0.0959    0.0855   -0.5474 C   0  0  2  0  0  0  0  0  0  0  0  0
   -0.3135    0.0939   -2.0769 C   0  0  0  0  0  0  0  0  0  0  0  0
    0.4814    0.6222   -2.8476 O   0  0  0  0  0  0  0  0  0  0  0  0
    0.6751    1.3251   -0.0627 C   0  0  0  0  0  0  0  0  0  0  0  0
    0.6712    1.4203    1.4726 C   0  0  0  0  0  0  0  0  0  0  0  0
    1.4613    2.6406    1.9358 C   0  0  0  0  0  0  0  0  0  0  0  0
    2.6820    2.4728    2.1782 O   0  5  0  0  0  0  0  0  0  0  0  0
    0.8546    3.7364    2.0180 O   0  0  0  0  0  0  0  0  0  0  0  0
    1.5910   -0.9669    0.2462 H   0  0  0  0  0  0  0  0  0  0  0  0
   -1.0821    0.0954   -0.0716 H   0  0  0  0  0  0  0  0  0  0  0  0
    0.2095    2.2285   -0.4728 H   0  0  0  0  0  0  0  0  0  0  0  0
    1.7075    1.2936   -0.4292 H   0  0  0  0  0  0  0  0  0  0  0  0
   -0.3571    1.4957    1.8385 H   0  0  0  0  0  0  0  0  0  0  0  0
    1.1157    0.5238    1.9139 H   0  0  0  0  0  0  0  0  0  0  0  0
   -1.4440   -0.5060   -2.5970 N   0  0  0  0  0  0  0  0  0  0  0  0
   -1.7165   -0.6538   -4.0311 C   0  0  2  0  0  0  0  0  0  0  0  0
   -3.2212   -0.7926   -4.3415 C   0  0  0  0  0  0  0  0  0  0  0  0
   -3.9765   -1.3752   -3.5713 O   0  0  0  0  0  0  0  0  0  0  0  0
   -0.9576   -1.8812   -4.5447 C   0  0  0  0  0  0  0  0  0  0  0  0
   -1.9642   -1.1035   -1.9497 H   0  0  0  0  0  0  0  0  0  0  0  0
   -1.3562    0.2357   -4.5581 H   0  0  0  0  0  0  0  0  0  0  0  0
   -1.2891   -2.7817   -4.0177 H   0  0  0  0  0  0  0  0  0  0  0  0
   -1.1317   -2.0180   -5.6160 H   0  0  0  0  0  0  0  0  0  0  0  0
    0.1179   -1.7586   -4.3830 H   0  0  0  0  0  0  0  0  0  0  0  0
   -3.7275   -0.2926   -5.5286 N   0  0  0  0  0  0  0  0  0  0  0  0
   -5.1395   -0.3500   -5.8835 C   0  0  0  0  0  0  0  0  0  0  0  0
   -3.0921    0.2357   -6.1191 H   0  0  0  0  0  0  0  0  0  0  0  0
   -5.4868   -1.3883   -5.9074 H   0  0  0  0  0  0  0  0  0  0  0  0
   -5.7394    0.2069   -5.1561 H   0  0  0  0  0  0  0  0  0  0  0  0
   -5.2979    0.0892   -6.8730 H   0  0  0  0  0  0  0  0  0  0  0  0
  1  2  2  0  0  0  0
  1  3  1  0  0  0  0
  1  7  1  0  0  0  0
  3  4  1  0  0  0  0
  3  5  1  0  0  0  0
  3  6  1  0  0  0  0
  7  8  1  0  0  0  0
  7 12  1  0  0  0  0
  8  9  1  0  0  0  0
  8 11  1  0  0  0  0
  8 13  1  0  0  0  0
  9 10  2  0  0  0  0
  9 17  1  0  0  0  0
 11 14  1  0  0  0  0
 11 15  1  0  0  0  0
 11 16  1  0  0  0  0
 17 18  1  0  0  0  0
 17 26  1  0  0  0  0
 18 19  1  0  0  0  0
 18 21  1  0  0  0  0
 18 27  1  0  0  0  0
 19 20  2  0  0  0  0
 19 32  1  0  0  0  0
 21 22  1  0  0  0  0
 21 28  1  0  0  0  0
 21 29  1  0  0  0  0
 22 23  1  0  0  0  0
 22 30  1  0  0  0  0
 22 31  1  0  0  0  0
 23 24  1  0  0  0  0
 23 25  2  0  0  0  0
 32 33  1  0  0  0  0
 32 37  1  0  0  0  0
 33 34  1  0  0  0  0
 33 36  1  0  0  0  0
 33 38  1  0  0  0  0
 34 35  2  0  0  0  0
 34 42  1  0  0  0  0
 36 39  1  0  0  0  0
 36 40  1  0  0  0  0
 36 41  1  0  0  0  0
 42 43  1  0  0  0  0
 42 44  1  0  0  0  0
 43 45  1  0  0  0  0
 43 46  1  0  0  0  0
 43 47  1  0  0  0  0
M  CHG  1  24  -1
M  END
$$$$

  -OEChem-05262216243D

 47 46  0     1  0  0  0  0  0999 V2000
    0.3212   -5.7737    1.5192 C   0  0  0  0  0  0  0  0  0  0  0  0
    1.4009   -5.8383    2.0859 O   0  0  0  0  0  0  0  0  0  0  0  0
   -0.7377   -6.8286    1.7812 C   0  0  0  0  0  0  0  0  0  0  0  0
   -0.9823   -7.3500    0.8526 H   0  0  0  0  0  0  0  0  0  0  0  0
   -0.3731   -7.5573    2.5104 H   0  0  0  0  0  0  0  0  0  0  0  0
   -1.6420   -6.3584    2.1752 H   0  0  0  0  0  0  0  0  0  0  0  0
    0.0531   -4.7486    0.6384 N   0  0  0  0  0  0  0  0  0  0  0  0
    0.9112   -3.5747    0.4321 C   0  0  2  0  0  0  0  0  0  0  0  0
    0.0785   -2.3590   -0.0278 C   0  0  0  0  0  0  0  0  0  0  0  0
   -1.0986   -2.5068   -0.3513 O   0  0  0  0  0  0  0  0  0  0  0  0
    1.9776   -3.9193   -0.6130 C   0  0  0  0  0  0  0  0  0  0  0  0
   -0.9008   -4.6723    0.2857 H   0  0  0  0  0  0  0  0  0  0  0  0
    1.3995   -3.3032    1.3746 H   0  0  0  0  0  0  0  0  0  0  0  0
    1.5079   -4.1873   -1.5647 H   0  0  0  0  0  0  0  0  0  0  0  0
    2.6414   -3.0657   -0.7807 H   0  0  0  0  0  0  0  0  0  0  0  0
    2.5843   -4.7641   -0.2725 H   0  0  0  0  0  0  0  0  0  0  0  0
    0.6388   -1.0992   -0.0880 N   0  0  0  0  0  0  0  0  0  0  0  0
   -0.1000    0.0984   -0.5036 C   0  0  2  0  0  0  0  0  0  0  0  0
   -0.3138    0.1169   -2.0324 C   0  0  0  0  0  0  0  0  0  0  0  0
    0.6016    0.3789   -2.8067 O   0  0  0  0  0  0  0  0  0  0  0  0
    0.6800    1.3358   -0.0297 C   0  0  0  0  0  0  0  0  0  0  0  0
    0.6908    1.4408    1.5049 C   0  0  0  0  0  0  0  0  0  0  0  0
    1.4904    2.6602    1.9561 C   0  0  0  0  0  0  0  0  0  0  0  0
    2.6936    2.4754    2.2649 O   0  5  0  0  0  0  0  0  0  0  0  0
    0.9096    3.7734    1.9566 O   0  0  0  0  0  0  0  0  0  0  0  0
    1.6060   -0.9852    0.2053 H   0  0  0  0  0  0  0  0  0  0  0  0
   -1.0838    0.1138   -0.0231 H   0  0  0  0  0  0  0  0  0  0  0  0
    0.2150    2.2390   -0.4405 H   0  0  0  0  0  0  0  0  0  0  0  0
    1.7088    1.2975   -0.4052 H   0  0  0  0  0  0  0  0  0  0  0  0
   -0.3333    1.5244    1.8802 H   0  0  0  0  0  0  0  0  0  0  0  0
    1.1339    0.5442    1.9471 H   0  0  0  0  0  0  0  0  0  0  0  0
   -1.5602   -0.1765   -2.5517 N   0  0  0  0  0  0  0  0  0  0  0  0
   -1.8615   -0.2696   -3.9842 C   0  0  2  0  0  0  0  0  0  0  0  0
   -3.3520   -0.0192   -4.2927 C   0  0  0  0  0  0  0  0  0  0  0  0
   -4.2240   -0.3246   -3.4864 O   0  0  0  0  0  0  0  0  0  0  0  0
   -1.4468   -1.6592   -4.4781 C   0  0  0  0  0  0  0  0  0  0  0  0
   -2.2524   -0.5409   -1.8969 H   0  0  0  0  0  0  0  0  0  0  0  0
   -1.2846    0.4900   -4.5217 H   0  0  0  0  0  0  0  0  0  0  0  0
   -1.9992   -2.4355   -3.9390 H   0  0  0  0  0  0  0  0  0  0  0  0
   -1.6512   -1.7621   -5.5478 H   0  0  0  0  0  0  0  0  0  0  0  0
   -0.3763   -1.8176   -4.3142 H   0  0  0  0  0  0  0  0  0  0  0  0
   -3.7215    0.5273   -5.5090 N   0  0  0  0  0  0  0  0  0  0  0  0
   -5.1014    0.8348   -5.8616 C   0  0  0  0  0  0  0  0  0  0  0  0
   -2.9759    0.8230   -6.1322 H   0  0  0  0  0  0  0  0  0  0  0  0
   -5.7162   -0.0707   -5.8278 H   0  0  0  0  0  0  0  0  0  0  0  0
   -5.5187    1.5712   -5.1669 H   0  0  0  0  0  0  0  0  0  0  0  0
   -5.1498    1.2474   -6.8738 H   0  0  0  0  0  0  0  0  0  0  0  0
  1  2  2  0  0  0  0
  1  3  1  0  0  0  0
  1  7  1  0  0  0  0
  3  4  1  0  0  0  0
  3  5  1  0  0  0  0
  3  6  1  0  0  0  0
  7  8  1  0  0  0  0
  7 12  1  0  0  0  0
  8  9  1  0  0  0  0
  8 11  1  0  0  0  0
  8 13  1  0  0  0  0
  9 10  2  0  0  0  0
  9 17  1  0  0  0  0
 11 14  1  0  0  0  0
 11 15  1  0  0  0  0
 11 16  1  0  0  0  0
 17 18  1  0  0  0  0
 17 26  1  0  0  0  0
 18 19  1  0  0  0  0
 18 21  1  0  0  0  0
 18 27  1  0  0  0  0
 19 20  2  0  0  0  0
 19 32  1  0  0  0  0
 21 22  1  0  0  0  0
 21 28  1  0  0  0  0
 21 29  1  0  0  0  0
 22 23  1  0  0  0  0
 22 30  1  0  0  0  0
 22 31  1  0  0  0  0
 23 24  1  0  0  0  0
 23 25  2  0  0  0  0
 32 33  1  0  0  0  0
 32 37  1  0  0  0  0
 33 34  1  0  0  0  0
 33 36  1  0  0  0  0
 33 38  1  0  0  0  0
 34 35  2  0  0  0  0
 34 42  1  0  0  0  0
 36 39  1  0  0  0  0
 36 40  1  0  0  0  0
 36 41  1  0  0  0  0
 42 43  1  0  0  0  0
 42 44  1  0  0  0  0
 43 45  1  0  0  0  0
 43 46  1  0  0  0  0
 43 47  1  0  0  0  0
M  CHG  1  24  -1
M  END
$$$$

  -OEChem-05262216243D

 47 46  0     1  0  0  0  0  0999 V2000
    0.3451   -5.8186    1.4732 C   0  0  0  0  0  0  0  0  0  0  0  0
    1.4560   -5.9090    1.9715 O   0  0  0  0  0  0  0  0  0  0  0  0
   -0.7046   -6.8744    1.7673 C   0  0  0  0  0  0  0  0  0  0  0  0
   -1.0123   -7.3630    0.8396 H   0  0  0  0  0  0  0  0  0  0  0  0
   -0.3007   -7.6294    2.4477 H   0  0  0  0  0  0  0  0  0  0  0  0
   -1.5773   -6.4109    2.2339 H   0  0  0  0  0  0  0  0  0  0  0  0
    0.0327   -4.7619    0.6461 N   0  0  0  0  0  0  0  0  0  0  0  0
    0.8873   -3.5877    0.4260 C   0  0  2  0  0  0  0  0  0  0  0  0
    0.0409   -2.3574    0.0361 C   0  0  0  0  0  0  0  0  0  0  0  0
   -1.1526   -2.4918   -0.2262 O   0  0  0  0  0  0  0  0  0  0  0  0
    1.9011   -3.9092   -0.6772 C   0  0  0  0  0  0  0  0  0  0  0  0
   -0.9402   -4.6663    0.3554 H   0  0  0  0  0  0  0  0  0  0  0  0
    1.4216   -3.3407    1.3498 H   0  0  0  0  0  0  0  0  0  0  0  0
    1.3857   -4.1481   -1.6128 H   0  0  0  0  0  0  0  0  0  0  0  0
    2.5615   -3.0545   -0.8523 H   0  0  0  0  0  0  0  0  0  0  0  0
    2.5183   -4.7658   -0.3893 H   0  0  0  0  0  0  0  0  0  0  0  0
    0.6099   -1.1020   -0.0268 N   0  0  0  0  0  0  0  0  0  0  0  0
   -0.1141    0.0989   -0.4592 C   0  0  2  0  0  0  0  0  0  0  0  0
   -0.3135    0.1157   -1.9895 C   0  0  0  0  0  0  0  0  0  0  0  0
    0.6468    0.0848   -2.7537 O   0  0  0  0  0  0  0  0  0  0  0  0
    0.6710    1.3388   -0.0051 C   0  0  0  0  0  0  0  0  0  0  0  0
    0.6823    1.4720    1.5270 C   0  0  0  0  0  0  0  0  0  0  0  0
    1.4884    2.6962    1.9545 C   0  0  0  0  0  0  0  0  0  0  0  0
    2.6361    2.4980    2.4237 O   0  5  0  0  0  0  0  0  0  0  0  0
    0.9733    3.8259    1.7663 O   0  0  0  0  0  0  0  0  0  0  0  0
    1.6036   -1.0141    0.1691 H   0  0  0  0  0  0  0  0  0  0  0  0
   -1.1005    0.1246    0.0151 H   0  0  0  0  0  0  0  0  0  0  0  0
    0.2104    2.2370   -0.4314 H   0  0  0  0  0  0  0  0  0  0  0  0
    1.6998    1.2891   -0.3790 H   0  0  0  0  0  0  0  0  0  0  0  0
   -0.3406    1.5685    1.9022 H   0  0  0  0  0  0  0  0  0  0  0  0
    1.1208    0.5799    1.9838 H   0  0  0  0  0  0  0  0  0  0  0  0
   -1.5872    0.1448   -2.5251 N   0  0  0  0  0  0  0  0  0  0  0  0
   -1.8905    0.1362   -3.9604 C   0  0  2  0  0  0  0  0  0  0  0  0
   -3.2609    0.7722   -4.2718 C   0  0  0  0  0  0  0  0  0  0  0  0
   -4.1641    0.7541   -3.4426 O   0  0  0  0  0  0  0  0  0  0  0  0
   -1.8577   -1.3129   -4.4558 C   0  0  0  0  0  0  0  0  0  0  0  0
   -2.3708    0.1082   -1.8746 H   0  0  0  0  0  0  0  0  0  0  0  0
   -1.1299    0.7171   -4.4928 H   0  0  0  0  0  0  0  0  0  0  0  0
   -2.5974   -1.9160   -3.9193 H   0  0  0  0  0  0  0  0  0  0  0  0
   -2.0794   -1.3572   -5.5261 H   0  0  0  0  0  0  0  0  0  0  0  0
   -0.8675   -1.7487   -4.2898 H   0  0  0  0  0  0  0  0  0  0  0  0
   -3.4906    1.3523   -5.5069 N   0  0  0  0  0  0  0  0  0  0  0  0
   -4.7394    2.0159   -5.8584 C   0  0  0  0  0  0  0  0  0  0  0  0
   -2.7056    1.4060   -6.1493 H   0  0  0  0  0  0  0  0  0  0  0  0
   -5.5778    1.3144   -5.7937 H   0  0  0  0  0  0  0  0  0  0  0  0
   -4.9296    2.8562   -5.1824 H   0  0  0  0  0  0  0  0  0  0  0  0
   -4.6883    2.3991   -6.8820 H   0  0  0  0  0  0  0  0  0  0  0  0
  1  2  2  0  0  0  0
  1  3  1  0  0  0  0
  1  7  1  0  0  0  0
  3  4  1  0  0  0  0
  3  5  1  0  0  0  0
  3  6  1  0  0  0  0
  7  8  1  0  0  0  0
  7 12  1  0  0  0  0
  8  9  1  0  0  0  0
  8 11  1  0  0  0  0
  8 13  1  0  0  0  0
  9 10  2  0  0  0  0
  9 17  1  0  0  0  0
 11 14  1  0  0  0  0
 11 15  1  0  0  0  0
 11 16  1  0  0  0  0
 17 18  1  0  0  0  0
 17 26  1  0  0  0  0
 18 19  1  0  0  0  0
 18 21  1  0  0  0  0
 18 27  1  0  0  0  0
 19 20  2  0  0  0  0
 19 32  1  0  0  0  0
 21 22  1  0  0  0  0
 21 28  1  0  0  0  0
 21 29  1  0  0  0  0
 22 23  1  0  0  0  0
 22 30  1  0  0  0  0
 22 31  1  0  0  0  0
 23 24  1  0  0  0  0
 23 25  2  0  0  0  0
 32 33  1  0  0  0  0
 32 37  1  0  0  0  0
 33 34  1  0  0  0  0
 33 36  1  0  0  0  0
 33 38  1  0  0  0  0
 34 35  2  0  0  0  0
 34 42  1  0  0  0  0
 36 39  1  0  0  0  0
 36 40  1  0  0  0  0
 36 41  1  0  0  0  0
 42 43  1  0  0  0  0
 42 44  1  0  0  0  0
 43 45  1  0  0  0  0
 43 46  1  0  0  0  0
 43 47  1  0  0  0  0
M  CHG  1  24  -1
M  END
$$$$

  -OEChem-05262216243D

 47 46  0     1  0  0  0  0  0999 V2000
    0.3596   -5.8534    1.4180 C   0  0  0  0  0  0  0  0  0  0  0  0
    1.4917   -5.9655    1.8614 O   0  0  0  0  0  0  0  0  0  0  0  0
   -0.6815   -6.9152    1.7231 C   0  0  0  0  0  0  0  0  0  0  0  0
   -1.0479   -7.3558    0.7928 H   0  0  0  0  0  0  0  0  0  0  0  0
   -0.2455   -7.7063    2.3399 H   0  0  0  0  0  0  0  0  0  0  0  0
   -1.5211   -6.4697    2.2626 H   0  0  0  0  0  0  0  0  0  0  0  0
    0.0154   -4.7675    0.6427 N   0  0  0  0  0  0  0  0  0  0  0  0
    0.8645   -3.5900    0.4188 C   0  0  2  0  0  0  0  0  0  0  0  0
    0.0057   -2.3427    0.1176 C   0  0  0  0  0  0  0  0  0  0  0  0
   -1.2023   -2.4639   -0.0760 O   0  0  0  0  0  0  0  0  0  0  0  0
    1.8142   -3.8788   -0.7490 C   0  0  0  0  0  0  0  0  0  0  0  0
   -0.9689   -4.6592    0.3988 H   0  0  0  0  0  0  0  0  0  0  0  0
    1.4498   -3.3790    1.3204 H   0  0  0  0  0  0  0  0  0  0  0  0
    1.2456   -4.0821   -1.6622 H   0  0  0  0  0  0  0  0  0  0  0  0
    2.4708   -3.0227   -0.9323 H   0  0  0  0  0  0  0  0  0  0  0  0
    2.4397   -4.7485   -0.5251 H   0  0  0  0  0  0  0  0  0  0  0  0
    0.5827   -1.0910    0.0464 N   0  0  0  0  0  0  0  0  0  0  0  0
   -0.1369    0.1059   -0.4076 C   0  0  2  0  0  0  0  0  0  0  0  0
   -0.3248    0.1075   -1.9391 C   0  0  0  0  0  0  0  0  0  0  0  0
    0.6025   -0.1883   -2.6881 O   0  0  0  0  0  0  0  0  0  0  0  0
    0.6486    1.3551    0.0185 C   0  0  0  0  0  0  0  0  0  0  0  0
    0.6651    1.5257    1.5459 C   0  0  0  0  0  0  0  0  0  0  0  0
    1.4734    2.7611    1.9365 C   0  0  0  0  0  0  0  0  0  0  0  0
    2.6191    2.5771    2.4164 O   0  5  0  0  0  0  0  0  0  0  0  0
    0.9646    3.8848    1.7008 O   0  0  0  0  0  0  0  0  0  0  0  0
    1.5942   -1.0320    0.1243 H   0  0  0  0  0  0  0  0  0  0  0  0
   -1.1253    0.1401    0.0620 H   0  0  0  0  0  0  0  0  0  0  0  0
    0.1885    2.2446   -0.4270 H   0  0  0  0  0  0  0  0  0  0  0  0
    1.6767    1.2954   -0.3562 H   0  0  0  0  0  0  0  0  0  0  0  0
   -0.3560    1.6309    1.9236 H   0  0  0  0  0  0  0  0  0  0  0  0
    1.1065    0.6449    2.0209 H   0  0  0  0  0  0  0  0  0  0  0  0
   -1.5465    0.4408   -2.4922 N   0  0  0  0  0  0  0  0  0  0  0  0
   -1.8212    0.5033   -3.9316 C   0  0  2  0  0  0  0  0  0  0  0  0
   -2.9752    1.4721   -4.2608 C   0  0  0  0  0  0  0  0  0  0  0  0
   -3.8699    1.6781   -3.4479 O   0  0  0  0  0  0  0  0  0  0  0  0
   -2.1588   -0.9064   -4.4267 C   0  0  0  0  0  0  0  0  0  0  0  0
   -2.3004    0.6937   -1.8550 H   0  0  0  0  0  0  0  0  0  0  0  0
   -0.9289    0.8648   -4.4534 H   0  0  0  0  0  0  0  0  0  0  0  0
   -3.0428   -1.2913   -3.9082 H   0  0  0  0  0  0  0  0  0  0  0  0
   -2.3605   -0.8967   -5.5018 H   0  0  0  0  0  0  0  0  0  0  0  0
   -1.3220   -1.5863   -4.2381 H   0  0  0  0  0  0  0  0  0  0  0  0
   -3.0193    2.1045   -5.4905 N   0  0  0  0  0  0  0  0  0  0  0  0
   -4.0438    3.0749   -5.8534 C   0  0  0  0  0  0  0  0  0  0  0  0
   -2.2297    1.9655   -6.1140 H   0  0  0  0  0  0  0  0  0  0  0  0
   -5.0369    2.6154   -5.8175 H   0  0  0  0  0  0  0  0  0  0  0  0
   -4.0243    3.9273   -5.1664 H   0  0  0  0  0  0  0  0  0  0  0  0
   -3.8712    3.4442   -6.8685 H   0  0  0  0  0  0  0  0  0  0  0  0
  1  2  2  0  0  0  0
  1  3  1  0  0  0  0
  1  7  1  0  0  0  0
  3  4  1  0  0  0  0
  3  5  1  0  0  0  0
  3  6  1  0  0  0  0
  7  8  1  0  0  0  0
  7 12  1  0  0  0  0
  8  9  1  0  0  0  0
  8 11  1  0  0  0  0
  8 13  1  0  0  0  0
  9 10  2  0  0  0  0
  9 17  1  0  0  0  0
 11 14  1  0  0  0  0
 11 15  1  0  0  0  0
 11 16  1  0  0  0  0
 17 18  1  0  0  0  0
 17 26  1  0  0  0  0
 18 19  1  0  0  0  0
 18 21  1  0  0  0  0
 18 27  1  0  0  0  0
 19 20  2  0  0  0  0
 19 32  1  0  0  0  0
 21 22  1  0  0  0  0
 21 28  1  0  0  0  0
 21 29  1  0  0  0  0
 22 23  1  0  0  0  0
 22 30  1  0  0  0  0
 22 31  1  0  0  0  0
 23 24  1  0  0  0  0
 23 25  2  0  0  0  0
 32 33  1  0  0  0  0
 32 37  1  0  0  0  0
 33 34  1  0  0  0  0
 33 36  1  0  0  0  0
 33 38  1  0  0  0  0
 34 35  2  0  0  0  0
 34 42  1  0  0  0  0
 36 39  1  0  0  0  0
 36 40  1  0  0  0  0
 36 41  1  0  0  0  0
 42 43  1  0  0  0  0
 42 44  1  0  0  0  0
 43 45  1  0  0  0  0
 43 46  1  0  0  0  0
 43 47  1  0  0  0  0
M  CHG  1  24  -1
M  END
$$$$

  -OEChem-05262216243D

 47 46  0     1  0  0  0  0  0999 V2000
    0.3665   -5.8563    1.4019 C   0  0  0  0  0  0  0  0  0  0  0  0
    1.5111   -5.9719    1.8113 O   0  0  0  0  0  0  0  0  0  0  0  0
   -0.6691   -6.9127    1.7419 C   0  0  0  0  0  0  0  0  0  0  0  0
   -1.0956   -7.3261    0.8249 H   0  0  0  0  0  0  0  0  0  0  0  0
   -0.2083   -7.7232    2.3133 H   0  0  0  0  0  0  0  0  0  0  0  0
   -1.4694   -6.4704    2.3403 H   0  0  0  0  0  0  0  0  0  0  0  0
    0.0023   -4.7694    0.6375 N   0  0  0  0  0  0  0  0  0  0  0  0
    0.8453   -3.5904    0.4002 C   0  0  2  0  0  0  0  0  0  0  0  0
   -0.0201   -2.3367    0.1482 C   0  0  0  0  0  0  0  0  0  0  0  0
   -1.2347   -2.4519   -0.0040 O   0  0  0  0  0  0  0  0  0  0  0  0
    1.7531   -3.8633   -0.8041 C   0  0  0  0  0  0  0  0  0  0  0  0
   -0.9888   -4.6565    0.4251 H   0  0  0  0  0  0  0  0  0  0  0  0
    1.4626   -3.3940    1.2836 H   0  0  0  0  0  0  0  0  0  0  0  0
    1.1534   -4.0402   -1.7026 H   0  0  0  0  0  0  0  0  0  0  0  0
    2.4123   -3.0098   -0.9899 H   0  0  0  0  0  0  0  0  0  0  0  0
    2.3756   -4.7443   -0.6196 H   0  0  0  0  0  0  0  0  0  0  0  0
    0.5602   -1.0861    0.0819 N   0  0  0  0  0  0  0  0  0  0  0  0
   -0.1573    0.1087   -0.3824 C   0  0  2  0  0  0  0  0  0  0  0  0
   -0.3350    0.1162   -1.9159 C   0  0  0  0  0  0  0  0  0  0  0  0
    0.5076   -0.3909   -2.6526 O   0  0  0  0  0  0  0  0  0  0  0  0
    0.6340    1.3534    0.0451 C   0  0  0  0  0  0  0  0  0  0  0  0
    0.6469    1.5311    1.5712 C   0  0  0  0  0  0  0  0  0  0  0  0
    1.4640    2.7638    1.9490 C   0  0  0  0  0  0  0  0  0  0  0  0
    2.6578    2.5830    2.2937 O   0  5  0  0  0  0  0  0  0  0  0  0
    0.9126    3.8851    1.8263 O   0  0  0  0  0  0  0  0  0  0  0  0
    1.5751   -1.0425    0.1041 H   0  0  0  0  0  0  0  0  0  0  0  0
   -1.1496    0.1459    0.0792 H   0  0  0  0  0  0  0  0  0  0  0  0
    0.1829    2.2452   -0.4044 H   0  0  0  0  0  0  0  0  0  0  0  0
    1.6631    1.2841   -0.3251 H   0  0  0  0  0  0  0  0  0  0  0  0
   -0.3750    1.6460    1.9444 H   0  0  0  0  0  0  0  0  0  0  0  0
    1.0810    0.6518    2.0556 H   0  0  0  0  0  0  0  0  0  0  0  0
   -1.4302    0.7352   -2.4885 N   0  0  0  0  0  0  0  0  0  0  0  0
   -1.6430    0.8786   -3.9328 C   0  0  2  0  0  0  0  0  0  0  0  0
   -2.5307    2.0934   -4.2696 C   0  0  0  0  0  0  0  0  0  0  0  0
   -3.3711    2.4927   -3.4711 O   0  0  0  0  0  0  0  0  0  0  0  0
   -2.2856   -0.4059   -4.4651 C   0  0  0  0  0  0  0  0  0  0  0  0
   -2.0898    1.2008   -1.8661 H   0  0  0  0  0  0  0  0  0  0  0  0
   -0.6773    1.0307   -4.4261 H   0  0  0  0  0  0  0  0  0  0  0  0
   -3.2486   -0.5820   -3.9752 H   0  0  0  0  0  0  0  0  0  0  0  0
   -2.4502   -0.3329   -5.5442 H   0  0  0  0  0  0  0  0  0  0  0  0
   -1.6354   -1.2651   -4.2724 H   0  0  0  0  0  0  0  0  0  0  0  0
   -2.3971    2.7323   -5.4894 N   0  0  0  0  0  0  0  0  0  0  0  0
   -3.1529    3.9242   -5.8514 C   0  0  0  0  0  0  0  0  0  0  0  0
   -1.6475    2.4200   -6.0995 H   0  0  0  0  0  0  0  0  0  0  0  0
   -4.2275    3.7142   -5.8389 H   0  0  0  0  0  0  0  0  0  0  0  0
   -2.9435    4.7376   -5.1486 H   0  0  0  0  0  0  0  0  0  0  0  0
   -2.8774    4.2550   -6.8572 H   0  0  0  0  0  0  0  0  0  0  0  0
  1  2  2  0  0  0  0
  1  3  1  0  0  0  0
  1  7  1  0  0  0  0
  3  4  1  0  0  0  0
  3  5  1  0  0  0  0
  3  6  1  0  0  0  0
  7  8  1  0  0  0  0
  7 12  1  0  0  0  0
  8  9  1  0  0  0  0
  8 11  1  0  0  0  0
  8 13  1  0  0  0  0
  9 10  2  0  0  0  0
  9 17  1  0  0  0  0
 11 14  1  0  0  0  0
 11 15  1  0  0  0  0
 11 16  1  0  0  0  0
 17 18  1  0  0  0  0
 17 26  1  0  0  0  0
 18 19  1  0  0  0  0
 18 21  1  0  0  0  0
 18 27  1  0  0  0  0
 19 20  2  0  0  0  0
 19 32  1  0  0  0  0
 21 22  1  0  0  0  0
 21 28  1  0  0  0  0
 21 29  1  0  0  0  0
 22 23  1  0  0  0  0
 22 30  1  0  0  0  0
 22 31  1  0  0  0  0
 23 24  1  0  0  0  0
 23 25  2  0  0  0  0
 32 33  1  0  0  0  0
 32 37  1  0  0  0  0
 33 34  1  0  0  0  0
 33 36  1  0  0  0  0
 33 38  1  0  0  0  0
 34 35  2  0  0  0  0
 34 42  1  0  0  0  0
 36 39  1  0  0  0  0
 36 40  1  0  0  0  0
 36 41  1  0  0  0  0
 42 43  1  0  0  0  0
 42 44  1  0  0  0  0
 43 45  1  0  0  0  0
 43 46  1  0  0  0  0
 43 47  1  0  0  0  0
M  CHG  1  24  -1
M  END
$$$$

  -OEChem-05262216243D

 47 46  0     1  0  0  0  0  0999 V2000
    0.3608   -5.8385    1.4263 C   0  0  0  0  0  0  0  0  0  0  0  0
    1.5104   -5.9511    1.8229 O   0  0  0  0  0  0  0  0  0  0  0  0
   -0.6744   -6.8836    1.7991 C   0  0  0  0  0  0  0  0  0  0  0  0
   -1.0619   -7.3623    0.8967 H   0  0  0  0  0  0  0  0  0  0  0  0
   -0.2253   -7.6477    2.4396 H   0  0  0  0  0  0  0  0  0  0  0  0
   -1.5012   -6.4136    2.3377 H   0  0  0  0  0  0  0  0  0  0  0  0
   -0.0106   -4.7645    0.6477 N   0  0  0  0  0  0  0  0  0  0  0  0
    0.8301   -3.5899    0.3847 C   0  0  2  0  0  0  0  0  0  0  0  0
   -0.0382   -2.3363    0.1470 C   0  0  0  0  0  0  0  0  0  0  0  0
   -1.2551   -2.4503    0.0126 O   0  0  0  0  0  0  0  0  0  0  0  0
    1.7053   -3.8718   -0.8407 C   0  0  0  0  0  0  0  0  0  0  0  0
   -1.0045   -4.6510    0.4491 H   0  0  0  0  0  0  0  0  0  0  0  0
    1.4697   -3.3893    1.2511 H   0  0  0  0  0  0  0  0  0  0  0  0
    1.0807   -4.0589   -1.7200 H   0  0  0  0  0  0  0  0  0  0  0  0
    2.3564   -3.0182   -1.0532 H   0  0  0  0  0  0  0  0  0  0  0  0
    2.3350   -4.7493   -0.6646 H   0  0  0  0  0  0  0  0  0  0  0  0
    0.5431   -1.0862    0.0882 N   0  0  0  0  0  0  0  0  0  0  0  0
   -0.1707    0.1078   -0.3840 C   0  0  2  0  0  0  0  0  0  0  0  0
   -0.3362    0.1254   -1.9212 C   0  0  0  0  0  0  0  0  0  0  0  0
    0.3884   -0.5514   -2.6470 O   0  0  0  0  0  0  0  0  0  0  0  0
    0.6336    1.3404    0.0581 C   0  0  0  0  0  0  0  0  0  0  0  0
    0.6362    1.5091    1.5852 C   0  0  0  0  0  0  0  0  0  0  0  0
    1.4668    2.7291    1.9731 C   0  0  0  0  0  0  0  0  0  0  0  0
    2.7075    2.5677    2.0820 O   0  5  0  0  0  0  0  0  0  0  0  0
    0.8709    3.8268    2.0966 O   0  0  0  0  0  0  0  0  0  0  0  0
    1.5578   -1.0455    0.1104 H   0  0  0  0  0  0  0  0  0  0  0  0
   -1.1668    0.1494    0.0685 H   0  0  0  0  0  0  0  0  0  0  0  0
    0.1999    2.2429   -0.3864 H   0  0  0  0  0  0  0  0  0  0  0  0
    1.6645    1.2601   -0.3047 H   0  0  0  0  0  0  0  0  0  0  0  0
   -0.3875    1.6324    1.9509 H   0  0  0  0  0  0  0  0  0  0  0  0
    1.0590    0.6240    2.0690 H   0  0  0  0  0  0  0  0  0  0  0  0
   -1.2366    0.9919   -2.5139 N   0  0  0  0  0  0  0  0  0  0  0  0
   -1.3511    1.2154   -3.9604 C   0  0  2  0  0  0  0  0  0  0  0  0
   -1.9527    2.5983   -4.2852 C   0  0  0  0  0  0  0  0  0  0  0  0
   -2.6966    3.1562   -3.4863 O   0  0  0  0  0  0  0  0  0  0  0  0
   -2.2223    0.1107   -4.5678 C   0  0  0  0  0  0  0  0  0  0  0  0
   -1.7675    1.6105   -1.9011 H   0  0  0  0  0  0  0  0  0  0  0  0
   -0.3531    1.1767   -4.4094 H   0  0  0  0  0  0  0  0  0  0  0  0
   -3.2249    0.1320   -4.1291 H   0  0  0  0  0  0  0  0  0  0  0  0
   -2.3116    0.2443   -5.6500 H   0  0  0  0  0  0  0  0  0  0  0  0
   -1.7802   -0.8722   -4.3777 H   0  0  0  0  0  0  0  0  0  0  0  0
   -1.6692    3.2148   -5.4913 N   0  0  0  0  0  0  0  0  0  0  0  0
   -2.1407    4.5508   -5.8334 C   0  0  0  0  0  0  0  0  0  0  0  0
   -0.9948    2.7605   -6.0998 H   0  0  0  0  0  0  0  0  0  0  0  0
   -3.2338    4.5960   -5.7870 H   0  0  0  0  0  0  0  0  0  0  0  0
   -1.7273    5.2914   -5.1408 H   0  0  0  0  0  0  0  0  0  0  0  0
   -1.8284    4.8130   -6.8486 H   0  0  0  0  0  0  0  0  0  0  0  0
  1  2  2  0  0  0  0
  1  3  1  0  0  0  0
  1  7  1  0  0  0  0
  3  4  1  0  0  0  0
  3  5  1  0  0  0  0
  3  6  1  0  0  0  0
  7  8  1  0  0  0  0
  7 12  1  0  0  0  0
  8  9  1  0  0  0  0
  8 11  1  0  0  0  0
  8 13  1  0  0  0  0
  9 10  2  0  0  0  0
  9 17  1  0  0  0  0
 11 14  1  0  0  0  0
 11 15  1  0  0  0  0
 11 16  1  0  0  0  0
 17 18  1  0  0  0  0
 17 26  1  0  0  0  0
 18 19  1  0  0  0  0
 18 21  1  0  0  0  0
 18 27  1  0  0  0  0
 19 20  2  0  0  0  0
 19 32  1  0  0  0  0
 21 22  1  0  0  0  0
 21 28  1  0  0  0  0
 21 29  1  0  0  0  0
 22 23  1  0  0  0  0
 22 30  1  0  0  0  0
 22 31  1  0  0  0  0
 23 24  1  0  0  0  0
 23 25  2  0  0  0  0
 32 33  1  0  0  0  0
 32 37  1  0  0  0  0
 33 34  1  0  0  0  0
 33 36  1  0  0  0  0
 33 38  1  0  0  0  0
 34 35  2  0  0  0  0
 34 42  1  0  0  0  0
 36 39  1  0  0  0  0
 36 40  1  0  0  0  0
 36 41  1  0  0  0  0
 42 43  1  0  0  0  0
 42 44  1  0  0  0  0
 43 45  1  0  0  0  0
 43 46  1  0  0  0  0
 43 47  1  0  0  0  0
M  CHG  1  24  -1
M  END
$$$$

  -OEChem-05262216243D

 47 46  0     1  0  0  0  0  0999 V2000
    0.3516   -5.8335    1.3436 C   0  0  0  0  0  0  0  0  0  0  0  0
    1.5276   -5.9882    1.6349 O   0  0  0  0  0  0  0  0  0  0  0  0
   -0.6749   -6.8698    1.7645 C   0  0  0  0  0  0  0  0  0  0  0  0
   -1.1617   -7.2922    0.8820 H   0  0  0  0  0  0  0  0  0  0  0  0
   -0.1916   -7.6773    2.3219 H   0  0  0  0  0  0  0  0  0  0  0  0
   -1.4313   -6.4057    2.4025 H   0  0  0  0  0  0  0  0  0  0  0  0
   -0.0571   -4.7198    0.6429 N   0  0  0  0  0  0  0  0  0  0  0  0
    0.7887   -3.5562    0.3480 C   0  0  2  0  0  0  0  0  0  0  0  0
   -0.0556   -2.2668    0.2616 C   0  0  0  0  0  0  0  0  0  0  0  0
   -1.2833   -2.3339    0.2970 O   0  0  0  0  0  0  0  0  0  0  0  0
    1.5193   -3.8018   -0.9758 C   0  0  0  0  0  0  0  0  0  0  0  0
   -1.0610   -4.5757    0.5360 H   0  0  0  0  0  0  0  0  0  0  0  0
    1.5226   -3.4176    1.1489 H   0  0  0  0  0  0  0  0  0  0  0  0
    0.7990   -3.9164   -1.7925 H   0  0  0  0  0  0  0  0  0  0  0  0
    2.1794   -2.9616   -1.2124 H   0  0  0  0  0  0  0  0  0  0  0  0
    2.1265   -4.7100   -0.9129 H   0  0  0  0  0  0  0  0  0  0  0  0
    0.5575   -1.0306    0.1854 N   0  0  0  0  0  0  0  0  0  0  0  0
   -0.1403    0.1606   -0.3234 C   0  0  2  0  0  0  0  0  0  0  0  0
   -0.6311    0.0149   -1.7880 C   0  0  0  0  0  0  0  0  0  0  0  0
   -0.2659   -0.9209   -2.4964 O   0  0  0  0  0  0  0  0  0  0  0  0
    0.8480    1.3373   -0.2275 C   0  0  0  0  0  0  0  0  0  0  0  0
    1.1759    1.7037    1.2283 C   0  0  0  0  0  0  0  0  0  0  0  0
    2.1761    2.8558    1.2613 C   0  0  0  0  0  0  0  0  0  0  0  0
    3.3907    2.5642    1.1315 O   0  5  0  0  0  0  0  0  0  0  0  0
    1.7215    4.0222    1.3488 O   0  0  0  0  0  0  0  0  0  0  0  0
    1.5702   -1.0355    0.1039 H   0  0  0  0  0  0  0  0  0  0  0  0
   -1.0136    0.3681    0.3035 H   0  0  0  0  0  0  0  0  0  0  0  0
    0.4226    2.2236   -0.7101 H   0  0  0  0  0  0  0  0  0  0  0  0
    1.7725    1.0878   -0.7607 H   0  0  0  0  0  0  0  0  0  0  0  0
    0.2633    1.9955    1.7561 H   0  0  0  0  0  0  0  0  0  0  0  0
    1.6065    0.8468    1.7542 H   0  0  0  0  0  0  0  0  0  0  0  0
   -1.3082    1.0555   -2.3992 N   0  0  0  0  0  0  0  0  0  0  0  0
   -1.6503    1.1116   -3.8257 C   0  0  2  0  0  0  0  0  0  0  0  0
   -1.9153    2.5564   -4.2959 C   0  0  0  0  0  0  0  0  0  0  0  0
   -2.3720    3.3875   -3.5194 O   0  0  0  0  0  0  0  0  0  0  0  0
   -2.8914    0.2479   -4.0759 C   0  0  0  0  0  0  0  0  0  0  0  0
   -1.5193    1.8779   -1.8338 H   0  0  0  0  0  0  0  0  0  0  0  0
   -0.8128    0.7197   -4.4119 H   0  0  0  0  0  0  0  0  0  0  0  0
   -3.7381    0.6196   -3.4898 H   0  0  0  0  0  0  0  0  0  0  0  0
   -3.1642    0.2673   -5.1353 H   0  0  0  0  0  0  0  0  0  0  0  0
   -2.6990   -0.7906   -3.7887 H   0  0  0  0  0  0  0  0  0  0  0  0
   -1.6610    2.9219   -5.6059 N   0  0  0  0  0  0  0  0  0  0  0  0
   -1.8231    4.2845   -6.0974 C   0  0  0  0  0  0  0  0  0  0  0  0
   -1.2129    2.2335   -6.2032 H   0  0  0  0  0  0  0  0  0  0  0  0
   -2.8575    4.6190   -5.9664 H   0  0  0  0  0  0  0  0  0  0  0  0
   -1.1601    4.9676   -5.5560 H   0  0  0  0  0  0  0  0  0  0  0  0
   -1.5774    4.3341   -7.1624 H   0  0  0  0  0  0  0  0  0  0  0  0
  1  2  2  0  0  0  0
  1  3  1  0  0  0  0
  1  7  1  0  0  0  0
  3  4  1  0  0  0  0
  3  5  1  0  0  0  0
  3  6  1  0  0  0  0
  7  8  1  0  0  0  0
  7 12  1  0  0  0  0
  8  9  1  0  0  0  0
  8 11  1  0  0  0  0
  8 13  1  0  0  0  0
  9 10  2  0  0  0  0
  9 17  1  0  0  0  0
 11 14  1  0  0  0  0
 11 15  1  0  0  0  0
 11 16  1  0  0  0  0
 17 18  1  0  0  0  0
 17 26  1  0  0  0  0
 18 19  1  0  0  0  0
 18 21  1  0  0  0  0
 18 27  1  0  0  0  0
 19 20  2  0  0  0  0
 19 32  1  0  0  0  0
 21 22  1  0  0  0  0
 21 28  1  0  0  0  0
 21 29  1  0  0  0  0
 22 23  1  0  0  0  0
 22 30  1  0  0  0  0
 22 31  1  0  0  0  0
 23 24  1  0  0  0  0
 23 25  2  0  0  0  0
 32 33  1  0  0  0  0
 32 37  1  0  0  0  0
 33 34  1  0  0  0  0
 33 36  1  0  0  0  0
 33 38  1  0  0  0  0
 34 35  2  0  0  0  0
 34 42  1  0  0  0  0
 36 39  1  0  0  0  0
 36 40  1  0  0  0  0
 36 41  1  0  0  0  0
 42 43  1  0  0  0  0
 42 44  1  0  0  0  0
 43 45  1  0  0  0  0
 43 46  1  0  0  0  0
 43 47  1  0  0  0  0
M  CHG  1  24  -1
M  END
$$$$

  -OEChem-05262216243D

 47 46  0     1  0  0  0  0  0999 V2000
    0.3503   -5.8224    1.2963 C   0  0  0  0  0  0  0  0  0  0  0  0
    1.5328   -5.9954    1.5483 O   0  0  0  0  0  0  0  0  0  0  0  0
   -0.6726   -6.8620    1.7163 C   0  0  0  0  0  0  0  0  0  0  0  0
   -1.2346   -7.2059    0.8447 H   0  0  0  0  0  0  0  0  0  0  0  0
   -0.1732   -7.7199    2.1746 H   0  0  0  0  0  0  0  0  0  0  0  0
   -1.3663   -6.4289    2.4410 H   0  0  0  0  0  0  0  0  0  0  0  0
   -0.0677   -4.6857    0.6398 N   0  0  0  0  0  0  0  0  0  0  0  0
    0.7830   -3.5276    0.3371 C   0  0  2  0  0  0  0  0  0  0  0  0
   -0.0570   -2.2355    0.2499 C   0  0  0  0  0  0  0  0  0  0  0  0
   -1.2838   -2.2972    0.3131 O   0  0  0  0  0  0  0  0  0  0  0  0
    1.5091   -3.7778   -0.9886 C   0  0  0  0  0  0  0  0  0  0  0  0
   -1.0727   -4.5284    0.5642 H   0  0  0  0  0  0  0  0  0  0  0  0
    1.5197   -3.3906    1.1358 H   0  0  0  0  0  0  0  0  0  0  0  0
    0.7857   -3.9014   -1.8011 H   0  0  0  0  0  0  0  0  0  0  0  0
    2.1641   -2.9361   -1.2336 H   0  0  0  0  0  0  0  0  0  0  0  0
    2.1212   -4.6826   -0.9225 H   0  0  0  0  0  0  0  0  0  0  0  0
    0.5606   -1.0006    0.1820 N   0  0  0  0  0  0  0  0  0  0  0  0
   -0.1240    0.1994   -0.3274 C   0  0  2  0  0  0  0  0  0  0  0  0
   -0.6068    0.0737   -1.8014 C   0  0  0  0  0  0  0  0  0  0  0  0
   -0.4494   -0.9609   -2.4454 O   0  0  0  0  0  0  0  0  0  0  0  0
    0.8787    1.3612   -0.1780 C   0  0  0  0  0  0  0  0  0  0  0  0
    1.1651    1.6886    1.2969 C   0  0  0  0  0  0  0  0  0  0  0  0
    2.1793    2.8245    1.3951 C   0  0  0  0  0  0  0  0  0  0  0  0
    3.3847    2.5324    1.1958 O   0  5  0  0  0  0  0  0  0  0  0  0
    1.7454    3.9813    1.6136 O   0  0  0  0  0  0  0  0  0  0  0  0
    1.5740   -1.0104    0.1117 H   0  0  0  0  0  0  0  0  0  0  0  0
   -1.0054    0.4056    0.2884 H   0  0  0  0  0  0  0  0  0  0  0  0
    0.4805    2.2679   -0.6449 H   0  0  0  0  0  0  0  0  0  0  0  0
    1.8144    1.1133   -0.6917 H   0  0  0  0  0  0  0  0  0  0  0  0
    0.2389    1.9786    1.8019 H   0  0  0  0  0  0  0  0  0  0  0  0
    1.5684    0.8142    1.8154 H   0  0  0  0  0  0  0  0  0  0  0  0
   -0.9876    1.1968   -2.5165 N   0  0  0  0  0  0  0  0  0  0  0  0
   -1.2787    1.2202   -3.9562 C   0  0  2  0  0  0  0  0  0  0  0  0
   -1.1768    2.6429   -4.5425 C   0  0  0  0  0  0  0  0  0  0  0  0
   -1.4402    3.6198   -3.8512 O   0  0  0  0  0  0  0  0  0  0  0  0
   -2.6869    0.6628   -4.1925 C   0  0  0  0  0  0  0  0  0  0  0  0
   -1.0238    2.0853   -2.0167 H   0  0  0  0  0  0  0  0  0  0  0  0
   -0.5497    0.5937   -4.4803 H   0  0  0  0  0  0  0  0  0  0  0  0
   -3.4302    1.2730   -3.6697 H   0  0  0  0  0  0  0  0  0  0  0  0
   -2.9237    0.6622   -5.2607 H   0  0  0  0  0  0  0  0  0  0  0  0
   -2.7589   -0.3652   -3.8239 H   0  0  0  0  0  0  0  0  0  0  0  0
   -0.8130    2.8267   -5.8647 N   0  0  0  0  0  0  0  0  0  0  0  0
   -0.6441    4.1415   -6.4701 C   0  0  0  0  0  0  0  0  0  0  0  0
   -0.5402    2.0028   -6.3920 H   0  0  0  0  0  0  0  0  0  0  0  0
   -1.5799    4.7081   -6.4228 H   0  0  0  0  0  0  0  0  0  0  0  0
    0.1367    4.7055   -5.9490 H   0  0  0  0  0  0  0  0  0  0  0  0
   -0.3552    4.0390   -7.5203 H   0  0  0  0  0  0  0  0  0  0  0  0
  1  2  2  0  0  0  0
  1  3  1  0  0  0  0
  1  7  1  0  0  0  0
  3  4  1  0  0  0  0
  3  5  1  0  0  0  0
  3  6  1  0  0  0  0
  7  8  1  0  0  0  0
  7 12  1  0  0  0  0
  8  9  1  0  0  0  0
  8 11  1  0  0  0  0
  8 13  1  0  0  0  0
  9 10  2  0  0  0  0
  9 17  1  0  0  0  0
 11 14  1  0  0  0  0
 11 15  1  0  0  0  0
 11 16  1  0  0  0  0
 17 18  1  0  0  0  0
 17 26  1  0  0  0  0
 18 19  1  0  0  0  0
 18 21  1  0  0  0  0
 18 27  1  0  0  0  0
 19 20  2  0  0  0  0
 19 32  1  0  0  0  0
 21 22  1  0  0  0  0
 21 28  1  0  0  0  0
 21 29  1  0  0  0  0
 22 23  1  0  0  0  0
 22 30  1  0  0  0  0
 22 31  1  0  0  0  0
 23 24  1  0  0  0  0
 23 25  2  0  0  0  0
 32 33  1  0  0  0  0
 32 37  1  0  0  0  0
 33 34  1  0  0  0  0
 33 36  1  0  0  0  0
 33 38  1  0  0  0  0
 34 35  2  0  0  0  0
 34 42  1  0  0  0  0
 36 39  1  0  0  0  0
 36 40  1  0  0  0  0
 36 41  1  0  0  0  0
 42 43  1  0  0  0  0
 42 44  1  0  0  0  0
 43 45  1  0  0  0  0
 43 46  1  0  0  0  0
 43 47  1  0  0  0  0
M  CHG  1  24  -1
M  END
$$$$

  -OEChem-05262216243D

 47 46  0     1  0  0  0  0  0999 V2000
    0.3635   -5.8113    1.2470 C   0  0  0  0  0  0  0  0  0  0  0  0
    1.5477   -5.9870    1.4896 O   0  0  0  0  0  0  0  0  0  0  0  0
   -0.6583   -6.8495    1.6731 C   0  0  0  0  0  0  0  0  0  0  0  0
   -1.2406   -7.1767    0.8082 H   0  0  0  0  0  0  0  0  0  0  0  0
   -0.1559   -7.7173    2.1095 H   0  0  0  0  0  0  0  0  0  0  0  0
   -1.3346   -6.4217    2.4173 H   0  0  0  0  0  0  0  0  0  0  0  0
   -0.0578   -4.6723    0.5969 N   0  0  0  0  0  0  0  0  0  0  0  0
    0.7894   -3.5090    0.3066 C   0  0  2  0  0  0  0  0  0  0  0  0
   -0.0530   -2.2166    0.2517 C   0  0  0  0  0  0  0  0  0  0  0  0
   -1.2774   -2.2801    0.3456 O   0  0  0  0  0  0  0  0  0  0  0  0
    1.5023   -3.7370   -1.0302 C   0  0  0  0  0  0  0  0  0  0  0  0
   -1.0633   -4.5119    0.5337 H   0  0  0  0  0  0  0  0  0  0  0  0
    1.5338   -3.3853    1.1003 H   0  0  0  0  0  0  0  0  0  0  0  0
    0.7715   -3.8384   -1.8391 H   0  0  0  0  0  0  0  0  0  0  0  0
    2.1617   -2.8954   -1.2624 H   0  0  0  0  0  0  0  0  0  0  0  0
    2.1073   -4.6478   -0.9882 H   0  0  0  0  0  0  0  0  0  0  0  0
    0.5630   -0.9799    0.1990 N   0  0  0  0  0  0  0  0  0  0  0  0
   -0.1044    0.2260   -0.3221 C   0  0  2  0  0  0  0  0  0  0  0  0
   -0.5558    0.1169   -1.8111 C   0  0  0  0  0  0  0  0  0  0  0  0
   -0.6570   -0.9661   -2.3805 O   0  0  0  0  0  0  0  0  0  0  0  0
    0.8905    1.3860   -0.1077 C   0  0  0  0  0  0  0  0  0  0  0  0
    1.1090    1.6860    1.3846 C   0  0  0  0  0  0  0  0  0  0  0  0
    2.1167    2.8198    1.5526 C   0  0  0  0  0  0  0  0  0  0  0  0
    3.3213    2.5501    1.3200 O   0  5  0  0  0  0  0  0  0  0  0  0
    1.6804    3.9536    1.8660 O   0  0  0  0  0  0  0  0  0  0  0  0
    1.5774   -0.9908    0.1521 H   0  0  0  0  0  0  0  0  0  0  0  0
   -1.0049    0.4233    0.2686 H   0  0  0  0  0  0  0  0  0  0  0  0
    0.5112    2.3036   -0.5677 H   0  0  0  0  0  0  0  0  0  0  0  0
    1.8482    1.1499   -0.5854 H   0  0  0  0  0  0  0  0  0  0  0  0
    0.1597    1.9657    1.8512 H   0  0  0  0  0  0  0  0  0  0  0  0
    1.4892    0.8026    1.9050 H   0  0  0  0  0  0  0  0  0  0  0  0
   -0.6197    1.2368   -2.6246 N   0  0  0  0  0  0  0  0  0  0  0  0
   -0.8576    1.2156   -4.0748 C   0  0  2  0  0  0  0  0  0  0  0  0
   -0.3551    2.4998   -4.7654 C   0  0  0  0  0  0  0  0  0  0  0  0
   -0.2550    3.5462   -4.1362 O   0  0  0  0  0  0  0  0  0  0  0  0
   -2.3590    1.0433   -4.3312 C   0  0  0  0  0  0  0  0  0  0  0  0
   -0.4232    2.1426   -2.1982 H   0  0  0  0  0  0  0  0  0  0  0  0
   -0.3159    0.3728   -4.5164 H   0  0  0  0  0  0  0  0  0  0  0  0
   -2.9182    1.8774   -3.8953 H   0  0  0  0  0  0  0  0  0  0  0  0
   -2.5623    1.0098   -5.4056 H   0  0  0  0  0  0  0  0  0  0  0  0
   -2.7190    0.1114   -3.8845 H   0  0  0  0  0  0  0  0  0  0  0  0
   -0.0377    2.4882   -6.1123 N   0  0  0  0  0  0  0  0  0  0  0  0
    0.4621    3.6570   -6.8252 C   0  0  0  0  0  0  0  0  0  0  0  0
   -0.0961    1.5993   -6.5997 H   0  0  0  0  0  0  0  0  0  0  0  0
   -0.2743    4.4669   -6.7960 H   0  0  0  0  0  0  0  0  0  0  0  0
    1.3947    4.0113   -6.3734 H   0  0  0  0  0  0  0  0  0  0  0  0
    0.6580    3.4063   -7.8720 H   0  0  0  0  0  0  0  0  0  0  0  0
  1  2  2  0  0  0  0
  1  3  1  0  0  0  0
  1  7  1  0  0  0  0
  3  4  1  0  0  0  0
  3  5  1  0  0  0  0
  3  6  1  0  0  0  0
  7  8  1  0  0  0  0
  7 12  1  0  0  0  0
  8  9  1  0  0  0  0
  8 11  1  0  0  0  0
  8 13  1  0  0  0  0
  9 10  2  0  0  0  0
  9 17  1  0  0  0  0
 11 14  1  0  0  0  0
 11 15  1  0  0  0  0
 11 16  1  0  0  0  0
 17 18  1  0  0  0  0
 17 26  1  0  0  0  0
 18 19  1  0  0  0  0
 18 21  1  0  0  0  0
 18 27  1  0  0  0  0
 19 20  2  0  0  0  0
 19 32  1  0  0  0  0
 21 22  1  0  0  0  0
 21 28  1  0  0  0  0
 21 29  1  0  0  0  0
 22 23  1  0  0  0  0
 22 30  1  0  0  0  0
 22 31  1  0  0  0  0
 23 24  1  0  0  0  0
 23 25  2  0  0  0  0
 32 33  1  0  0  0  0
 32 37  1  0  0  0  0
 33 34  1  0  0  0  0
 33 36  1  0  0  0  0
 33 38  1  0  0  0  0
 34 35  2  0  0  0  0
 34 42  1  0  0  0  0
 36 39  1  0  0  0  0
 36 40  1  0  0  0  0
 36 41  1  0  0  0  0
 42 43  1  0  0  0  0
 42 44  1  0  0  0  0
 43 45  1  0  0  0  0
 43 46  1  0  0  0  0
 43 47  1  0  0  0  0
M  CHG  1  24  -1
M  END
$$$$

  -OEChem-05262216243D

 47 46  0     1  0  0  0  0  0999 V2000
    0.3956   -5.8033    1.2185 C   0  0  0  0  0  0  0  0  0  0  0  0
    1.5757   -5.9659    1.4889 O   0  0  0  0  0  0  0  0  0  0  0  0
   -0.6290   -6.8402    1.6407 C   0  0  0  0  0  0  0  0  0  0  0  0
   -1.1867   -7.1900    0.7687 H   0  0  0  0  0  0  0  0  0  0  0  0
   -0.1322   -7.6948    2.1083 H   0  0  0  0  0  0  0  0  0  0  0  0
   -1.3269   -6.4016    2.3582 H   0  0  0  0  0  0  0  0  0  0  0  0
   -0.0199   -4.6784    0.5414 N   0  0  0  0  0  0  0  0  0  0  0  0
    0.8195   -3.5032    0.2778 C   0  0  2  0  0  0  0  0  0  0  0  0
   -0.0354   -2.2187    0.2337 C   0  0  0  0  0  0  0  0  0  0  0  0
   -1.2580   -2.2979    0.3263 O   0  0  0  0  0  0  0  0  0  0  0  0
    1.5476   -3.7038   -1.0550 C   0  0  0  0  0  0  0  0  0  0  0  0
   -1.0259   -4.5240    0.4674 H   0  0  0  0  0  0  0  0  0  0  0  0
    1.5549   -3.3844    1.0807 H   0  0  0  0  0  0  0  0  0  0  0  0
    0.8261   -3.7977   -1.8734 H   0  0  0  0  0  0  0  0  0  0  0  0
    2.2032   -2.8537   -1.2664 H   0  0  0  0  0  0  0  0  0  0  0  0
    2.1593   -4.6106   -1.0210 H   0  0  0  0  0  0  0  0  0  0  0  0
    0.5691   -0.9756    0.2058 N   0  0  0  0  0  0  0  0  0  0  0  0
   -0.0800    0.2309   -0.3378 C   0  0  2  0  0  0  0  0  0  0  0  0
   -0.4694    0.1275   -1.8446 C   0  0  0  0  0  0  0  0  0  0  0  0
   -0.8792   -0.9154   -2.3428 O   0  0  0  0  0  0  0  0  0  0  0  0
    0.8741    1.4084   -0.0531 C   0  0  0  0  0  0  0  0  0  0  0  0
    0.9948    1.6944    1.4523 C   0  0  0  0  0  0  0  0  0  0  0  0
    1.9656    2.8471    1.6864 C   0  0  0  0  0  0  0  0  0  0  0  0
    3.1902    2.5690    1.6946 O   0  5  0  0  0  0  0  0  0  0  0  0
    1.4886    4.0034    1.7849 O   0  0  0  0  0  0  0  0  0  0  0  0
    1.5848   -0.9782    0.2053 H   0  0  0  0  0  0  0  0  0  0  0  0
   -1.0123    0.4085    0.2075 H   0  0  0  0  0  0  0  0  0  0  0  0
    0.4966    2.3217   -0.5245 H   0  0  0  0  0  0  0  0  0  0  0  0
    1.8644    1.2000   -0.4733 H   0  0  0  0  0  0  0  0  0  0  0  0
    0.0144    1.9508    1.8656 H   0  0  0  0  0  0  0  0  0  0  0  0
    1.3606    0.8123    1.9854 H   0  0  0  0  0  0  0  0  0  0  0  0
   -0.2139    1.1629   -2.7295 N   0  0  0  0  0  0  0  0  0  0  0  0
   -0.4549    1.1139   -4.1786 C   0  0  2  0  0  0  0  0  0  0  0  0
    0.4326    2.1076   -4.9563 C   0  0  0  0  0  0  0  0  0  0  0  0
    0.9903    3.0327   -4.3788 O   0  0  0  0  0  0  0  0  0  0  0  0
   -1.9354    1.4160   -4.4353 C   0  0  0  0  0  0  0  0  0  0  0  0
    0.2436    1.9976   -2.3616 H   0  0  0  0  0  0  0  0  0  0  0  0
   -0.2201    0.1118   -4.5521 H   0  0  0  0  0  0  0  0  0  0  0  0
   -2.1906    2.4142   -4.0655 H   0  0  0  0  0  0  0  0  0  0  0  0
   -2.1571    1.3723   -5.5055 H   0  0  0  0  0  0  0  0  0  0  0  0
   -2.5674    0.6835   -3.9233 H   0  0  0  0  0  0  0  0  0  0  0  0
    0.6021    1.9659   -6.3222 N   0  0  0  0  0  0  0  0  0  0  0  0
    1.4392    2.8531   -7.1199 C   0  0  0  0  0  0  0  0  0  0  0  0
    0.1466    1.1777   -6.7718 H   0  0  0  0  0  0  0  0  0  0  0  0
    1.0870    3.8869   -7.0391 H   0  0  0  0  0  0  0  0  0  0  0  0
    2.4790    2.8073   -6.7795 H   0  0  0  0  0  0  0  0  0  0  0  0
    1.4064    2.5584   -8.1731 H   0  0  0  0  0  0  0  0  0  0  0  0
  1  2  2  0  0  0  0
  1  3  1  0  0  0  0
  1  7  1  0  0  0  0
  3  4  1  0  0  0  0
  3  5  1  0  0  0  0
  3  6  1  0  0  0  0
  7  8  1  0  0  0  0
  7 12  1  0  0  0  0
  8  9  1  0  0  0  0
  8 11  1  0  0  0  0
  8 13  1  0  0  0  0
  9 10  2  0  0  0  0
  9 17  1  0  0  0  0
 11 14  1  0  0  0  0
 11 15  1  0  0  0  0
 11 16  1  0  0  0  0
 17 18  1  0  0  0  0
 17 26  1  0  0  0  0
 18 19  1  0  0  0  0
 18 21  1  0  0  0  0
 18 27  1  0  0  0  0
 19 20  2  0  0  0  0
 19 32  1  0  0  0  0
 21 22  1  0  0  0  0
 21 28  1  0  0  0  0
 21 29  1  0  0  0  0
 22 23  1  0  0  0  0
 22 30  1  0  0  0  0
 22 31  1  0  0  0  0
 23 24  1  0  0  0  0
 23 25  2  0  0  0  0
 32 33  1  0  0  0  0
 32 37  1  0  0  0  0
 33 34  1  0  0  0  0
 33 36  1  0  0  0  0
 33 38  1  0  0  0  0
 34 35  2  0  0  0  0
 34 42  1  0  0  0  0
 36 39  1  0  0  0  0
 36 40  1  0  0  0  0
 36 41  1  0  0  0  0
 42 43  1  0  0  0  0
 42 44  1  0  0  0  0
 43 45  1  0  0  0  0
 43 46  1  0  0  0  0
 43 47  1  0  0  0  0
M  CHG  1  24  -1
M  END
$$$$

  -OEChem-05262216243D

 47 46  0     1  0  0  0  0  0999 V2000
    0.4506   -5.8136    1.1290 C   0  0  0  0  0  0  0  0  0  0  0  0
    1.6146   -5.9532    1.4724 O   0  0  0  0  0  0  0  0  0  0  0  0
   -0.5634   -6.9031    1.4267 C   0  0  0  0  0  0  0  0  0  0  0  0
   -0.9720   -7.2962    0.4928 H   0  0  0  0  0  0  0  0  0  0  0  0
   -0.0892   -7.7204    1.9769 H   0  0  0  0  0  0  0  0  0  0  0  0
   -1.3790   -6.4979    2.0308 H   0  0  0  0  0  0  0  0  0  0  0  0
    0.0468   -4.6720    0.4727 N   0  0  0  0  0  0  0  0  0  0  0  0
    0.8668   -3.4649    0.3092 C   0  0  2  0  0  0  0  0  0  0  0  0
   -0.0246   -2.2071    0.2210 C   0  0  0  0  0  0  0  0  0  0  0  0
   -1.2451   -2.3278    0.2650 O   0  0  0  0  0  0  0  0  0  0  0  0
    1.7145   -3.6112   -0.9593 C   0  0  0  0  0  0  0  0  0  0  0  0
   -0.9569   -4.5405    0.3415 H   0  0  0  0  0  0  0  0  0  0  0  0
    1.5257   -3.3438    1.1758 H   0  0  0  0  0  0  0  0  0  0  0  0
    1.0704   -3.7007   -1.8401 H   0  0  0  0  0  0  0  0  0  0  0  0
    2.3646   -2.7410   -1.0903 H   0  0  0  0  0  0  0  0  0  0  0  0
    2.3449   -4.5035   -0.8947 H   0  0  0  0  0  0  0  0  0  0  0  0
    0.5463   -0.9483    0.2012 N   0  0  0  0  0  0  0  0  0  0  0  0
   -0.1123    0.2556   -0.3362 C   0  0  2  0  0  0  0  0  0  0  0  0
   -0.4848    0.1570   -1.8454 C   0  0  0  0  0  0  0  0  0  0  0  0
   -1.2018   -0.7340   -2.2830 O   0  0  0  0  0  0  0  0  0  0  0  0
    0.8144    1.4520   -0.0425 C   0  0  0  0  0  0  0  0  0  0  0  0
    0.9243    1.7398    1.4630 C   0  0  0  0  0  0  0  0  0  0  0  0
    1.8695    2.9136    1.7032 C   0  0  0  0  0  0  0  0  0  0  0  0
    3.0467    2.6448    2.0462 O   0  5  0  0  0  0  0  0  0  0  0  0
    1.4355    4.0663    1.4604 O   0  0  0  0  0  0  0  0  0  0  0  0
    1.5597   -0.9194    0.2642 H   0  0  0  0  0  0  0  0  0  0  0  0
   -1.0531    0.4132    0.2020 H   0  0  0  0  0  0  0  0  0  0  0  0
    0.4155    2.3541   -0.5201 H   0  0  0  0  0  0  0  0  0  0  0  0
    1.8121    1.2674   -0.4561 H   0  0  0  0  0  0  0  0  0  0  0  0
   -0.0608    1.9780    1.8743 H   0  0  0  0  0  0  0  0  0  0  0  0
    1.3036    0.8622    1.9947 H   0  0  0  0  0  0  0  0  0  0  0  0
    0.0317    1.0469   -2.7738 N   0  0  0  0  0  0  0  0  0  0  0  0
   -0.1966    0.9783   -4.2243 C   0  0  2  0  0  0  0  0  0  0  0  0
    1.0212    1.4555   -5.0428 C   0  0  0  0  0  0  0  0  0  0  0  0
    1.9272    2.0866   -4.5122 O   0  0  0  0  0  0  0  0  0  0  0  0
   -1.4282    1.8284   -4.5504 C   0  0  0  0  0  0  0  0  0  0  0  0
    0.7188    1.7234   -2.4410 H   0  0  0  0  0  0  0  0  0  0  0  0
   -0.3882   -0.0583   -4.5195 H   0  0  0  0  0  0  0  0  0  0  0  0
   -1.2548    2.8736   -4.2743 H   0  0  0  0  0  0  0  0  0  0  0  0
   -1.6567    1.7822   -5.6193 H   0  0  0  0  0  0  0  0  0  0  0  0
   -2.2981    1.4614   -3.9961 H   0  0  0  0  0  0  0  0  0  0  0  0
    1.1024    1.1673   -6.3939 N   0  0  0  0  0  0  0  0  0  0  0  0
    2.2195    1.5769   -7.2354 C   0  0  0  0  0  0  0  0  0  0  0  0
    0.3463    0.6273   -6.8037 H   0  0  0  0  0  0  0  0  0  0  0  0
    2.2975    2.6689   -7.2624 H   0  0  0  0  0  0  0  0  0  0  0  0
    3.1592    1.1651   -6.8525 H   0  0  0  0  0  0  0  0  0  0  0  0
    2.0751    1.2148   -8.2577 H   0  0  0  0  0  0  0  0  0  0  0  0
  1  2  2  0  0  0  0
  1  3  1  0  0  0  0
  1  7  1  0  0  0  0
  3  4  1  0  0  0  0
  3  5  1  0  0  0  0
  3  6  1  0  0  0  0
  7  8  1  0  0  0  0
  7 12  1  0  0  0  0
  8  9  1  0  0  0  0
  8 11  1  0  0  0  0
  8 13  1  0  0  0  0
  9 10  2  0  0  0  0
  9 17  1  0  0  0  0
 11 14  1  0  0  0  0
 11 15  1  0  0  0  0
 11 16  1  0  0  0  0
 17 18  1  0  0  0  0
 17 26  1  0  0  0  0
 18 19  1  0  0  0  0
 18 21  1  0  0  0  0
 18 27  1  0  0  0  0
 19 20  2  0  0  0  0
 19 32  1  0  0  0  0
 21 22  1  0  0  0  0
 21 28  1  0  0  0  0
 21 29  1  0  0  0  0
 22 23  1  0  0  0  0
 22 30  1  0  0  0  0
 22 31  1  0  0  0  0
 23 24  1  0  0  0  0
 23 25  2  0  0  0  0
 32 33  1  0  0  0  0
 32 37  1  0  0  0  0
 33 34  1  0  0  0  0
 33 36  1  0  0  0  0
 33 38  1  0  0  0  0
 34 35  2  0  0  0  0
 34 42  1  0  0  0  0
 36 39  1  0  0  0  0
 36 40  1  0  0  0  0
 36 41  1  0  0  0  0
 42 43  1  0  0  0  0
 42 44  1  0  0  0  0
 43 45  1  0  0  0  0
 43 46  1  0  0  0  0
 43 47  1  0  0  0  0
M  CHG  1  24  -1
M  END
$$$$

  -OEChem-05262216243D

 47 46  0     1  0  0  0  0  0999 V2000
    0.4128   -5.7832    1.3609 C   0  0  0  0  0  0  0  0  0  0  0  0
    1.4733   -5.8258    1.9651 O   0  0  0  0  0  0  0  0  0  0  0  0
   -0.6166   -6.8809    1.5562 C   0  0  0  0  0  0  0  0  0  0  0  0
   -0.8277   -7.3672    0.6007 H   0  0  0  0  0  0  0  0  0  0  0  0
   -0.2422   -7.6303    2.2592 H   0  0  0  0  0  0  0  0  0  0  0  0
   -1.5421   -6.4562    1.9532 H   0  0  0  0  0  0  0  0  0  0  0  0
    0.1365   -4.7417    0.5033 N   0  0  0  0  0  0  0  0  0  0  0  0
    0.9309   -3.5112    0.4006 C   0  0  2  0  0  0  0  0  0  0  0  0
    0.0375   -2.3193   -0.0077 C   0  0  0  0  0  0  0  0  0  0  0  0
   -1.1416   -2.5204   -0.2723 O   0  0  0  0  0  0  0  0  0  0  0  0
    2.0486   -3.7269   -0.6251 C   0  0  0  0  0  0  0  0  0  0  0  0
   -0.8168   -4.6778    0.1439 H   0  0  0  0  0  0  0  0  0  0  0  0
    1.3731   -3.2734    1.3742 H   0  0  0  0  0  0  0  0  0  0  0  0
    1.6259   -3.9470   -1.6105 H   0  0  0  0  0  0  0  0  0  0  0  0
    2.6743   -2.8327   -0.7056 H   0  0  0  0  0  0  0  0  0  0  0  0
    2.6845   -4.5647   -0.3224 H   0  0  0  0  0  0  0  0  0  0  0  0
    0.5454   -1.0344    0.0150 N   0  0  0  0  0  0  0  0  0  0  0  0
   -0.1212    0.1770   -0.4939 C   0  0  2  0  0  0  0  0  0  0  0  0
   -0.4591    0.1425   -2.0098 C   0  0  0  0  0  0  0  0  0  0  0  0
   -1.4556   -0.4258   -2.4375 O   0  0  0  0  0  0  0  0  0  0  0  0
    0.7840    1.3706   -0.1363 C   0  0  0  0  0  0  0  0  0  0  0  0
    0.8549    1.5996    1.3825 C   0  0  0  0  0  0  0  0  0  0  0  0
    1.7786    2.7716    1.7078 C   0  0  0  0  0  0  0  0  0  0  0  0
    2.8269    2.5149    2.3481 O   0  5  0  0  0  0  0  0  0  0  0  0
    1.4745    3.8999    1.2483 O   0  0  0  0  0  0  0  0  0  0  0  0
    1.4989   -0.9282    0.3514 H   0  0  0  0  0  0  0  0  0  0  0  0
   -1.0751    0.2996    0.0304 H   0  0  0  0  0  0  0  0  0  0  0  0
    0.3854    2.2810   -0.5986 H   0  0  0  0  0  0  0  0  0  0  0  0
    1.7946    1.2125   -0.5289 H   0  0  0  0  0  0  0  0  0  0  0  0
   -0.1431    1.8141    1.7752 H   0  0  0  0  0  0  0  0  0  0  0  0
    1.2247    0.7021    1.8867 H   0  0  0  0  0  0  0  0  0  0  0  0
    0.2901    0.8700   -2.9200 N   0  0  0  0  0  0  0  0  0  0  0  0
    0.0602    0.8941   -4.3705 C   0  0  2  0  0  0  0  0  0  0  0  0
    1.3732    0.8494   -5.1797 C   0  0  0  0  0  0  0  0  0  0  0  0
    2.4522    1.0789   -4.6451 O   0  0  0  0  0  0  0  0  0  0  0  0
   -0.7345    2.1614   -4.6966 C   0  0  0  0  0  0  0  0  0  0  0  0
    1.1493    1.2974   -2.5765 H   0  0  0  0  0  0  0  0  0  0  0  0
   -0.5257    0.0192   -4.6701 H   0  0  0  0  0  0  0  0  0  0  0  0
   -0.1646    3.0531   -4.4163 H   0  0  0  0  0  0  0  0  0  0  0  0
   -0.9589    2.2114   -5.7660 H   0  0  0  0  0  0  0  0  0  0  0  0
   -1.6802    2.1647   -4.1448 H   0  0  0  0  0  0  0  0  0  0  0  0
    1.3415    0.5424   -6.5284 N   0  0  0  0  0  0  0  0  0  0  0  0
    2.5342    0.4643   -7.3616 C   0  0  0  0  0  0  0  0  0  0  0  0
    0.4369    0.3292   -6.9376 H   0  0  0  0  0  0  0  0  0  0  0  0
    3.0602    1.4248   -7.3688 H   0  0  0  0  0  0  0  0  0  0  0  0
    3.2140   -0.3076   -6.9859 H   0  0  0  0  0  0  0  0  0  0  0  0
    2.2595    0.2132   -8.3905 H   0  0  0  0  0  0  0  0  0  0  0  0
  1  2  2  0  0  0  0
  1  3  1  0  0  0  0
  1  7  1  0  0  0  0
  3  4  1  0  0  0  0
  3  5  1  0  0  0  0
  3  6  1  0  0  0  0
  7  8  1  0  0  0  0
  7 12  1  0  0  0  0
  8  9  1  0  0  0  0
  8 11  1  0  0  0  0
  8 13  1  0  0  0  0
  9 10  2  0  0  0  0
  9 17  1  0  0  0  0
 11 14  1  0  0  0  0
 11 15  1  0  0  0  0
 11 16  1  0  0  0  0
 17 18  1  0  0  0  0
 17 26  1  0  0  0  0
 18 19  1  0  0  0  0
 18 21  1  0  0  0  0
 18 27  1  0  0  0  0
 19 20  2  0  0  0  0
 19 32  1  0  0  0  0
 21 22  1  0  0  0  0
 21 28  1  0  0  0  0
 21 29  1  0  0  0  0
 22 23  1  0  0  0  0
 22 30  1  0  0  0  0
 22 31  1  0  0  0  0
 23 24  1  0  0  0  0
 23 25  2  0  0  0  0
 32 33  1  0  0  0  0
 32 37  1  0  0  0  0
 33 34  1  0  0  0  0
 33 36  1  0  0  0  0
 33 38  1  0  0  0  0
 34 35  2  0  0  0  0
 34 42  1  0  0  0  0
 36 39  1  0  0  0  0
 36 40  1  0  0  0  0
 36 41  1  0  0  0  0
 42 43  1  0  0  0  0
 42 44  1  0  0  0  0
 43 45  1  0  0  0  0
 43 46  1  0  0  0  0
 43 47  1  0  0  0  0
M  CHG  1  24  -1
M  END
$$$$

  -OEChem-05262216243D

 47 46  0     1  0  0  0  0  0999 V2000
    0.3331   -5.7550    1.5101 C   0  0  0  0  0  0  0  0  0  0  0  0
    1.3107   -5.7421    2.2419 O   0  0  0  0  0  0  0  0  0  0  0  0
   -0.6944   -6.8646    1.6377 C   0  0  0  0  0  0  0  0  0  0  0  0
   -0.7552   -7.4261    0.7022 H   0  0  0  0  0  0  0  0  0  0  0  0
   -0.4133   -7.5487    2.4432 H   0  0  0  0  0  0  0  0  0  0  0  0
   -1.6755   -6.4392    1.8634 H   0  0  0  0  0  0  0  0  0  0  0  0
    0.1488   -4.7639    0.5713 N   0  0  0  0  0  0  0  0  0  0  0  0
    0.9423   -3.5309    0.4922 C   0  0  2  0  0  0  0  0  0  0  0  0
    0.0980   -2.3717   -0.0806 C   0  0  0  0  0  0  0  0  0  0  0  0
   -1.0181   -2.6070   -0.5272 O   0  0  0  0  0  0  0  0  0  0  0  0
    2.1685   -3.7897   -0.3888 C   0  0  0  0  0  0  0  0  0  0  0  0
   -0.7492   -4.7416    0.0868 H   0  0  0  0  0  0  0  0  0  0  0  0
    1.2708   -3.2370    1.4950 H   0  0  0  0  0  0  0  0  0  0  0  0
    1.8586   -4.0747   -1.3994 H   0  0  0  0  0  0  0  0  0  0  0  0
    2.7913   -2.8922   -0.4552 H   0  0  0  0  0  0  0  0  0  0  0  0
    2.7747   -4.5980    0.0321 H   0  0  0  0  0  0  0  0  0  0  0  0
    0.5837   -1.0788   -0.0473 N   0  0  0  0  0  0  0  0  0  0  0  0
   -0.0966    0.1204   -0.5640 C   0  0  2  0  0  0  0  0  0  0  0  0
   -0.4079    0.0731   -2.0811 C   0  0  0  0  0  0  0  0  0  0  0  0
   -1.5303   -0.1968   -2.4915 O   0  0  0  0  0  0  0  0  0  0  0  0
    0.7894    1.3289   -0.2142 C   0  0  0  0  0  0  0  0  0  0  0  0
    0.8544    1.5703    1.3018 C   0  0  0  0  0  0  0  0  0  0  0  0
    1.7626    2.7590    1.5996 C   0  0  0  0  0  0  0  0  0  0  0  0
    2.9934    2.5237    1.6770 O   0  5  0  0  0  0  0  0  0  0  0  0
    1.2398    3.8965    1.6805 O   0  0  0  0  0  0  0  0  0  0  0  0
    1.4725   -0.9349    0.4265 H   0  0  0  0  0  0  0  0  0  0  0  0
   -1.0574    0.2320   -0.0500 H   0  0  0  0  0  0  0  0  0  0  0  0
    0.3820    2.2291   -0.6890 H   0  0  0  0  0  0  0  0  0  0  0  0
    1.8036    1.1797   -0.6007 H   0  0  0  0  0  0  0  0  0  0  0  0
   -0.1479    1.7685    1.6931 H   0  0  0  0  0  0  0  0  0  0  0  0
    1.2454    0.6888    1.8179 H   0  0  0  0  0  0  0  0  0  0  0  0
    0.5134    0.5491   -2.9983 N   0  0  0  0  0  0  0  0  0  0  0  0
    0.3105    0.5781   -4.4517 C   0  0  2  0  0  0  0  0  0  0  0  0
    1.5739    0.1569   -5.2312 C   0  0  0  0  0  0  0  0  0  0  0  0
    2.6700    0.1195   -4.6826 O   0  0  0  0  0  0  0  0  0  0  0  0
   -0.1143    1.9981   -4.8360 C   0  0  0  0  0  0  0  0  0  0  0  0
    1.4589    0.7142   -2.6563 H   0  0  0  0  0  0  0  0  0  0  0  0
   -0.4843   -0.1212   -4.7311 H   0  0  0  0  0  0  0  0  0  0  0  0
    0.6746    2.7147   -4.5848 H   0  0  0  0  0  0  0  0  0  0  0  0
   -0.3172    2.0624   -5.9089 H   0  0  0  0  0  0  0  0  0  0  0  0
   -1.0241    2.2786   -4.2954 H   0  0  0  0  0  0  0  0  0  0  0  0
    1.4792   -0.1813   -6.5695 N   0  0  0  0  0  0  0  0  0  0  0  0
    2.6231   -0.5791   -7.3794 C   0  0  0  0  0  0  0  0  0  0  0  0
    0.5566   -0.1577   -6.9933 H   0  0  0  0  0  0  0  0  0  0  0  0
    3.3637    0.2267   -7.4165 H   0  0  0  0  0  0  0  0  0  0  0  0
    3.0955   -1.4744   -6.9617 H   0  0  0  0  0  0  0  0  0  0  0  0
    2.3028   -0.8016   -8.4017 H   0  0  0  0  0  0  0  0  0  0  0  0
  1  2  2  0  0  0  0
  1  3  1  0  0  0  0
  1  7  1  0  0  0  0
  3  4  1  0  0  0  0
  3  5  1  0  0  0  0
  3  6  1  0  0  0  0
  7  8  1  0  0  0  0
  7 12  1  0  0  0  0
  8  9  1  0  0  0  0
  8 11  1  0  0  0  0
  8 13  1  0  0  0  0
  9 10  2  0  0  0  0
  9 17  1  0  0  0  0
 11 14  1  0  0  0  0
 11 15  1  0  0  0  0
 11 16  1  0  0  0  0
 17 18  1  0  0  0  0
 17 26  1  0  0  0  0
 18 19  1  0  0  0  0
 18 21  1  0  0  0  0
 18 27  1  0  0  0  0
 19 20  2  0  0  0  0
 19 32  1  0  0  0  0
 21 22  1  0  0  0  0
 21 28  1  0  0  0  0
 21 29  1  0  0  0  0
 22 23  1  0  0  0  0
 22 30  1  0  0  0  0
 22 31  1  0  0  0  0
 23 24  1  0  0  0  0
 23 25  2  0  0  0  0
 32 33  1  0  0  0  0
 32 37  1  0  0  0  0
 33 34  1  0  0  0  0
 33 36  1  0  0  0  0
 33 38  1  0  0  0  0
 34 35  2  0  0  0  0
 34 42  1  0  0  0  0
 36 39  1  0  0  0  0
 36 40  1  0  0  0  0
 36 41  1  0  0  0  0
 42 43  1  0  0  0  0
 42 44  1  0  0  0  0
 43 45  1  0  0  0  0
 43 46  1  0  0  0  0
 43 47  1  0  0  0  0
M  CHG  1  24  -1
M  END
$$$$

  -OEChem-05262216243D

 47 46  0     1  0  0  0  0  0999 V2000
    0.3110   -5.7441    1.4370 C   0  0  0  0  0  0  0  0  0  0  0  0
    1.2079   -5.7190    2.2653 O   0  0  0  0  0  0  0  0  0  0  0  0
   -0.6973   -6.8783    1.4444 C   0  0  0  0  0  0  0  0  0  0  0  0
   -0.6553   -7.4198    0.4962 H   0  0  0  0  0  0  0  0  0  0  0  0
   -0.4783   -7.5741    2.2591 H   0  0  0  0  0  0  0  0  0  0  0  0
   -1.7050   -6.4790    1.5835 H   0  0  0  0  0  0  0  0  0  0  0  0
    0.1997   -4.7452    0.4950 N   0  0  0  0  0  0  0  0  0  0  0  0
    0.9654   -3.4925    0.5133 C   0  0  2  0  0  0  0  0  0  0  0  0
    0.1419   -2.3404   -0.1028 C   0  0  0  0  0  0  0  0  0  0  0  0
   -0.9449   -2.5835   -0.6143 O   0  0  0  0  0  0  0  0  0  0  0  0
    2.2718   -3.7027   -0.2597 C   0  0  0  0  0  0  0  0  0  0  0  0
   -0.6508   -4.7326   -0.0686 H   0  0  0  0  0  0  0  0  0  0  0  0
    1.1974   -3.2144    1.5470 H   0  0  0  0  0  0  0  0  0  0  0  0
    2.0623   -3.9634   -1.3021 H   0  0  0  0  0  0  0  0  0  0  0  0
    2.8805   -2.7933   -0.2439 H   0  0  0  0  0  0  0  0  0  0  0  0
    2.8533   -4.5121    0.1927 H   0  0  0  0  0  0  0  0  0  0  0  0
    0.6163   -1.0439   -0.0584 N   0  0  0  0  0  0  0  0  0  0  0  0
   -0.0884    0.1477   -0.5581 C   0  0  2  0  0  0  0  0  0  0  0  0
   -0.4057    0.0879   -2.0704 C   0  0  0  0  0  0  0  0  0  0  0  0
   -1.5626    0.0554   -2.4740 O   0  0  0  0  0  0  0  0  0  0  0  0
    0.7915    1.3669   -0.2361 C   0  0  0  0  0  0  0  0  0  0  0  0
    0.8953    1.6143    1.2779 C   0  0  0  0  0  0  0  0  0  0  0  0
    1.7968    2.8147    1.5518 C   0  0  0  0  0  0  0  0  0  0  0  0
    3.0300    2.6402    1.3895 O   0  5  0  0  0  0  0  0  0  0  0  0
    1.2604    3.8984    1.8850 O   0  0  0  0  0  0  0  0  0  0  0  0
    1.4797   -0.8868    0.4566 H   0  0  0  0  0  0  0  0  0  0  0  0
   -1.0431    0.2498   -0.0310 H   0  0  0  0  0  0  0  0  0  0  0  0
    0.3594    2.2589   -0.7037 H   0  0  0  0  0  0  0  0  0  0  0  0
    1.7957    1.2291   -0.6523 H   0  0  0  0  0  0  0  0  0  0  0  0
   -0.0994    1.7990    1.6954 H   0  0  0  0  0  0  0  0  0  0  0  0
    1.3136    0.7404    1.7848 H   0  0  0  0  0  0  0  0  0  0  0  0
    0.6058    0.2814   -2.9942 N   0  0  0  0  0  0  0  0  0  0  0  0
    0.4319    0.1870   -4.4478 C   0  0  2  0  0  0  0  0  0  0  0  0
    1.5571   -0.6281   -5.1184 C   0  0  0  0  0  0  0  0  0  0  0  0
    2.6139   -0.8425   -4.5336 O   0  0  0  0  0  0  0  0  0  0  0  0
    0.3896    1.6112   -5.0058 C   0  0  0  0  0  0  0  0  0  0  0  0
    1.5586    0.2230   -2.6383 H   0  0  0  0  0  0  0  0  0  0  0  0
   -0.5115   -0.3174   -4.6810 H   0  0  0  0  0  0  0  0  0  0  0  0
    1.3289    2.1326   -4.7947 H   0  0  0  0  0  0  0  0  0  0  0  0
    0.2329    1.5955   -6.0882 H   0  0  0  0  0  0  0  0  0  0  0  0
   -0.4305    2.1715   -4.5453 H   0  0  0  0  0  0  0  0  0  0  0  0
    1.3840   -1.1198   -6.4000 N   0  0  0  0  0  0  0  0  0  0  0  0
    2.3965   -1.8940   -7.1058 C   0  0  0  0  0  0  0  0  0  0  0  0
    0.4865   -0.9556   -6.8460 H   0  0  0  0  0  0  0  0  0  0  0  0
    3.3099   -1.3032   -7.2327 H   0  0  0  0  0  0  0  0  0  0  0  0
    2.6396   -2.8052   -6.5493 H   0  0  0  0  0  0  0  0  0  0  0  0
    2.0294   -2.1806   -8.0958 H   0  0  0  0  0  0  0  0  0  0  0  0
  1  2  2  0  0  0  0
  1  3  1  0  0  0  0
  1  7  1  0  0  0  0
  3  4  1  0  0  0  0
  3  5  1  0  0  0  0
  3  6  1  0  0  0  0
  7  8  1  0  0  0  0
  7 12  1  0  0  0  0
  8  9  1  0  0  0  0
  8 11  1  0  0  0  0
  8 13  1  0  0  0  0
  9 10  2  0  0  0  0
  9 17  1  0  0  0  0
 11 14  1  0  0  0  0
 11 15  1  0  0  0  0
 11 16  1  0  0  0  0
 17 18  1  0  0  0  0
 17 26  1  0  0  0  0
 18 19  1  0  0  0  0
 18 21  1  0  0  0  0
 18 27  1  0  0  0  0
 19 20  2  0  0  0  0
 19 32  1  0  0  0  0
 21 22  1  0  0  0  0
 21 28  1  0  0  0  0
 21 29  1  0  0  0  0
 22 23  1  0  0  0  0
 22 30  1  0  0  0  0
 22 31  1  0  0  0  0
 23 24  1  0  0  0  0
 23 25  2  0  0  0  0
 32 33  1  0  0  0  0
 32 37  1  0  0  0  0
 33 34  1  0  0  0  0
 33 36  1  0  0  0  0
 33 38  1  0  0  0  0
 34 35  2  0  0  0  0
 34 42  1  0  0  0  0
 36 39  1  0  0  0  0
 36 40  1  0  0  0  0
 36 41  1  0  0  0  0
 42 43  1  0  0  0  0
 42 44  1  0  0  0  0
 43 45  1  0  0  0  0
 43 46  1  0  0  0  0
 43 47  1  0  0  0  0
M  CHG  1  24  -1
M  END
$$$$

  -OEChem-05262216243D

 47 46  0     1  0  0  0  0  0999 V2000
    0.8320   -5.7891    0.4318 C   0  0  0  0  0  0  0  0  0  0  0  0
    1.6492   -5.7909    1.3390 O   0  0  0  0  0  0  0  0  0  0  0  0
    0.0310   -7.0415    0.1262 C   0  0  0  0  0  0  0  0  0  0  0  0
    0.2823   -7.4091   -0.8716 H   0  0  0  0  0  0  0  0  0  0  0  0
    0.2570   -7.8221    0.8579 H   0  0  0  0  0  0  0  0  0  0  0  0
   -1.0386   -6.8205    0.1662 H   0  0  0  0  0  0  0  0  0  0  0  0
    0.6253   -4.6523   -0.3184 N   0  0  0  0  0  0  0  0  0  0  0  0
    1.2008   -3.3348   -0.0207 C   0  0  2  0  0  0  0  0  0  0  0  0
    0.2882   -2.2081   -0.5501 C   0  0  0  0  0  0  0  0  0  0  0  0
   -0.6943   -2.4944   -1.2261 O   0  0  0  0  0  0  0  0  0  0  0  0
    2.5890   -3.2487   -0.6660 C   0  0  0  0  0  0  0  0  0  0  0  0
   -0.1635   -4.6576   -0.9649 H   0  0  0  0  0  0  0  0  0  0  0  0
    1.2937   -3.2068    1.0633 H   0  0  0  0  0  0  0  0  0  0  0  0
    2.5115   -3.3373   -1.7546 H   0  0  0  0  0  0  0  0  0  0  0  0
    3.0666   -2.2938   -0.4267 H   0  0  0  0  0  0  0  0  0  0  0  0
    3.2310   -4.0542   -0.2955 H   0  0  0  0  0  0  0  0  0  0  0  0
    0.5971   -0.8816   -0.3138 N   0  0  0  0  0  0  0  0  0  0  0  0
   -0.1744    0.2671   -0.8173 C   0  0  2  0  0  0  0  0  0  0  0  0
   -0.2344    0.2878   -2.3590 C   0  0  0  0  0  0  0  0  0  0  0  0
   -1.2913    0.1481   -2.9612 O   0  0  0  0  0  0  0  0  0  0  0  0
    0.5143    1.5404   -0.3056 C   0  0  0  0  0  0  0  0  0  0  0  0
    0.4104    1.6773    1.2215 C   0  0  0  0  0  0  0  0  0  0  0  0
    1.1324    2.9419    1.6770 C   0  0  0  0  0  0  0  0  0  0  0  0
    2.3857    2.9316    1.5915 O   0  5  0  0  0  0  0  0  0  0  0  0
    0.4442    3.9144    2.0674 O   0  0  0  0  0  0  0  0  0  0  0  0
    1.3543   -0.6875    0.3383 H   0  0  0  0  0  0  0  0  0  0  0  0
   -1.2007    0.2273   -0.4359 H   0  0  0  0  0  0  0  0  0  0  0  0
    0.0418    2.4163   -0.7649 H   0  0  0  0  0  0  0  0  0  0  0  0
    1.5694    1.5433   -0.6007 H   0  0  0  0  0  0  0  0  0  0  0  0
   -0.6409    1.7241    1.5216 H   0  0  0  0  0  0  0  0  0  0  0  0
    0.8637    0.8166    1.7206 H   0  0  0  0  0  0  0  0  0  0  0  0
    0.9382    0.3649   -3.0884 N   0  0  0  0  0  0  0  0  0  0  0  0
    1.0209    0.0902   -4.5302 C   0  0  2  0  0  0  0  0  0  0  0  0
    1.0403   -1.4297   -4.8372 C   0  0  0  0  0  0  0  0  0  0  0  0
    1.8671   -1.9189   -5.6005 O   0  0  0  0  0  0  0  0  0  0  0  0
    2.2597    0.8255   -5.0562 C   0  0  0  0  0  0  0  0  0  0  0  0
    1.7987    0.3777   -2.5489 H   0  0  0  0  0  0  0  0  0  0  0  0
    0.1440    0.5097   -5.0346 H   0  0  0  0  0  0  0  0  0  0  0  0
    3.1696    0.4235   -4.5993 H   0  0  0  0  0  0  0  0  0  0  0  0
    2.3371    0.7119   -6.1421 H   0  0  0  0  0  0  0  0  0  0  0  0
    2.1938    1.8934   -4.8256 H   0  0  0  0  0  0  0  0  0  0  0  0
    0.1337   -2.2693   -4.2174 N   0  0  0  0  0  0  0  0  0  0  0  0
    0.1190   -3.7161   -4.3676 C   0  0  0  0  0  0  0  0  0  0  0  0
   -0.5195   -1.8367   -3.5566 H   0  0  0  0  0  0  0  0  0  0  0  0
    0.0010   -3.9912   -5.4205 H   0  0  0  0  0  0  0  0  0  0  0  0
    1.0498   -4.1500   -3.9887 H   0  0  0  0  0  0  0  0  0  0  0  0
   -0.7169   -4.1402   -3.8031 H   0  0  0  0  0  0  0  0  0  0  0  0
  1  2  2  0  0  0  0
  1  3  1  0  0  0  0
  1  7  1  0  0  0  0
  3  4  1  0  0  0  0
  3  5  1  0  0  0  0
  3  6  1  0  0  0  0
  7  8  1  0  0  0  0
  7 12  1  0  0  0  0
  8  9  1  0  0  0  0
  8 11  1  0  0  0  0
  8 13  1  0  0  0  0
  9 10  2  0  0  0  0
  9 17  1  0  0  0  0
 11 14  1  0  0  0  0
 11 15  1  0  0  0  0
 11 16  1  0  0  0  0
 17 18  1  0  0  0  0
 17 26  1  0  0  0  0
 18 19  1  0  0  0  0
 18 21  1  0  0  0  0
 18 27  1  0  0  0  0
 19 20  2  0  0  0  0
 19 32  1  0  0  0  0
 21 22  1  0  0  0  0
 21 28  1  0  0  0  0
 21 29  1  0  0  0  0
 22 23  1  0  0  0  0
 22 30  1  0  0  0  0
 22 31  1  0  0  0  0
 23 24  1  0  0  0  0
 23 25  2  0  0  0  0
 32 33  1  0  0  0  0
 32 37  1  0  0  0  0
 33 34  1  0  0  0  0
 33 36  1  0  0  0  0
 33 38  1  0  0  0  0
 34 35  2  0  0  0  0
 34 42  1  0  0  0  0
 36 39  1  0  0  0  0
 36 40  1  0  0  0  0
 36 41  1  0  0  0  0
 42 43  1  0  0  0  0
 42 44  1  0  0  0  0
 43 45  1  0  0  0  0
 43 46  1  0  0  0  0
 43 47  1  0  0  0  0
M  CHG  1  24  -1
M  END
$$$$

  -OEChem-05262216243D

 47 46  0     1  0  0  0  0  0999 V2000
    0.6432   -5.8477    0.7871 C   0  0  0  0  0  0  0  0  0  0  0  0
    1.3313   -5.7958    1.7941 O   0  0  0  0  0  0  0  0  0  0  0  0
   -0.1566   -7.0990    0.4753 C   0  0  0  0  0  0  0  0  0  0  0  0
    0.1475   -7.5046   -0.4928 H   0  0  0  0  0  0  0  0  0  0  0  0
    0.0128   -7.8575    1.2445 H   0  0  0  0  0  0  0  0  0  0  0  0
   -1.2227   -6.8612    0.4437 H   0  0  0  0  0  0  0  0  0  0  0  0
    0.5802   -4.7706   -0.0697 N   0  0  0  0  0  0  0  0  0  0  0  0
    1.1578   -3.4485    0.2049 C   0  0  2  0  0  0  0  0  0  0  0  0
    0.3620   -2.3404   -0.5182 C   0  0  0  0  0  0  0  0  0  0  0  0
   -0.5306   -2.6470   -1.3021 O   0  0  0  0  0  0  0  0  0  0  0  0
    2.6211   -3.4494   -0.2518 C   0  0  0  0  0  0  0  0  0  0  0  0
   -0.1125   -4.8104   -0.8170 H   0  0  0  0  0  0  0  0  0  0  0  0
    1.1128   -3.2403    1.2797 H   0  0  0  0  0  0  0  0  0  0  0  0
    2.6860   -3.6383   -1.3282 H   0  0  0  0  0  0  0  0  0  0  0  0
    3.0926   -2.4857   -0.0365 H   0  0  0  0  0  0  0  0  0  0  0  0
    3.1825   -4.2289    0.2729 H   0  0  0  0  0  0  0  0  0  0  0  0
    0.6710   -1.0068   -0.3271 N   0  0  0  0  0  0  0  0  0  0  0  0
   -0.1232    0.1193   -0.8504 C   0  0  2  0  0  0  0  0  0  0  0  0
   -0.2365    0.1163   -2.3894 C   0  0  0  0  0  0  0  0  0  0  0  0
   -1.3125    0.2858   -2.9463 O   0  0  0  0  0  0  0  0  0  0  0  0
    0.5842    1.4034   -0.3959 C   0  0  0  0  0  0  0  0  0  0  0  0
    0.5215    1.5805    1.1308 C   0  0  0  0  0  0  0  0  0  0  0  0
    1.2580    2.8518    1.5429 C   0  0  0  0  0  0  0  0  0  0  0  0
    2.5097    2.8300    1.4388 O   0  5  0  0  0  0  0  0  0  0  0  0
    0.5841    3.8318    1.9393 O   0  0  0  0  0  0  0  0  0  0  0  0
    1.3369   -0.7912    0.4129 H   0  0  0  0  0  0  0  0  0  0  0  0
   -1.1366    0.0898   -0.4358 H   0  0  0  0  0  0  0  0  0  0  0  0
    0.1004    2.2682   -0.8647 H   0  0  0  0  0  0  0  0  0  0  0  0
    1.6297    1.3943   -0.7244 H   0  0  0  0  0  0  0  0  0  0  0  0
   -0.5219    1.6385    1.4554 H   0  0  0  0  0  0  0  0  0  0  0  0
    0.9842    0.7313    1.6404 H   0  0  0  0  0  0  0  0  0  0  0  0
    0.8894   -0.1204   -3.1563 N   0  0  0  0  0  0  0  0  0  0  0  0
    0.8795   -0.2938   -4.6165 C   0  0  2  0  0  0  0  0  0  0  0  0
    0.6596   -1.7641   -5.0539 C   0  0  0  0  0  0  0  0  0  0  0  0
    1.0856   -2.1675   -6.1317 O   0  0  0  0  0  0  0  0  0  0  0  0
    2.2028    0.2791   -5.1379 C   0  0  0  0  0  0  0  0  0  0  0  0
    1.7454   -0.3141   -2.6461 H   0  0  0  0  0  0  0  0  0  0  0  0
    0.0639    0.2934   -5.0515 H   0  0  0  0  0  0  0  0  0  0  0  0
    3.0485   -0.3063   -4.7637 H   0  0  0  0  0  0  0  0  0  0  0  0
    2.2230    0.2591   -6.2321 H   0  0  0  0  0  0  0  0  0  0  0  0
    2.3222    1.3174   -4.8122 H   0  0  0  0  0  0  0  0  0  0  0  0
    0.0190   -2.6637   -4.2208 N   0  0  0  0  0  0  0  0  0  0  0  0
   -0.2452   -4.0507   -4.5705 C   0  0  0  0  0  0  0  0  0  0  0  0
   -0.3610   -2.3010   -3.3417 H   0  0  0  0  0  0  0  0  0  0  0  0
   -0.8940   -4.1066   -5.4505 H   0  0  0  0  0  0  0  0  0  0  0  0
    0.6905   -4.5768   -4.7847 H   0  0  0  0  0  0  0  0  0  0  0  0
   -0.7439   -4.5565   -3.7383 H   0  0  0  0  0  0  0  0  0  0  0  0
  1  2  2  0  0  0  0
  1  3  1  0  0  0  0
  1  7  1  0  0  0  0
  3  4  1  0  0  0  0
  3  5  1  0  0  0  0
  3  6  1  0  0  0  0
  7  8  1  0  0  0  0
  7 12  1  0  0  0  0
  8  9  1  0  0  0  0
  8 11  1  0  0  0  0
  8 13  1  0  0  0  0
  9 10  2  0  0  0  0
  9 17  1  0  0  0  0
 11 14  1  0  0  0  0
 11 15  1  0  0  0  0
 11 16  1  0  0  0  0
 17 18  1  0  0  0  0
 17 26  1  0  0  0  0
 18 19  1  0  0  0  0
 18 21  1  0  0  0  0
 18 27  1  0  0  0  0
 19 20  2  0  0  0  0
 19 32  1  0  0  0  0
 21 22  1  0  0  0  0
 21 28  1  0  0  0  0
 21 29  1  0  0  0  0
 22 23  1  0  0  0  0
 22 30  1  0  0  0  0
 22 31  1  0  0  0  0
 23 24  1  0  0  0  0
 23 25  2  0  0  0  0
 32 33  1  0  0  0  0
 32 37  1  0  0  0  0
 33 34  1  0  0  0  0
 33 36  1  0  0  0  0
 33 38  1  0  0  0  0
 34 35  2  0  0  0  0
 34 42  1  0  0  0  0
 36 39  1  0  0  0  0
 36 40  1  0  0  0  0
 36 41  1  0  0  0  0
 42 43  1  0  0  0  0
 42 44  1  0  0  0  0
 43 45  1  0  0  0  0
 43 46  1  0  0  0  0
 43 47  1  0  0  0  0
M  CHG  1  24  -1
M  END
$$$$

  -OEChem-05262216243D

 47 46  0     1  0  0  0  0  0999 V2000
    0.2829   -5.7190    1.5906 C   0  0  0  0  0  0  0  0  0  0  0  0
    1.2323   -5.6830    2.3578 O   0  0  0  0  0  0  0  0  0  0  0  0
   -0.7361   -6.8385    1.6998 C   0  0  0  0  0  0  0  0  0  0  0  0
   -0.7725   -7.4025    0.7648 H   0  0  0  0  0  0  0  0  0  0  0  0
   -0.4636   -7.5190    2.5111 H   0  0  0  0  0  0  0  0  0  0  0  0
   -1.7260   -6.4239    1.9056 H   0  0  0  0  0  0  0  0  0  0  0  0
    0.1243   -4.7452    0.6289 N   0  0  0  0  0  0  0  0  0  0  0  0
    0.9462   -3.5336    0.5175 C   0  0  2  0  0  0  0  0  0  0  0  0
    0.1353   -2.3658   -0.0824 C   0  0  0  0  0  0  0  0  0  0  0  0
   -0.9594   -2.5804   -0.5930 O   0  0  0  0  0  0  0  0  0  0  0  0
    2.1595   -3.8471   -0.3641 C   0  0  0  0  0  0  0  0  0  0  0  0
   -0.7418   -4.7504    0.0906 H   0  0  0  0  0  0  0  0  0  0  0  0
    1.2880   -3.2229    1.5108 H   0  0  0  0  0  0  0  0  0  0  0  0
    1.8356   -4.1559   -1.3633 H   0  0  0  0  0  0  0  0  0  0  0  0
    2.8028   -2.9674   -0.4640 H   0  0  0  0  0  0  0  0  0  0  0  0
    2.7499   -4.6564    0.0764 H   0  0  0  0  0  0  0  0  0  0  0  0
    0.6389   -1.0787   -0.0572 N   0  0  0  0  0  0  0  0  0  0  0  0
   -0.0493    0.1083   -0.5960 C   0  0  2  0  0  0  0  0  0  0  0  0
   -0.3484    0.0101   -2.1081 C   0  0  0  0  0  0  0  0  0  0  0  0
   -1.2821    0.6240   -2.6121 O   0  0  0  0  0  0  0  0  0  0  0  0
    0.8672    1.3135   -0.3356 C   0  0  0  0  0  0  0  0  0  0  0  0
    1.0010    1.6148    1.1677 C   0  0  0  0  0  0  0  0  0  0  0  0
    1.9370    2.7993    1.3967 C   0  0  0  0  0  0  0  0  0  0  0  0
    3.1556    2.6103    1.1560 O   0  5  0  0  0  0  0  0  0  0  0  0
    1.4435    3.8770    1.8072 O   0  0  0  0  0  0  0  0  0  0  0  0
    1.5006   -0.9218    0.4619 H   0  0  0  0  0  0  0  0  0  0  0  0
   -1.0024    0.2520   -0.0763 H   0  0  0  0  0  0  0  0  0  0  0  0
    0.4517    2.1989   -0.8303 H   0  0  0  0  0  0  0  0  0  0  0  0
    1.8578    1.1311   -0.7680 H   0  0  0  0  0  0  0  0  0  0  0  0
    0.0164    1.8384    1.5897 H   0  0  0  0  0  0  0  0  0  0  0  0
    1.4044    0.7490    1.6993 H   0  0  0  0  0  0  0  0  0  0  0  0
    0.4927   -0.7225   -2.9242 N   0  0  0  0  0  0  0  0  0  0  0  0
    0.2067   -1.0560   -4.3209 C   0  0  2  0  0  0  0  0  0  0  0  0
    0.7055   -2.4714   -4.6802 C   0  0  0  0  0  0  0  0  0  0  0  0
    1.5279   -3.0467   -3.9729 O   0  0  0  0  0  0  0  0  0  0  0  0
    0.8760   -0.0044   -5.2099 C   0  0  0  0  0  0  0  0  0  0  0  0
    1.1696   -1.3108   -2.4427 H   0  0  0  0  0  0  0  0  0  0  0  0
   -0.8753   -1.0388   -4.4890 H   0  0  0  0  0  0  0  0  0  0  0  0
    1.9598   -0.0075   -5.0552 H   0  0  0  0  0  0  0  0  0  0  0  0
    0.6726   -0.2059   -6.2656 H   0  0  0  0  0  0  0  0  0  0  0  0
    0.4937    0.9927   -4.9685 H   0  0  0  0  0  0  0  0  0  0  0  0
    0.2349   -3.1033   -5.8175 N   0  0  0  0  0  0  0  0  0  0  0  0
    0.6478   -4.4409   -6.2218 C   0  0  0  0  0  0  0  0  0  0  0  0
   -0.4666   -2.6149   -6.3662 H   0  0  0  0  0  0  0  0  0  0  0  0
    1.7243   -4.4648   -6.4214 H   0  0  0  0  0  0  0  0  0  0  0  0
    0.4180   -5.1672   -5.4352 H   0  0  0  0  0  0  0  0  0  0  0  0
    0.1203   -4.7395   -7.1326 H   0  0  0  0  0  0  0  0  0  0  0  0
  1  2  2  0  0  0  0
  1  3  1  0  0  0  0
  1  7  1  0  0  0  0
  3  4  1  0  0  0  0
  3  5  1  0  0  0  0
  3  6  1  0  0  0  0
  7  8  1  0  0  0  0
  7 12  1  0  0  0  0
  8  9  1  0  0  0  0
  8 11  1  0  0  0  0
  8 13  1  0  0  0  0
  9 10  2  0  0  0  0
  9 17  1  0  0  0  0
 11 14  1  0  0  0  0
 11 15  1  0  0  0  0
 11 16  1  0  0  0  0
 17 18  1  0  0  0  0
 17 26  1  0  0  0  0
 18 19  1  0  0  0  0
 18 21  1  0  0  0  0
 18 27  1  0  0  0  0
 19 20  2  0  0  0  0
 19 32  1  0  0  0  0
 21 22  1  0  0  0  0
 21 28  1  0  0  0  0
 21 29  1  0  0  0  0
 22 23  1  0  0  0  0
 22 30  1  0  0  0  0
 22 31  1  0  0  0  0
 23 24  1  0  0  0  0
 23 25  2  0  0  0  0
 32 33  1  0  0  0  0
 32 37  1  0  0  0  0
 33 34  1  0  0  0  0
 33 36  1  0  0  0  0
 33 38  1  0  0  0  0
 34 35  2  0  0  0  0
 34 42  1  0  0  0  0
 36 39  1  0  0  0  0
 36 40  1  0  0  0  0
 36 41  1  0  0  0  0
 42 43  1  0  0  0  0
 42 44  1  0  0  0  0
 43 45  1  0  0  0  0
 43 46  1  0  0  0  0
 43 47  1  0  0  0  0
M  CHG  1  24  -1
M  END
$$$$

  -OEChem-05262216243D

 47 46  0     1  0  0  0  0  0999 V2000
    0.2546   -5.7738    1.5563 C   0  0  0  0  0  0  0  0  0  0  0  0
    1.1272   -5.7442    2.4102 O   0  0  0  0  0  0  0  0  0  0  0  0
   -0.7116   -6.9428    1.4997 C   0  0  0  0  0  0  0  0  0  0  0  0
   -0.7017   -7.3865    0.5011 H   0  0  0  0  0  0  0  0  0  0  0  0
   -0.4233   -7.7065    2.2274 H   0  0  0  0  0  0  0  0  0  0  0  0
   -1.7237   -6.6002    1.7287 H   0  0  0  0  0  0  0  0  0  0  0  0
    0.1355   -4.7496    0.6428 N   0  0  0  0  0  0  0  0  0  0  0  0
    0.9138   -3.5049    0.6650 C   0  0  2  0  0  0  0  0  0  0  0  0
    0.1141   -2.3436    0.0356 C   0  0  0  0  0  0  0  0  0  0  0  0
   -0.9801   -2.5592   -0.4756 O   0  0  0  0  0  0  0  0  0  0  0  0
    2.2201   -3.7386   -0.1024 C   0  0  0  0  0  0  0  0  0  0  0  0
   -0.6776   -4.7596    0.0271 H   0  0  0  0  0  0  0  0  0  0  0  0
    1.1435   -3.2273    1.6995 H   0  0  0  0  0  0  0  0  0  0  0  0
    2.0095   -4.0029   -1.1441 H   0  0  0  0  0  0  0  0  0  0  0  0
    2.8429   -2.8390   -0.0894 H   0  0  0  0  0  0  0  0  0  0  0  0
    2.7881   -4.5544    0.3557 H   0  0  0  0  0  0  0  0  0  0  0  0
    0.6367   -1.0645   -0.0034 N   0  0  0  0  0  0  0  0  0  0  0  0
   -0.0247    0.1074   -0.6084 C   0  0  2  0  0  0  0  0  0  0  0  0
   -0.3236   -0.0404   -2.1201 C   0  0  0  0  0  0  0  0  0  0  0  0
   -1.0736    0.7418   -2.6931 O   0  0  0  0  0  0  0  0  0  0  0  0
    0.9210    1.2991   -0.3874 C   0  0  0  0  0  0  0  0  0  0  0  0
    1.0434    1.6637    1.1031 C   0  0  0  0  0  0  0  0  0  0  0  0
    2.0084    2.8314    1.2920 C   0  0  0  0  0  0  0  0  0  0  0  0
    3.2283    2.5853    1.1185 O   0  5  0  0  0  0  0  0  0  0  0  0
    1.5378    3.9510    1.6063 O   0  0  0  0  0  0  0  0  0  0  0  0
    1.5084   -0.8982    0.4958 H   0  0  0  0  0  0  0  0  0  0  0  0
   -0.9768    0.2955   -0.1020 H   0  0  0  0  0  0  0  0  0  0  0  0
    0.5356    2.1735   -0.9245 H   0  0  0  0  0  0  0  0  0  0  0  0
    1.9114    1.0733   -0.7986 H   0  0  0  0  0  0  0  0  0  0  0  0
    0.0599    1.9333    1.4997 H   0  0  0  0  0  0  0  0  0  0  0  0
    1.4148    0.8126    1.6800 H   0  0  0  0  0  0  0  0  0  0  0  0
    0.2844   -1.0387   -2.8582 N   0  0  0  0  0  0  0  0  0  0  0  0
   -0.0741   -1.3921   -4.2332 C   0  0  2  0  0  0  0  0  0  0  0  0
    0.0848   -2.9060   -4.4890 C   0  0  0  0  0  0  0  0  0  0  0  0
    0.7819   -3.5998   -3.7539 O   0  0  0  0  0  0  0  0  0  0  0  0
    0.8182   -0.5894   -5.1835 C   0  0  0  0  0  0  0  0  0  0  0  0
    0.7460   -1.7618   -2.3103 H   0  0  0  0  0  0  0  0  0  0  0  0
   -1.1230   -1.1360   -4.4163 H   0  0  0  0  0  0  0  0  0  0  0  0
    1.8720   -0.8321   -5.0130 H   0  0  0  0  0  0  0  0  0  0  0  0
    0.5710   -0.8137   -6.2252 H   0  0  0  0  0  0  0  0  0  0  0  0
    0.6768    0.4834   -5.0179 H   0  0  0  0  0  0  0  0  0  0  0  0
   -0.5480   -3.4950   -5.5694 N   0  0  0  0  0  0  0  0  0  0  0  0
   -0.4613   -4.9176   -5.8715 C   0  0  0  0  0  0  0  0  0  0  0  0
   -1.1430   -2.9027   -6.1411 H   0  0  0  0  0  0  0  0  0  0  0  0
    0.5812   -5.2116   -6.0319 H   0  0  0  0  0  0  0  0  0  0  0  0
   -0.8727   -5.5096   -5.0474 H   0  0  0  0  0  0  0  0  0  0  0  0
   -1.0280   -5.1463   -6.7790 H   0  0  0  0  0  0  0  0  0  0  0  0
  1  2  2  0  0  0  0
  1  3  1  0  0  0  0
  1  7  1  0  0  0  0
  3  4  1  0  0  0  0
  3  5  1  0  0  0  0
  3  6  1  0  0  0  0
  7  8  1  0  0  0  0
  7 12  1  0  0  0  0
  8  9  1  0  0  0  0
  8 11  1  0  0  0  0
  8 13  1  0  0  0  0
  9 10  2  0  0  0  0
  9 17  1  0  0  0  0
 11 14  1  0  0  0  0
 11 15  1  0  0  0  0
 11 16  1  0  0  0  0
 17 18  1  0  0  0  0
 17 26  1  0  0  0  0
 18 19  1  0  0  0  0
 18 21  1  0  0  0  0
 18 27  1  0  0  0  0
 19 20  2  0  0  0  0
 19 32  1  0  0  0  0
 21 22  1  0  0  0  0
 21 28  1  0  0  0  0
 21 29  1  0  0  0  0
 22 23  1  0  0  0  0
 22 30  1  0  0  0  0
 22 31  1  0  0  0  0
 23 24  1  0  0  0  0
 23 25  2  0  0  0  0
 32 33  1  0  0  0  0
 32 37  1  0  0  0  0
 33 34  1  0  0  0  0
 33 36  1  0  0  0  0
 33 38  1  0  0  0  0
 34 35  2  0  0  0  0
 34 42  1  0  0  0  0
 36 39  1  0  0  0  0
 36 40  1  0  0  0  0
 36 41  1  0  0  0  0
 42 43  1  0  0  0  0
 42 44  1  0  0  0  0
 43 45  1  0  0  0  0
 43 46  1  0  0  0  0
 43 47  1  0  0  0  0
M  CHG  1  24  -1
M  END
$$$$

  -OEChem-05262216243D

 47 46  0     1  0  0  0  0  0999 V2000
    0.3223   -5.7480    1.8219 C   0  0  0  0  0  0  0  0  0  0  0  0
    1.2429   -5.6782    2.6213 O   0  0  0  0  0  0  0  0  0  0  0  0
   -0.6589   -6.9034    1.8954 C   0  0  0  0  0  0  0  0  0  0  0  0
   -0.6416   -7.4668    0.9594 H   0  0  0  0  0  0  0  0  0  0  0  0
   -0.3917   -7.5743    2.7164 H   0  0  0  0  0  0  0  0  0  0  0  0
   -1.6692   -6.5235    2.0654 H   0  0  0  0  0  0  0  0  0  0  0  0
    0.1606   -4.7787    0.8562 N   0  0  0  0  0  0  0  0  0  0  0  0
    0.9436   -3.5395    0.7685 C   0  0  2  0  0  0  0  0  0  0  0  0
    0.1183   -2.4077    0.1194 C   0  0  0  0  0  0  0  0  0  0  0  0
   -0.9882   -2.6477   -0.3521 O   0  0  0  0  0  0  0  0  0  0  0  0
    2.2061   -3.8215   -0.0537 C   0  0  0  0  0  0  0  0  0  0  0  0
   -0.6831   -4.8203    0.2844 H   0  0  0  0  0  0  0  0  0  0  0  0
    1.2290   -3.2081    1.7729 H   0  0  0  0  0  0  0  0  0  0  0  0
    1.9392   -4.1326   -1.0693 H   0  0  0  0  0  0  0  0  0  0  0  0
    2.8341   -2.9276   -0.1165 H   0  0  0  0  0  0  0  0  0  0  0  0
    2.7926   -4.6194    0.4124 H   0  0  0  0  0  0  0  0  0  0  0  0
    0.6326   -1.1307    0.0070 N   0  0  0  0  0  0  0  0  0  0  0  0
   -0.0373    0.0237   -0.6246 C   0  0  2  0  0  0  0  0  0  0  0  0
   -0.3921   -0.1532   -2.1257 C   0  0  0  0  0  0  0  0  0  0  0  0
   -0.9071    0.7613   -2.7595 O   0  0  0  0  0  0  0  0  0  0  0  0
    0.9237    1.2126   -0.4421 C   0  0  0  0  0  0  0  0  0  0  0  0
    1.0636    1.6104    1.0391 C   0  0  0  0  0  0  0  0  0  0  0  0
    2.0410    2.7728    1.1949 C   0  0  0  0  0  0  0  0  0  0  0  0
    3.2573    2.5124    1.0178 O   0  5  0  0  0  0  0  0  0  0  0  0
    1.5832    3.9015    1.4955 O   0  0  0  0  0  0  0  0  0  0  0  0
    1.5285   -0.9500    0.4559 H   0  0  0  0  0  0  0  0  0  0  0  0
   -0.9742    0.2316   -0.0982 H   0  0  0  0  0  0  0  0  0  0  0  0
    0.5440    2.0808   -0.9927 H   0  0  0  0  0  0  0  0  0  0  0  0
    1.9069    0.9673   -0.8589 H   0  0  0  0  0  0  0  0  0  0  0  0
    0.0861    1.8986    1.4379 H   0  0  0  0  0  0  0  0  0  0  0  0
    1.4320    0.7694    1.6327 H   0  0  0  0  0  0  0  0  0  0  0  0
   -0.0903   -1.3211   -2.8018 N   0  0  0  0  0  0  0  0  0  0  0  0
   -0.4554   -1.5988   -4.1936 C   0  0  2  0  0  0  0  0  0  0  0  0
   -0.6146   -3.1111   -4.4576 C   0  0  0  0  0  0  0  0  0  0  0  0
   -0.0852   -3.9414   -3.7251 O   0  0  0  0  0  0  0  0  0  0  0  0
    0.6262   -1.0139   -5.1074 C   0  0  0  0  0  0  0  0  0  0  0  0
    0.0704   -2.1312   -2.2029 H   0  0  0  0  0  0  0  0  0  0  0  0
   -1.4154   -1.1228   -4.4173 H   0  0  0  0  0  0  0  0  0  0  0  0
    1.5958   -1.4753   -4.8952 H   0  0  0  0  0  0  0  0  0  0  0  0
    0.3776   -1.1891   -6.1579 H   0  0  0  0  0  0  0  0  0  0  0  0
    0.7139    0.0656   -4.9497 H   0  0  0  0  0  0  0  0  0  0  0  0
   -1.3488   -3.5462   -5.5468 N   0  0  0  0  0  0  0  0  0  0  0  0
   -1.5594   -4.9528   -5.8629 C   0  0  0  0  0  0  0  0  0  0  0  0
   -1.8014   -2.8378   -6.1167 H   0  0  0  0  0  0  0  0  0  0  0  0
   -0.6023   -5.4503   -6.0506 H   0  0  0  0  0  0  0  0  0  0  0  0
   -2.0645   -5.4601   -5.0343 H   0  0  0  0  0  0  0  0  0  0  0  0
   -2.1803   -5.0501   -6.7586 H   0  0  0  0  0  0  0  0  0  0  0  0
  1  2  2  0  0  0  0
  1  3  1  0  0  0  0
  1  7  1  0  0  0  0
  3  4  1  0  0  0  0
  3  5  1  0  0  0  0
  3  6  1  0  0  0  0
  7  8  1  0  0  0  0
  7 12  1  0  0  0  0
  8  9  1  0  0  0  0
  8 11  1  0  0  0  0
  8 13  1  0  0  0  0
  9 10  2  0  0  0  0
  9 17  1  0  0  0  0
 11 14  1  0  0  0  0
 11 15  1  0  0  0  0
 11 16  1  0  0  0  0
 17 18  1  0  0  0  0
 17 26  1  0  0  0  0
 18 19  1  0  0  0  0
 18 21  1  0  0  0  0
 18 27  1  0  0  0  0
 19 20  2  0  0  0  0
 19 32  1  0  0  0  0
 21 22  1  0  0  0  0
 21 28  1  0  0  0  0
 21 29  1  0  0  0  0
 22 23  1  0  0  0  0
 22 30  1  0  0  0  0
 22 31  1  0  0  0  0
 23 24  1  0  0  0  0
 23 25  2  0  0  0  0
 32 33  1  0  0  0  0
 32 37  1  0  0  0  0
 33 34  1  0  0  0  0
 33 36  1  0  0  0  0
 33 38  1  0  0  0  0
 34 35  2  0  0  0  0
 34 42  1  0  0  0  0
 36 39  1  0  0  0  0
 36 40  1  0  0  0  0
 36 41  1  0  0  0  0
 42 43  1  0  0  0  0
 42 44  1  0  0  0  0
 43 45  1  0  0  0  0
 43 46  1  0  0  0  0
 43 47  1  0  0  0  0
M  CHG  1  24  -1
M  END
$$$$

  -OEChem-05262216243D

 47 46  0     1  0  0  0  0  0999 V2000
    0.3541   -5.7779    1.7795 C   0  0  0  0  0  0  0  0  0  0  0  0
    1.2625   -5.7247    2.5940 O   0  0  0  0  0  0  0  0  0  0  0  0
   -0.6240   -6.9378    1.8084 C   0  0  0  0  0  0  0  0  0  0  0  0
   -0.6020   -7.4662    0.8522 H   0  0  0  0  0  0  0  0  0  0  0  0
   -0.3573   -7.6376    2.6053 H   0  0  0  0  0  0  0  0  0  0  0  0
   -1.6364   -6.5673    1.9882 H   0  0  0  0  0  0  0  0  0  0  0  0
    0.2034   -4.7879    0.8339 N   0  0  0  0  0  0  0  0  0  0  0  0
    0.9611   -3.5302    0.8071 C   0  0  2  0  0  0  0  0  0  0  0  0
    0.1091   -2.3908    0.2072 C   0  0  0  0  0  0  0  0  0  0  0  0
   -1.0385   -2.6156   -0.1639 O   0  0  0  0  0  0  0  0  0  0  0  0
    2.2342   -3.7521   -0.0172 C   0  0  0  0  0  0  0  0  0  0  0  0
   -0.6427   -4.8140    0.2641 H   0  0  0  0  0  0  0  0  0  0  0  0
    1.2349   -3.2350    1.8262 H   0  0  0  0  0  0  0  0  0  0  0  0
    1.9804   -4.0177   -1.0486 H   0  0  0  0  0  0  0  0  0  0  0  0
    2.8493   -2.8472   -0.0302 H   0  0  0  0  0  0  0  0  0  0  0  0
    2.8287   -4.5627    0.4156 H   0  0  0  0  0  0  0  0  0  0  0  0
    0.6300   -1.1234    0.0352 N   0  0  0  0  0  0  0  0  0  0  0  0
   -0.0402    0.0204   -0.6168 C   0  0  2  0  0  0  0  0  0  0  0  0
   -0.4392   -0.1947   -2.1060 C   0  0  0  0  0  0  0  0  0  0  0  0
   -0.7277    0.7553   -2.8254 O   0  0  0  0  0  0  0  0  0  0  0  0
    0.9406    1.2007   -0.4710 C   0  0  0  0  0  0  0  0  0  0  0  0
    1.1036    1.6286    0.9999 C   0  0  0  0  0  0  0  0  0  0  0  0
    2.0988    2.7801    1.1193 C   0  0  0  0  0  0  0  0  0  0  0  0
    3.3092    2.4989    0.9329 O   0  5  0  0  0  0  0  0  0  0  0  0
    1.6604    3.9208    1.4032 O   0  0  0  0  0  0  0  0  0  0  0  0
    1.5666   -0.9562    0.3974 H   0  0  0  0  0  0  0  0  0  0  0  0
   -0.9629    0.2521   -0.0751 H   0  0  0  0  0  0  0  0  0  0  0  0
    0.5671    2.0649   -1.0320 H   0  0  0  0  0  0  0  0  0  0  0  0
    1.9147    0.9335   -0.8955 H   0  0  0  0  0  0  0  0  0  0  0  0
    0.1353    1.9392    1.4037 H   0  0  0  0  0  0  0  0  0  0  0  0
    1.4669    0.7956    1.6076 H   0  0  0  0  0  0  0  0  0  0  0  0
   -0.4636   -1.4535   -2.6783 N   0  0  0  0  0  0  0  0  0  0  0  0
   -0.8747   -1.7442   -4.0557 C   0  0  2  0  0  0  0  0  0  0  0  0
   -1.3715   -3.1960   -4.2234 C   0  0  0  0  0  0  0  0  0  0  0  0
   -1.0061   -4.0853   -3.4608 O   0  0  0  0  0  0  0  0  0  0  0  0
    0.3147   -1.4897   -4.9884 C   0  0  0  0  0  0  0  0  0  0  0  0
   -0.5023   -2.2278   -2.0104 H   0  0  0  0  0  0  0  0  0  0  0  0
   -1.7001   -1.0798   -4.3318 H   0  0  0  0  0  0  0  0  0  0  0  0
    1.1545   -2.1388   -4.7206 H   0  0  0  0  0  0  0  0  0  0  0  0
    0.0366   -1.6880   -6.0277 H   0  0  0  0  0  0  0  0  0  0  0  0
    0.6426   -0.4481   -4.9131 H   0  0  0  0  0  0  0  0  0  0  0  0
   -2.2233   -3.5139   -5.2667 N   0  0  0  0  0  0  0  0  0  0  0  0
   -2.7485   -4.8536   -5.4937 C   0  0  0  0  0  0  0  0  0  0  0  0
   -2.5279   -2.7545   -5.8685 H   0  0  0  0  0  0  0  0  0  0  0  0
   -1.9307   -5.5588   -5.6749 H   0  0  0  0  0  0  0  0  0  0  0  0
   -3.3213   -5.1924   -4.6241 H   0  0  0  0  0  0  0  0  0  0  0  0
   -3.4089   -4.8577   -6.3661 H   0  0  0  0  0  0  0  0  0  0  0  0
  1  2  2  0  0  0  0
  1  3  1  0  0  0  0
  1  7  1  0  0  0  0
  3  4  1  0  0  0  0
  3  5  1  0  0  0  0
  3  6  1  0  0  0  0
  7  8  1  0  0  0  0
  7 12  1  0  0  0  0
  8  9  1  0  0  0  0
  8 11  1  0  0  0  0
  8 13  1  0  0  0  0
  9 10  2  0  0  0  0
  9 17  1  0  0  0  0
 11 14  1  0  0  0  0
 11 15  1  0  0  0  0
 11 16  1  0  0  0  0
 17 18  1  0  0  0  0
 17 26  1  0  0  0  0
 18 19  1  0  0  0  0
 18 21  1  0  0  0  0
 18 27  1  0  0  0  0
 19 20  2  0  0  0  0
 19 32  1  0  0  0  0
 21 22  1  0  0  0  0
 21 28  1  0  0  0  0
 21 29  1  0  0  0  0
 22 23  1  0  0  0  0
 22 30  1  0  0  0  0
 22 31  1  0  0  0  0
 23 24  1  0  0  0  0
 23 25  2  0  0  0  0
 32 33  1  0  0  0  0
 32 37  1  0  0  0  0
 33 34  1  0  0  0  0
 33 36  1  0  0  0  0
 33 38  1  0  0  0  0
 34 35  2  0  0  0  0
 34 42  1  0  0  0  0
 36 39  1  0  0  0  0
 36 40  1  0  0  0  0
 36 41  1  0  0  0  0
 42 43  1  0  0  0  0
 42 44  1  0  0  0  0
 43 45  1  0  0  0  0
 43 46  1  0  0  0  0
 43 47  1  0  0  0  0
M  CHG  1  24  -1
M  END
$$$$

  -OEChem-05262216243D

 47 46  0     1  0  0  0  0  0999 V2000
    0.3707   -5.8102    1.6708 C   0  0  0  0  0  0  0  0  0  0  0  0
    1.3631   -5.8169    2.3826 O   0  0  0  0  0  0  0  0  0  0  0  0
   -0.6341   -6.9441    1.7590 C   0  0  0  0  0  0  0  0  0  0  0  0
   -0.7402   -7.4247    0.7833 H   0  0  0  0  0  0  0  0  0  0  0  0
   -0.2992   -7.6896    2.4854 H   0  0  0  0  0  0  0  0  0  0  0  0
   -1.6063   -6.5564    2.0732 H   0  0  0  0  0  0  0  0  0  0  0  0
    0.1492   -4.7740    0.7907 N   0  0  0  0  0  0  0  0  0  0  0  0
    0.9353   -3.5339    0.7406 C   0  0  2  0  0  0  0  0  0  0  0  0
    0.0609   -2.3501    0.2735 C   0  0  0  0  0  0  0  0  0  0  0  0
   -1.1325   -2.5256    0.0468 O   0  0  0  0  0  0  0  0  0  0  0  0
    2.1169   -3.7507   -0.2123 C   0  0  0  0  0  0  0  0  0  0  0  0
   -0.7550   -4.7525    0.3173 H   0  0  0  0  0  0  0  0  0  0  0  0
    1.3130   -3.2902    1.7394 H   0  0  0  0  0  0  0  0  0  0  0  0
    1.7570   -3.9601   -1.2251 H   0  0  0  0  0  0  0  0  0  0  0  0
    2.7565   -2.8636   -0.2453 H   0  0  0  0  0  0  0  0  0  0  0  0
    2.7248   -4.5968    0.1236 H   0  0  0  0  0  0  0  0  0  0  0  0
    0.6031   -1.0967    0.0658 N   0  0  0  0  0  0  0  0  0  0  0  0
   -0.0633    0.0531   -0.5804 C   0  0  2  0  0  0  0  0  0  0  0  0
   -0.5113   -0.1854   -2.0544 C   0  0  0  0  0  0  0  0  0  0  0  0
   -0.5490    0.7311   -2.8678 O   0  0  0  0  0  0  0  0  0  0  0  0
    0.9397    1.2195   -0.4670 C   0  0  0  0  0  0  0  0  0  0  0  0
    1.1424    1.6555    0.9963 C   0  0  0  0  0  0  0  0  0  0  0  0
    2.1581    2.7916    1.0830 C   0  0  0  0  0  0  0  0  0  0  0  0
    3.3646    2.4816    0.9183 O   0  5  0  0  0  0  0  0  0  0  0  0
    1.7378    3.9510    1.3145 O   0  0  0  0  0  0  0  0  0  0  0  0
    1.5809   -0.9708    0.3196 H   0  0  0  0  0  0  0  0  0  0  0  0
   -0.9661    0.3076   -0.0164 H   0  0  0  0  0  0  0  0  0  0  0  0
    0.5664    2.0861   -1.0242 H   0  0  0  0  0  0  0  0  0  0  0  0
    1.8993    0.9348   -0.9124 H   0  0  0  0  0  0  0  0  0  0  0  0
    0.1890    1.9851    1.4197 H   0  0  0  0  0  0  0  0  0  0  0  0
    1.5057    0.8213    1.6025 H   0  0  0  0  0  0  0  0  0  0  0  0
   -0.8708   -1.4398   -2.5122 N   0  0  0  0  0  0  0  0  0  0  0  0
   -1.2770   -1.7671   -3.8831 C   0  0  2  0  0  0  0  0  0  0  0  0
   -2.0622   -3.0940   -3.9607 C   0  0  0  0  0  0  0  0  0  0  0  0
   -1.8601   -3.9987   -3.1570 O   0  0  0  0  0  0  0  0  0  0  0  0
   -0.0247   -1.8597   -4.7627 C   0  0  0  0  0  0  0  0  0  0  0  0
   -1.0219   -2.1500   -1.7890 H   0  0  0  0  0  0  0  0  0  0  0  0
   -1.9276   -0.9721   -4.2614 H   0  0  0  0  0  0  0  0  0  0  0  0
    0.6476   -2.6385   -4.3886 H   0  0  0  0  0  0  0  0  0  0  0  0
   -0.2988   -2.0999   -5.7941 H   0  0  0  0  0  0  0  0  0  0  0  0
    0.5144   -0.9073   -4.7639 H   0  0  0  0  0  0  0  0  0  0  0  0
   -2.9801   -3.2930   -4.9772 N   0  0  0  0  0  0  0  0  0  0  0  0
   -3.7638   -4.5128   -5.1238 C   0  0  0  0  0  0  0  0  0  0  0  0
   -3.1462   -2.5194   -5.6140 H   0  0  0  0  0  0  0  0  0  0  0  0
   -3.1049   -5.3777   -5.2540 H   0  0  0  0  0  0  0  0  0  0  0  0
   -4.3890   -4.6749   -4.2394 H   0  0  0  0  0  0  0  0  0  0  0  0
   -4.4152   -4.4401   -5.9998 H   0  0  0  0  0  0  0  0  0  0  0  0
  1  2  2  0  0  0  0
  1  3  1  0  0  0  0
  1  7  1  0  0  0  0
  3  4  1  0  0  0  0
  3  5  1  0  0  0  0
  3  6  1  0  0  0  0
  7  8  1  0  0  0  0
  7 12  1  0  0  0  0
  8  9  1  0  0  0  0
  8 11  1  0  0  0  0
  8 13  1  0  0  0  0
  9 10  2  0  0  0  0
  9 17  1  0  0  0  0
 11 14  1  0  0  0  0
 11 15  1  0  0  0  0
 11 16  1  0  0  0  0
 17 18  1  0  0  0  0
 17 26  1  0  0  0  0
 18 19  1  0  0  0  0
 18 21  1  0  0  0  0
 18 27  1  0  0  0  0
 19 20  2  0  0  0  0
 19 32  1  0  0  0  0
 21 22  1  0  0  0  0
 21 28  1  0  0  0  0
 21 29  1  0  0  0  0
 22 23  1  0  0  0  0
 22 30  1  0  0  0  0
 22 31  1  0  0  0  0
 23 24  1  0  0  0  0
 23 25  2  0  0  0  0
 32 33  1  0  0  0  0
 32 37  1  0  0  0  0
 33 34  1  0  0  0  0
 33 36  1  0  0  0  0
 33 38  1  0  0  0  0
 34 35  2  0  0  0  0
 34 42  1  0  0  0  0
 36 39  1  0  0  0  0
 36 40  1  0  0  0  0
 36 41  1  0  0  0  0
 42 43  1  0  0  0  0
 42 44  1  0  0  0  0
 43 45  1  0  0  0  0
 43 46  1  0  0  0  0
 43 47  1  0  0  0  0
M  CHG  1  24  -1
M  END
$$$$

  -OEChem-05262216243D

 47 46  0     1  0  0  0  0  0999 V2000
    0.4368   -5.8240    1.6384 C   0  0  0  0  0  0  0  0  0  0  0  0
    1.5131   -5.8621    2.2143 O   0  0  0  0  0  0  0  0  0  0  0  0
   -0.5791   -6.9305    1.8544 C   0  0  0  0  0  0  0  0  0  0  0  0
   -0.8557   -7.3761    0.8956 H   0  0  0  0  0  0  0  0  0  0  0  0
   -0.1589   -7.7091    2.4969 H   0  0  0  0  0  0  0  0  0  0  0  0
   -1.4749   -6.5246    2.3310 H   0  0  0  0  0  0  0  0  0  0  0  0
    0.1295   -4.7739    0.8012 N   0  0  0  0  0  0  0  0  0  0  0  0
    0.9352   -3.5538    0.6564 C   0  0  2  0  0  0  0  0  0  0  0  0
    0.0473   -2.3554    0.2572 C   0  0  0  0  0  0  0  0  0  0  0  0
   -1.1619   -2.5139    0.1181 O   0  0  0  0  0  0  0  0  0  0  0  0
    2.0143   -3.8056   -0.4029 C   0  0  0  0  0  0  0  0  0  0  0  0
   -0.8281   -4.7230    0.4512 H   0  0  0  0  0  0  0  0  0  0  0  0
    1.4129   -3.3074    1.6110 H   0  0  0  0  0  0  0  0  0  0  0  0
    1.5545   -4.0345   -1.3695 H   0  0  0  0  0  0  0  0  0  0  0  0
    2.6543   -2.9260   -0.5203 H   0  0  0  0  0  0  0  0  0  0  0  0
    2.6454   -4.6497   -0.1085 H   0  0  0  0  0  0  0  0  0  0  0  0
    0.5889   -1.1019    0.0482 N   0  0  0  0  0  0  0  0  0  0  0  0
   -0.0931    0.0563   -0.5638 C   0  0  2  0  0  0  0  0  0  0  0  0
   -0.5823   -0.1741   -2.0253 C   0  0  0  0  0  0  0  0  0  0  0  0
   -0.3821    0.6509   -2.9101 O   0  0  0  0  0  0  0  0  0  0  0  0
    0.8969    1.2338   -0.4541 C   0  0  0  0  0  0  0  0  0  0  0  0
    1.1230    1.6498    1.0110 C   0  0  0  0  0  0  0  0  0  0  0  0
    2.1251    2.7979    1.0975 C   0  0  0  0  0  0  0  0  0  0  0  0
    3.3328    2.5109    0.9031 O   0  5  0  0  0  0  0  0  0  0  0  0
    1.6909    3.9461    1.3583 O   0  0  0  0  0  0  0  0  0  0  0  0
    1.5842   -0.9953    0.2325 H   0  0  0  0  0  0  0  0  0  0  0  0
   -0.9833    0.2971    0.0260 H   0  0  0  0  0  0  0  0  0  0  0  0
    0.4997    2.1024   -0.9912 H   0  0  0  0  0  0  0  0  0  0  0  0
    1.8509    0.9683   -0.9230 H   0  0  0  0  0  0  0  0  0  0  0  0
    0.1733    1.9593    1.4582 H   0  0  0  0  0  0  0  0  0  0  0  0
    1.5088    0.8102    1.5953 H   0  0  0  0  0  0  0  0  0  0  0  0
   -1.2369   -1.3339   -2.3959 N   0  0  0  0  0  0  0  0  0  0  0  0
   -1.6202   -1.6959   -3.7650 C   0  0  2  0  0  0  0  0  0  0  0  0
   -2.7199   -2.7771   -3.8028 C   0  0  0  0  0  0  0  0  0  0  0  0
   -2.7308   -3.6968   -2.9919 O   0  0  0  0  0  0  0  0  0  0  0  0
   -0.3778   -2.1990   -4.5088 C   0  0  0  0  0  0  0  0  0  0  0  0
   -1.4438   -1.9989   -1.6426 H   0  0  0  0  0  0  0  0  0  0  0  0
   -2.0094   -0.8076   -4.2729 H   0  0  0  0  0  0  0  0  0  0  0  0
    0.0385   -3.0767   -4.0043 H   0  0  0  0  0  0  0  0  0  0  0  0
   -0.6328   -2.4745   -5.5363 H   0  0  0  0  0  0  0  0  0  0  0  0
    0.3904   -1.4202   -4.5424 H   0  0  0  0  0  0  0  0  0  0  0  0
   -3.6789   -2.7507   -4.8000 N   0  0  0  0  0  0  0  0  0  0  0  0
   -4.7511   -3.7318   -4.9046 C   0  0  0  0  0  0  0  0  0  0  0  0
   -3.6681   -1.9599   -5.4375 H   0  0  0  0  0  0  0  0  0  0  0  0
   -4.3379   -4.7393   -5.0193 H   0  0  0  0  0  0  0  0  0  0  0  0
   -5.3801   -3.7081   -4.0086 H   0  0  0  0  0  0  0  0  0  0  0  0
   -5.3777   -3.5152   -5.7748 H   0  0  0  0  0  0  0  0  0  0  0  0
  1  2  2  0  0  0  0
  1  3  1  0  0  0  0
  1  7  1  0  0  0  0
  3  4  1  0  0  0  0
  3  5  1  0  0  0  0
  3  6  1  0  0  0  0
  7  8  1  0  0  0  0
  7 12  1  0  0  0  0
  8  9  1  0  0  0  0
  8 11  1  0  0  0  0
  8 13  1  0  0  0  0
  9 10  2  0  0  0  0
  9 17  1  0  0  0  0
 11 14  1  0  0  0  0
 11 15  1  0  0  0  0
 11 16  1  0  0  0  0
 17 18  1  0  0  0  0
 17 26  1  0  0  0  0
 18 19  1  0  0  0  0
 18 21  1  0  0  0  0
 18 27  1  0  0  0  0
 19 20  2  0  0  0  0
 19 32  1  0  0  0  0
 21 22  1  0  0  0  0
 21 28  1  0  0  0  0
 21 29  1  0  0  0  0
 22 23  1  0  0  0  0
 22 30  1  0  0  0  0
 22 31  1  0  0  0  0
 23 24  1  0  0  0  0
 23 25  2  0  0  0  0
 32 33  1  0  0  0  0
 32 37  1  0  0  0  0
 33 34  1  0  0  0  0
 33 36  1  0  0  0  0
 33 38  1  0  0  0  0
 34 35  2  0  0  0  0
 34 42  1  0  0  0  0
 36 39  1  0  0  0  0
 36 40  1  0  0  0  0
 36 41  1  0  0  0  0
 42 43  1  0  0  0  0
 42 44  1  0  0  0  0
 43 45  1  0  0  0  0
 43 46  1  0  0  0  0
 43 47  1  0  0  0  0
M  CHG  1  24  -1
M  END
$$$$

  -OEChem-05262216243D

 47 46  0     1  0  0  0  0  0999 V2000
    0.5327   -5.8097    1.6582 C   0  0  0  0  0  0  0  0  0  0  0  0
    1.6463   -5.8369    2.1583 O   0  0  0  0  0  0  0  0  0  0  0  0
   -0.4668   -6.9084    1.9696 C   0  0  0  0  0  0  0  0  0  0  0  0
   -0.8296   -7.3574    1.0417 H   0  0  0  0  0  0  0  0  0  0  0  0
    0.0037   -7.6866    2.5768 H   0  0  0  0  0  0  0  0  0  0  0  0
   -1.3147   -6.4944    2.5212 H   0  0  0  0  0  0  0  0  0  0  0  0
    0.1696   -4.7818    0.8160 N   0  0  0  0  0  0  0  0  0  0  0  0
    0.9652   -3.5700    0.5795 C   0  0  2  0  0  0  0  0  0  0  0  0
    0.0542   -2.3857    0.1912 C   0  0  0  0  0  0  0  0  0  0  0  0
   -1.1534   -2.5652    0.0615 O   0  0  0  0  0  0  0  0  0  0  0  0
    1.9791   -3.8567   -0.5338 C   0  0  0  0  0  0  0  0  0  0  0  0
   -0.8104   -4.7344    0.5358 H   0  0  0  0  0  0  0  0  0  0  0  0
    1.4987   -3.2918    1.4951 H   0  0  0  0  0  0  0  0  0  0  0  0
    1.4627   -4.1167   -1.4633 H   0  0  0  0  0  0  0  0  0  0  0  0
    2.6083   -2.9806   -0.7177 H   0  0  0  0  0  0  0  0  0  0  0  0
    2.6289   -4.6907   -0.2503 H   0  0  0  0  0  0  0  0  0  0  0  0
    0.5751   -1.1203    0.0047 N   0  0  0  0  0  0  0  0  0  0  0  0
   -0.1366    0.0442   -0.5550 C   0  0  2  0  0  0  0  0  0  0  0  0
   -0.6560   -0.1644   -2.0066 C   0  0  0  0  0  0  0  0  0  0  0  0
   -0.2677    0.5327   -2.9378 O   0  0  0  0  0  0  0  0  0  0  0  0
    0.8338    1.2364   -0.4398 C   0  0  0  0  0  0  0  0  0  0  0  0
    1.0902    1.6160    1.0301 C   0  0  0  0  0  0  0  0  0  0  0  0
    2.0728    2.7802    1.1232 C   0  0  0  0  0  0  0  0  0  0  0  0
    3.2867    2.5133    0.9401 O   0  5  0  0  0  0  0  0  0  0  0  0
    1.6166    3.9221    1.3739 O   0  0  0  0  0  0  0  0  0  0  0  0
    1.5712   -1.0024    0.1775 H   0  0  0  0  0  0  0  0  0  0  0  0
   -1.0157    0.2568    0.0620 H   0  0  0  0  0  0  0  0  0  0  0  0
    0.4066    2.1091   -0.9471 H   0  0  0  0  0  0  0  0  0  0  0  0
    1.7811    1.0004   -0.9378 H   0  0  0  0  0  0  0  0  0  0  0  0
    0.1477    1.8954    1.5103 H   0  0  0  0  0  0  0  0  0  0  0  0
    1.5054    0.7678    1.5811 H   0  0  0  0  0  0  0  0  0  0  0  0
   -1.5548   -1.1713   -2.3054 N   0  0  0  0  0  0  0  0  0  0  0  0
   -1.9623   -1.5563   -3.6618 C   0  0  2  0  0  0  0  0  0  0  0  0
   -3.3326   -2.2639   -3.6964 C   0  0  0  0  0  0  0  0  0  0  0  0
   -3.6285   -3.1133   -2.8638 O   0  0  0  0  0  0  0  0  0  0  0  0
   -0.8847   -2.4735   -4.2494 C   0  0  0  0  0  0  0  0  0  0  0  0
   -1.7919   -1.8032   -1.5323 H   0  0  0  0  0  0  0  0  0  0  0  0
   -2.0430   -0.6574   -4.2816 H   0  0  0  0  0  0  0  0  0  0  0  0
   -0.7735   -3.3730   -3.6355 H   0  0  0  0  0  0  0  0  0  0  0  0
   -1.1535   -2.7748   -5.2662 H   0  0  0  0  0  0  0  0  0  0  0  0
    0.0787   -1.9553   -4.2861 H   0  0  0  0  0  0  0  0  0  0  0  0
   -4.2232   -1.9906   -4.7197 N   0  0  0  0  0  0  0  0  0  0  0  0
   -5.5420   -2.6021   -4.8176 C   0  0  0  0  0  0  0  0  0  0  0  0
   -3.9730   -1.2501   -5.3685 H   0  0  0  0  0  0  0  0  0  0  0  0
   -5.4556   -3.6927   -4.8661 H   0  0  0  0  0  0  0  0  0  0  0  0
   -6.1533   -2.3345   -3.9494 H   0  0  0  0  0  0  0  0  0  0  0  0
   -6.0521   -2.2562   -5.7215 H   0  0  0  0  0  0  0  0  0  0  0  0
  1  2  2  0  0  0  0
  1  3  1  0  0  0  0
  1  7  1  0  0  0  0
  3  4  1  0  0  0  0
  3  5  1  0  0  0  0
  3  6  1  0  0  0  0
  7  8  1  0  0  0  0
  7 12  1  0  0  0  0
  8  9  1  0  0  0  0
  8 11  1  0  0  0  0
  8 13  1  0  0  0  0
  9 10  2  0  0  0  0
  9 17  1  0  0  0  0
 11 14  1  0  0  0  0
 11 15  1  0  0  0  0
 11 16  1  0  0  0  0
 17 18  1  0  0  0  0
 17 26  1  0  0  0  0
 18 19  1  0  0  0  0
 18 21  1  0  0  0  0
 18 27  1  0  0  0  0
 19 20  2  0  0  0  0
 19 32  1  0  0  0  0
 21 22  1  0  0  0  0
 21 28  1  0  0  0  0
 21 29  1  0  0  0  0
 22 23  1  0  0  0  0
 22 30  1  0  0  0  0
 22 31  1  0  0  0  0
 23 24  1  0  0  0  0
 23 25  2  0  0  0  0
 32 33  1  0  0  0  0
 32 37  1  0  0  0  0
 33 34  1  0  0  0  0
 33 36  1  0  0  0  0
 33 38  1  0  0  0  0
 34 35  2  0  0  0  0
 34 42  1  0  0  0  0
 36 39  1  0  0  0  0
 36 40  1  0  0  0  0
 36 41  1  0  0  0  0
 42 43  1  0  0  0  0
 42 44  1  0  0  0  0
 43 45  1  0  0  0  0
 43 46  1  0  0  0  0
 43 47  1  0  0  0  0
M  CHG  1  24  -1
M  END
$$$$

  -OEChem-05262216243D

 47 46  0     1  0  0  0  0  0999 V2000
    0.5289   -5.8060    1.6152 C   0  0  0  0  0  0  0  0  0  0  0  0
    1.6570   -5.8408    2.0813 O   0  0  0  0  0  0  0  0  0  0  0  0
   -0.4672   -6.8987    1.9583 C   0  0  0  0  0  0  0  0  0  0  0  0
   -0.8833   -7.3269    1.0430 H   0  0  0  0  0  0  0  0  0  0  0  0
    0.0251   -7.6932    2.5258 H   0  0  0  0  0  0  0  0  0  0  0  0
   -1.2797   -6.4853    2.5610 H   0  0  0  0  0  0  0  0  0  0  0  0
    0.1490   -4.7764    0.7817 N   0  0  0  0  0  0  0  0  0  0  0  0
    0.9526   -3.5774    0.5086 C   0  0  2  0  0  0  0  0  0  0  0  0
    0.0505   -2.3856    0.1229 C   0  0  0  0  0  0  0  0  0  0  0  0
   -1.1566   -2.5573   -0.0272 O   0  0  0  0  0  0  0  0  0  0  0  0
    1.9387   -3.8893   -0.6226 C   0  0  0  0  0  0  0  0  0  0  0  0
   -0.8369   -4.7234    0.5252 H   0  0  0  0  0  0  0  0  0  0  0  0
    1.5091   -3.2932    1.4085 H   0  0  0  0  0  0  0  0  0  0  0  0
    1.3998   -4.1692   -1.5334 H   0  0  0  0  0  0  0  0  0  0  0  0
    2.5637   -3.0178   -0.8405 H   0  0  0  0  0  0  0  0  0  0  0  0
    2.5950   -4.7174   -0.3374 H   0  0  0  0  0  0  0  0  0  0  0  0
    0.5808   -1.1194   -0.0272 N   0  0  0  0  0  0  0  0  0  0  0  0
   -0.1420    0.0586   -0.5348 C   0  0  2  0  0  0  0  0  0  0  0  0
   -0.6802   -0.1237   -1.9787 C   0  0  0  0  0  0  0  0  0  0  0  0
   -0.1395    0.4078   -2.9429 O   0  0  0  0  0  0  0  0  0  0  0  0
    0.8200    1.2554   -0.4152 C   0  0  0  0  0  0  0  0  0  0  0  0
    1.1092    1.5980    1.0572 C   0  0  0  0  0  0  0  0  0  0  0  0
    2.0832    2.7684    1.1560 C   0  0  0  0  0  0  0  0  0  0  0  0
    3.3050    2.5030    1.0336 O   0  5  0  0  0  0  0  0  0  0  0  0
    1.6099    3.9165    1.3379 O   0  0  0  0  0  0  0  0  0  0  0  0
    1.5777   -1.0071    0.1447 H   0  0  0  0  0  0  0  0  0  0  0  0
   -1.0089    0.2531    0.1047 H   0  0  0  0  0  0  0  0  0  0  0  0
    0.3731    2.1340   -0.8941 H   0  0  0  0  0  0  0  0  0  0  0  0
    1.7577    1.0394   -0.9395 H   0  0  0  0  0  0  0  0  0  0  0  0
    0.1773    1.8574    1.5685 H   0  0  0  0  0  0  0  0  0  0  0  0
    1.5439    0.7384    1.5746 H   0  0  0  0  0  0  0  0  0  0  0  0
   -1.7890   -0.9145   -2.2136 N   0  0  0  0  0  0  0  0  0  0  0  0
   -2.2772   -1.2787   -3.5490 C   0  0  2  0  0  0  0  0  0  0  0  0
   -3.7828   -1.6141   -3.5682 C   0  0  0  0  0  0  0  0  0  0  0  0
   -4.3048   -2.2488   -2.6587 O   0  0  0  0  0  0  0  0  0  0  0  0
   -1.4641   -2.4769   -4.0487 C   0  0  0  0  0  0  0  0  0  0  0  0
   -2.0811   -1.5009   -1.4246 H   0  0  0  0  0  0  0  0  0  0  0  0
   -2.1245   -0.4360   -4.2309 H   0  0  0  0  0  0  0  0  0  0  0  0
   -1.5873   -3.3301   -3.3736 H   0  0  0  0  0  0  0  0  0  0  0  0
   -1.7944   -2.7709   -5.0493 H   0  0  0  0  0  0  0  0  0  0  0  0
   -0.4009   -2.2218   -4.0972 H   0  0  0  0  0  0  0  0  0  0  0  0
   -4.5541   -1.2454   -4.6565 N   0  0  0  0  0  0  0  0  0  0  0  0
   -5.9876   -1.4927   -4.7415 C   0  0  0  0  0  0  0  0  0  0  0  0
   -4.1101   -0.6703   -5.3664 H   0  0  0  0  0  0  0  0  0  0  0  0
   -6.2003   -2.5610   -4.6281 H   0  0  0  0  0  0  0  0  0  0  0  0
   -6.5173   -0.9416   -3.9574 H   0  0  0  0  0  0  0  0  0  0  0  0
   -6.3696   -1.1674   -5.7138 H   0  0  0  0  0  0  0  0  0  0  0  0
  1  2  2  0  0  0  0
  1  3  1  0  0  0  0
  1  7  1  0  0  0  0
  3  4  1  0  0  0  0
  3  5  1  0  0  0  0
  3  6  1  0  0  0  0
  7  8  1  0  0  0  0
  7 12  1  0  0  0  0
  8  9  1  0  0  0  0
  8 11  1  0  0  0  0
  8 13  1  0  0  0  0
  9 10  2  0  0  0  0
  9 17  1  0  0  0  0
 11 14  1  0  0  0  0
 11 15  1  0  0  0  0
 11 16  1  0  0  0  0
 17 18  1  0  0  0  0
 17 26  1  0  0  0  0
 18 19  1  0  0  0  0
 18 21  1  0  0  0  0
 18 27  1  0  0  0  0
 19 20  2  0  0  0  0
 19 32  1  0  0  0  0
 21 22  1  0  0  0  0
 21 28  1  0  0  0  0
 21 29  1  0  0  0  0
 22 23  1  0  0  0  0
 22 30  1  0  0  0  0
 22 31  1  0  0  0  0
 23 24  1  0  0  0  0
 23 25  2  0  0  0  0
 32 33  1  0  0  0  0
 32 37  1  0  0  0  0
 33 34  1  0  0  0  0
 33 36  1  0  0  0  0
 33 38  1  0  0  0  0
 34 35  2  0  0  0  0
 34 42  1  0  0  0  0
 36 39  1  0  0  0  0
 36 40  1  0  0  0  0
 36 41  1  0  0  0  0
 42 43  1  0  0  0  0
 42 44  1  0  0  0  0
 43 45  1  0  0  0  0
 43 46  1  0  0  0  0
 43 47  1  0  0  0  0
M  CHG  1  24  -1
M  END
$$$$

  -OEChem-05262216243D

 47 46  0     1  0  0  0  0  0999 V2000
    0.4483   -5.8071    1.5253 C   0  0  0  0  0  0  0  0  0  0  0  0
    1.5857   -5.8832    1.9626 O   0  0  0  0  0  0  0  0  0  0  0  0
   -0.5702   -6.8774    1.8723 C   0  0  0  0  0  0  0  0  0  0  0  0
   -0.9434   -7.3465    0.9586 H   0  0  0  0  0  0  0  0  0  0  0  0
   -0.1113   -7.6454    2.5013 H   0  0  0  0  0  0  0  0  0  0  0  0
   -1.4087   -6.4326    2.4140 H   0  0  0  0  0  0  0  0  0  0  0  0
    0.0789   -4.7531    0.7182 N   0  0  0  0  0  0  0  0  0  0  0  0
    0.9131   -3.5768    0.4396 C   0  0  2  0  0  0  0  0  0  0  0  0
    0.0398   -2.3526    0.0924 C   0  0  0  0  0  0  0  0  0  0  0  0
   -1.1710   -2.4912   -0.0702 O   0  0  0  0  0  0  0  0  0  0  0  0
    1.8578   -3.9037   -0.7219 C   0  0  0  0  0  0  0  0  0  0  0  0
   -0.9094   -4.6684    0.4808 H   0  0  0  0  0  0  0  0  0  0  0  0
    1.5021   -3.3231    1.3277 H   0  0  0  0  0  0  0  0  0  0  0  0
    1.2854   -4.1530   -1.6211 H   0  0  0  0  0  0  0  0  0  0  0  0
    2.5030   -3.0485   -0.9455 H   0  0  0  0  0  0  0  0  0  0  0  0
    2.4952   -4.7559   -0.4660 H   0  0  0  0  0  0  0  0  0  0  0  0
    0.5975   -1.0941   -0.0203 N   0  0  0  0  0  0  0  0  0  0  0  0
   -0.1234    0.0957   -0.4951 C   0  0  2  0  0  0  0  0  0  0  0  0
   -0.6579   -0.0771   -1.9384 C   0  0  0  0  0  0  0  0  0  0  0  0
    0.0059    0.2481   -2.9176 O   0  0  0  0  0  0  0  0  0  0  0  0
    0.8361    1.2937   -0.3794 C   0  0  0  0  0  0  0  0  0  0  0  0
    1.1540    1.6211    1.0902 C   0  0  0  0  0  0  0  0  0  0  0  0
    2.1258    2.7943    1.1817 C   0  0  0  0  0  0  0  0  0  0  0  0
    3.3510    2.5273    1.1078 O   0  5  0  0  0  0  0  0  0  0  0  0
    1.6456    3.9478    1.3025 O   0  0  0  0  0  0  0  0  0  0  0  0
    1.5996   -1.0030    0.1312 H   0  0  0  0  0  0  0  0  0  0  0  0
   -0.9845    0.2835    0.1543 H   0  0  0  0  0  0  0  0  0  0  0  0
    0.3778    2.1747   -0.8428 H   0  0  0  0  0  0  0  0  0  0  0  0
    1.7652    1.0850   -0.9218 H   0  0  0  0  0  0  0  0  0  0  0  0
    0.2324    1.8714    1.6240 H   0  0  0  0  0  0  0  0  0  0  0  0
    1.6017    0.7564    1.5879 H   0  0  0  0  0  0  0  0  0  0  0  0
   -1.9190   -0.6033   -2.1424 N   0  0  0  0  0  0  0  0  0  0  0  0
   -2.4737   -0.9226   -3.4631 C   0  0  2  0  0  0  0  0  0  0  0  0
   -4.0161   -0.9183   -3.4775 C   0  0  0  0  0  0  0  0  0  0  0  0
   -4.6598   -1.3259   -2.5171 O   0  0  0  0  0  0  0  0  0  0  0  0
   -1.9485   -2.2968   -3.8914 C   0  0  0  0  0  0  0  0  0  0  0  0
   -2.3198   -1.0880   -1.3356 H   0  0  0  0  0  0  0  0  0  0  0  0
   -2.1392   -0.1714   -4.1858 H   0  0  0  0  0  0  0  0  0  0  0  0
   -2.2518   -3.0624   -3.1699 H   0  0  0  0  0  0  0  0  0  0  0  0
   -2.3433   -2.5670   -4.8752 H   0  0  0  0  0  0  0  0  0  0  0  0
   -0.8556   -2.2865   -3.9490 H   0  0  0  0  0  0  0  0  0  0  0  0
   -4.6931   -0.4953   -4.6082 N   0  0  0  0  0  0  0  0  0  0  0  0
   -6.1463   -0.4300   -4.6926 C   0  0  0  0  0  0  0  0  0  0  0  0
   -4.1375   -0.1062   -5.3643 H   0  0  0  0  0  0  0  0  0  0  0  0
   -6.5841   -1.4208   -4.5319 H   0  0  0  0  0  0  0  0  0  0  0  0
   -6.5428    0.2581   -3.9387 H   0  0  0  0  0  0  0  0  0  0  0  0
   -6.4515   -0.0743   -5.6812 H   0  0  0  0  0  0  0  0  0  0  0  0
  1  2  2  0  0  0  0
  1  3  1  0  0  0  0
  1  7  1  0  0  0  0
  3  4  1  0  0  0  0
  3  5  1  0  0  0  0
  3  6  1  0  0  0  0
  7  8  1  0  0  0  0
  7 12  1  0  0  0  0
  8  9  1  0  0  0  0
  8 11  1  0  0  0  0
  8 13  1  0  0  0  0
  9 10  2  0  0  0  0
  9 17  1  0  0  0  0
 11 14  1  0  0  0  0
 11 15  1  0  0  0  0
 11 16  1  0  0  0  0
 17 18  1  0  0  0  0
 17 26  1  0  0  0  0
 18 19  1  0  0  0  0
 18 21  1  0  0  0  0
 18 27  1  0  0  0  0
 19 20  2  0  0  0  0
 19 32  1  0  0  0  0
 21 22  1  0  0  0  0
 21 28  1  0  0  0  0
 21 29  1  0  0  0  0
 22 23  1  0  0  0  0
 22 30  1  0  0  0  0
 22 31  1  0  0  0  0
 23 24  1  0  0  0  0
 23 25  2  0  0  0  0
 32 33  1  0  0  0  0
 32 37  1  0  0  0  0
 33 34  1  0  0  0  0
 33 36  1  0  0  0  0
 33 38  1  0  0  0  0
 34 35  2  0  0  0  0
 34 42  1  0  0  0  0
 36 39  1  0  0  0  0
 36 40  1  0  0  0  0
 36 41  1  0  0  0  0
 42 43  1  0  0  0  0
 42 44  1  0  0  0  0
 43 45  1  0  0  0  0
 43 46  1  0  0  0  0
 43 47  1  0  0  0  0
M  CHG  1  24  -1
M  END
$$$$

  -OEChem-05262216243D

 47 46  0     1  0  0  0  0  0999 V2000
    0.3850   -5.8168    1.4431 C   0  0  0  0  0  0  0  0  0  0  0  0
    1.5245   -5.9251    1.8681 O   0  0  0  0  0  0  0  0  0  0  0  0
   -0.6532   -6.8718    1.7780 C   0  0  0  0  0  0  0  0  0  0  0  0
   -1.0281   -7.3302    0.8595 H   0  0  0  0  0  0  0  0  0  0  0  0
   -0.2117   -7.6501    2.4067 H   0  0  0  0  0  0  0  0  0  0  0  0
   -1.4877   -6.4155    2.3161 H   0  0  0  0  0  0  0  0  0  0  0  0
    0.0299   -4.7413    0.6588 N   0  0  0  0  0  0  0  0  0  0  0  0
    0.8816   -3.5737    0.3981 C   0  0  2  0  0  0  0  0  0  0  0  0
    0.0246   -2.3239    0.1047 C   0  0  0  0  0  0  0  0  0  0  0  0
   -1.1916   -2.4342   -0.0394 O   0  0  0  0  0  0  0  0  0  0  0  0
    1.7973   -3.8857   -0.7903 C   0  0  0  0  0  0  0  0  0  0  0  0
   -0.9585   -4.6330    0.4319 H   0  0  0  0  0  0  0  0  0  0  0  0
    1.4936   -3.3565    1.2803 H   0  0  0  0  0  0  0  0  0  0  0  0
    1.2036   -4.0894   -1.6871 H   0  0  0  0  0  0  0  0  0  0  0  0
    2.4612   -3.0405   -0.9969 H   0  0  0  0  0  0  0  0  0  0  0  0
    2.4153   -4.7628   -0.5742 H   0  0  0  0  0  0  0  0  0  0  0  0
    0.6062   -1.0752    0.0128 N   0  0  0  0  0  0  0  0  0  0  0  0
   -0.1040    0.1264   -0.4435 C   0  0  2  0  0  0  0  0  0  0  0  0
   -0.6390   -0.0311   -1.8858 C   0  0  0  0  0  0  0  0  0  0  0  0
    0.1138    0.0134   -2.8539 O   0  0  0  0  0  0  0  0  0  0  0  0
    0.8621    1.3182   -0.3375 C   0  0  0  0  0  0  0  0  0  0  0  0
    1.2045    1.6399    1.1272 C   0  0  0  0  0  0  0  0  0  0  0  0
    2.1832    2.8086    1.2027 C   0  0  0  0  0  0  0  0  0  0  0  0
    3.4070    2.5307    1.2457 O   0  5  0  0  0  0  0  0  0  0  0  0
    1.7094    3.9707    1.1779 O   0  0  0  0  0  0  0  0  0  0  0  0
    1.6172   -1.0139    0.1067 H   0  0  0  0  0  0  0  0  0  0  0  0
   -0.9585    0.3167    0.2136 H   0  0  0  0  0  0  0  0  0  0  0  0
    0.4020    2.2025   -0.7924 H   0  0  0  0  0  0  0  0  0  0  0  0
    1.7824    1.1056   -0.8933 H   0  0  0  0  0  0  0  0  0  0  0  0
    0.2937    1.8973    1.6759 H   0  0  0  0  0  0  0  0  0  0  0  0
    1.6531    0.7709    1.6170 H   0  0  0  0  0  0  0  0  0  0  0  0
   -1.9871   -0.2442   -2.1027 N   0  0  0  0  0  0  0  0  0  0  0  0
   -2.5798   -0.5205   -3.4162 C   0  0  2  0  0  0  0  0  0  0  0  0
   -4.0776   -0.1554   -3.4764 C   0  0  0  0  0  0  0  0  0  0  0  0
   -4.7938   -0.2657   -2.4872 O   0  0  0  0  0  0  0  0  0  0  0  0
   -2.3879   -2.0073   -3.7339 C   0  0  0  0  0  0  0  0  0  0  0  0
   -2.5453   -0.4684   -1.2793 H   0  0  0  0  0  0  0  0  0  0  0  0
   -2.0657    0.0772   -4.1757 H   0  0  0  0  0  0  0  0  0  0  0  0
   -2.8775   -2.6258   -2.9745 H   0  0  0  0  0  0  0  0  0  0  0  0
   -2.8157   -2.2482   -4.7116 H   0  0  0  0  0  0  0  0  0  0  0  0
   -1.3228   -2.2591   -3.7517 H   0  0  0  0  0  0  0  0  0  0  0  0
   -4.6386    0.2665   -4.6691 N   0  0  0  0  0  0  0  0  0  0  0  0
   -6.0353    0.6598   -4.8025 C   0  0  0  0  0  0  0  0  0  0  0  0
   -4.0128    0.3937   -5.4589 H   0  0  0  0  0  0  0  0  0  0  0  0
   -6.6941   -0.1779   -4.5512 H   0  0  0  0  0  0  0  0  0  0  0  0
   -6.2625    1.4993   -4.1373 H   0  0  0  0  0  0  0  0  0  0  0  0
   -6.2442    0.9677   -5.8314 H   0  0  0  0  0  0  0  0  0  0  0  0
  1  2  2  0  0  0  0
  1  3  1  0  0  0  0
  1  7  1  0  0  0  0
  3  4  1  0  0  0  0
  3  5  1  0  0  0  0
  3  6  1  0  0  0  0
  7  8  1  0  0  0  0
  7 12  1  0  0  0  0
  8  9  1  0  0  0  0
  8 11  1  0  0  0  0
  8 13  1  0  0  0  0
  9 10  2  0  0  0  0
  9 17  1  0  0  0  0
 11 14  1  0  0  0  0
 11 15  1  0  0  0  0
 11 16  1  0  0  0  0
 17 18  1  0  0  0  0
 17 26  1  0  0  0  0
 18 19  1  0  0  0  0
 18 21  1  0  0  0  0
 18 27  1  0  0  0  0
 19 20  2  0  0  0  0
 19 32  1  0  0  0  0
 21 22  1  0  0  0  0
 21 28  1  0  0  0  0
 21 29  1  0  0  0  0
 22 23  1  0  0  0  0
 22 30  1  0  0  0  0
 22 31  1  0  0  0  0
 23 24  1  0  0  0  0
 23 25  2  0  0  0  0
 32 33  1  0  0  0  0
 32 37  1  0  0  0  0
 33 34  1  0  0  0  0
 33 36  1  0  0  0  0
 33 38  1  0  0  0  0
 34 35  2  0  0  0  0
 34 42  1  0  0  0  0
 36 39  1  0  0  0  0
 36 40  1  0  0  0  0
 36 41  1  0  0  0  0
 42 43  1  0  0  0  0
 42 44  1  0  0  0  0
 43 45  1  0  0  0  0
 43 46  1  0  0  0  0
 43 47  1  0  0  0  0
M  CHG  1  24  -1
M  END
$$$$

  -OEChem-05262216243D

 47 46  0     1  0  0  0  0  0999 V2000
    0.3878   -5.8373    1.3890 C   0  0  0  0  0  0  0  0  0  0  0  0
    1.5441   -5.9666    1.7593 O   0  0  0  0  0  0  0  0  0  0  0  0
   -0.6516   -6.8755    1.7703 C   0  0  0  0  0  0  0  0  0  0  0  0
   -1.1079   -7.2942    0.8700 H   0  0  0  0  0  0  0  0  0  0  0  0
   -0.1872   -7.6853    2.3398 H   0  0  0  0  0  0  0  0  0  0  0  0
   -1.4296   -6.4145    2.3838 H   0  0  0  0  0  0  0  0  0  0  0  0
    0.0119   -4.7476    0.6345 N   0  0  0  0  0  0  0  0  0  0  0  0
    0.8628   -3.5829    0.3603 C   0  0  2  0  0  0  0  0  0  0  0  0
    0.0072   -2.3183    0.1355 C   0  0  0  0  0  0  0  0  0  0  0  0
   -1.2139   -2.4145    0.0290 O   0  0  0  0  0  0  0  0  0  0  0  0
    1.7166   -3.8722   -0.8782 C   0  0  0  0  0  0  0  0  0  0  0  0
   -0.9846   -4.6214    0.4587 H   0  0  0  0  0  0  0  0  0  0  0  0
    1.5177   -3.3922    1.2175 H   0  0  0  0  0  0  0  0  0  0  0  0
    1.0777   -4.0480   -1.7494 H   0  0  0  0  0  0  0  0  0  0  0  0
    2.3759   -3.0263   -1.0960 H   0  0  0  0  0  0  0  0  0  0  0  0
    2.3373   -4.7586   -0.7150 H   0  0  0  0  0  0  0  0  0  0  0  0
    0.5995   -1.0736    0.0633 N   0  0  0  0  0  0  0  0  0  0  0  0
   -0.1048    0.1331   -0.3878 C   0  0  2  0  0  0  0  0  0  0  0  0
   -0.6275   -0.0107   -1.8346 C   0  0  0  0  0  0  0  0  0  0  0  0
    0.1443   -0.2362   -2.7625 O   0  0  0  0  0  0  0  0  0  0  0  0
    0.8604    1.3243   -0.2854 C   0  0  0  0  0  0  0  0  0  0  0  0
    1.2082    1.6444    1.1776 C   0  0  0  0  0  0  0  0  0  0  0  0
    2.1865    2.8134    1.2507 C   0  0  0  0  0  0  0  0  0  0  0  0
    3.4076    2.5367    1.3457 O   0  5  0  0  0  0  0  0  0  0  0  0
    1.7161    3.9741    1.1643 O   0  0  0  0  0  0  0  0  0  0  0  0
    1.6153   -1.0357    0.0891 H   0  0  0  0  0  0  0  0  0  0  0  0
   -0.9610    0.3193    0.2683 H   0  0  0  0  0  0  0  0  0  0  0  0
    0.3972    2.2090   -0.7364 H   0  0  0  0  0  0  0  0  0  0  0  0
    1.7781    1.1133   -0.8465 H   0  0  0  0  0  0  0  0  0  0  0  0
    0.2999    1.8994    1.7313 H   0  0  0  0  0  0  0  0  0  0  0  0
    1.6591    0.7739    1.6626 H   0  0  0  0  0  0  0  0  0  0  0  0
   -1.9789    0.0905   -2.1046 N   0  0  0  0  0  0  0  0  0  0  0  0
   -2.5790   -0.1010   -3.4290 C   0  0  2  0  0  0  0  0  0  0  0  0
   -3.9314    0.6271   -3.5711 C   0  0  0  0  0  0  0  0  0  0  0  0
   -4.6322    0.8484   -2.5894 O   0  0  0  0  0  0  0  0  0  0  0  0
   -2.7616   -1.6037   -3.6665 C   0  0  0  0  0  0  0  0  0  0  0  0
   -2.6084    0.1951   -1.3107 H   0  0  0  0  0  0  0  0  0  0  0  0
   -1.9060    0.3053   -4.1910 H   0  0  0  0  0  0  0  0  0  0  0  0
   -3.4201   -2.0332   -2.9045 H   0  0  0  0  0  0  0  0  0  0  0  0
   -3.2006   -1.7854   -4.6519 H   0  0  0  0  0  0  0  0  0  0  0  0
   -1.7961   -2.1172   -3.6190 H   0  0  0  0  0  0  0  0  0  0  0  0
   -4.3795    1.0173   -4.8208 N   0  0  0  0  0  0  0  0  0  0  0  0
   -5.6223    1.7482   -5.0319 C   0  0  0  0  0  0  0  0  0  0  0  0
   -3.7552    0.8679   -5.6079 H   0  0  0  0  0  0  0  0  0  0  0  0
   -6.4722    1.1787   -4.6414 H   0  0  0  0  0  0  0  0  0  0  0  0
   -5.5858    2.7192   -4.5269 H   0  0  0  0  0  0  0  0  0  0  0  0
   -5.7834    1.9188   -6.1005 H   0  0  0  0  0  0  0  0  0  0  0  0
  1  2  2  0  0  0  0
  1  3  1  0  0  0  0
  1  7  1  0  0  0  0
  3  4  1  0  0  0  0
  3  5  1  0  0  0  0
  3  6  1  0  0  0  0
  7  8  1  0  0  0  0
  7 12  1  0  0  0  0
  8  9  1  0  0  0  0
  8 11  1  0  0  0  0
  8 13  1  0  0  0  0
  9 10  2  0  0  0  0
  9 17  1  0  0  0  0
 11 14  1  0  0  0  0
 11 15  1  0  0  0  0
 11 16  1  0  0  0  0
 17 18  1  0  0  0  0
 17 26  1  0  0  0  0
 18 19  1  0  0  0  0
 18 21  1  0  0  0  0
 18 27  1  0  0  0  0
 19 20  2  0  0  0  0
 19 32  1  0  0  0  0
 21 22  1  0  0  0  0
 21 28  1  0  0  0  0
 21 29  1  0  0  0  0
 22 23  1  0  0  0  0
 22 30  1  0  0  0  0
 22 31  1  0  0  0  0
 23 24  1  0  0  0  0
 23 25  2  0  0  0  0
 32 33  1  0  0  0  0
 32 37  1  0  0  0  0
 33 34  1  0  0  0  0
 33 36  1  0  0  0  0
 33 38  1  0  0  0  0
 34 35  2  0  0  0  0
 34 42  1  0  0  0  0
 36 39  1  0  0  0  0
 36 40  1  0  0  0  0
 36 41  1  0  0  0  0
 42 43  1  0  0  0  0
 42 44  1  0  0  0  0
 43 45  1  0  0  0  0
 43 46  1  0  0  0  0
 43 47  1  0  0  0  0
M  CHG  1  24  -1
M  END
$$$$

  -OEChem-05262216243D

 47 46  0     1  0  0  0  0  0999 V2000
    0.3765   -5.8579    1.3374 C   0  0  0  0  0  0  0  0  0  0  0  0
    1.5415   -6.0012    1.6743 O   0  0  0  0  0  0  0  0  0  0  0  0
   -0.6580   -6.8973    1.7291 C   0  0  0  0  0  0  0  0  0  0  0  0
   -1.1499   -7.2895    0.8357 H   0  0  0  0  0  0  0  0  0  0  0  0
   -0.1800   -7.7250    2.2603 H   0  0  0  0  0  0  0  0  0  0  0  0
   -1.4090   -6.4464    2.3826 H   0  0  0  0  0  0  0  0  0  0  0  0
   -0.0126   -4.7506    0.6157 N   0  0  0  0  0  0  0  0  0  0  0  0
    0.8375   -3.5821    0.3535 C   0  0  2  0  0  0  0  0  0  0  0  0
   -0.0141   -2.3034    0.2038 C   0  0  0  0  0  0  0  0  0  0  0  0
   -1.2400   -2.3849    0.1515 O   0  0  0  0  0  0  0  0  0  0  0  0
    1.6482   -3.8362   -0.9220 C   0  0  0  0  0  0  0  0  0  0  0  0
   -1.0127   -4.6141    0.4702 H   0  0  0  0  0  0  0  0  0  0  0  0
    1.5222   -3.4254    1.1940 H   0  0  0  0  0  0  0  0  0  0  0  0
    0.9804   -3.9688   -1.7794 H   0  0  0  0  0  0  0  0  0  0  0  0
    2.3145   -2.9928   -1.1285 H   0  0  0  0  0  0  0  0  0  0  0  0
    2.2595   -4.7372   -0.8113 H   0  0  0  0  0  0  0  0  0  0  0  0
    0.5901   -1.0640    0.1292 N   0  0  0  0  0  0  0  0  0  0  0  0
   -0.1133    0.1367   -0.3403 C   0  0  2  0  0  0  0  0  0  0  0  0
   -0.6250   -0.0196   -1.7896 C   0  0  0  0  0  0  0  0  0  0  0  0
    0.0971   -0.4941   -2.6630 O   0  0  0  0  0  0  0  0  0  0  0  0
    0.8458    1.3331   -0.2581 C   0  0  0  0  0  0  0  0  0  0  0  0
    1.1965    1.6845    1.1963 C   0  0  0  0  0  0  0  0  0  0  0  0
    2.1691    2.8599    1.2358 C   0  0  0  0  0  0  0  0  0  0  0  0
    3.3908    2.5950    1.3527 O   0  5  0  0  0  0  0  0  0  0  0  0
    1.6936    4.0126    1.0898 O   0  0  0  0  0  0  0  0  0  0  0  0
    1.6054   -1.0488    0.0850 H   0  0  0  0  0  0  0  0  0  0  0  0
   -0.9734    0.3273    0.3092 H   0  0  0  0  0  0  0  0  0  0  0  0
    0.3801    2.2080   -0.7257 H   0  0  0  0  0  0  0  0  0  0  0  0
    1.7635    1.1135   -0.8151 H   0  0  0  0  0  0  0  0  0  0  0  0
    0.2898    1.9475    1.7488 H   0  0  0  0  0  0  0  0  0  0  0  0
    1.6540    0.8265    1.6971 H   0  0  0  0  0  0  0  0  0  0  0  0
   -1.9053    0.3754   -2.1278 N   0  0  0  0  0  0  0  0  0  0  0  0
   -2.4839    0.2628   -3.4707 C   0  0  2  0  0  0  0  0  0  0  0  0
   -3.6126    1.2868   -3.7064 C   0  0  0  0  0  0  0  0  0  0  0  0
   -4.2824    1.7068   -2.7689 O   0  0  0  0  0  0  0  0  0  0  0  0
   -3.0171   -1.1618   -3.6543 C   0  0  0  0  0  0  0  0  0  0  0  0
   -2.4916    0.7640   -1.3908 H   0  0  0  0  0  0  0  0  0  0  0  0
   -1.7050    0.4552   -4.2158 H   0  0  0  0  0  0  0  0  0  0  0  0
   -3.7914   -1.3779   -2.9113 H   0  0  0  0  0  0  0  0  0  0  0  0
   -3.4466   -1.2845   -4.6530 H   0  0  0  0  0  0  0  0  0  0  0  0
   -2.2079   -1.8892   -3.5341 H   0  0  0  0  0  0  0  0  0  0  0  0
   -3.8913    1.7274   -4.9880 N   0  0  0  0  0  0  0  0  0  0  0  0
   -4.9014    2.7350   -5.2841 C   0  0  0  0  0  0  0  0  0  0  0  0
   -3.2778    1.4103   -5.7330 H   0  0  0  0  0  0  0  0  0  0  0  0
   -5.8903    2.3916   -4.9631 H   0  0  0  0  0  0  0  0  0  0  0  0
   -4.6698    3.6728   -4.7683 H   0  0  0  0  0  0  0  0  0  0  0  0
   -4.9354    2.9303   -6.3601 H   0  0  0  0  0  0  0  0  0  0  0  0
  1  2  2  0  0  0  0
  1  3  1  0  0  0  0
  1  7  1  0  0  0  0
  3  4  1  0  0  0  0
  3  5  1  0  0  0  0
  3  6  1  0  0  0  0
  7  8  1  0  0  0  0
  7 12  1  0  0  0  0
  8  9  1  0  0  0  0
  8 11  1  0  0  0  0
  8 13  1  0  0  0  0
  9 10  2  0  0  0  0
  9 17  1  0  0  0  0
 11 14  1  0  0  0  0
 11 15  1  0  0  0  0
 11 16  1  0  0  0  0
 17 18  1  0  0  0  0
 17 26  1  0  0  0  0
 18 19  1  0  0  0  0
 18 21  1  0  0  0  0
 18 27  1  0  0  0  0
 19 20  2  0  0  0  0
 19 32  1  0  0  0  0
 21 22  1  0  0  0  0
 21 28  1  0  0  0  0
 21 29  1  0  0  0  0
 22 23  1  0  0  0  0
 22 30  1  0  0  0  0
 22 31  1  0  0  0  0
 23 24  1  0  0  0  0
 23 25  2  0  0  0  0
 32 33  1  0  0  0  0
 32 37  1  0  0  0  0
 33 34  1  0  0  0  0
 33 36  1  0  0  0  0
 33 38  1  0  0  0  0
 34 35  2  0  0  0  0
 34 42  1  0  0  0  0
 36 39  1  0  0  0  0
 36 40  1  0  0  0  0
 36 41  1  0  0  0  0
 42 43  1  0  0  0  0
 42 44  1  0  0  0  0
 43 45  1  0  0  0  0
 43 46  1  0  0  0  0
 43 47  1  0  0  0  0
M  CHG  1  24  -1
M  END
$$$$

  -OEChem-05262216243D

 47 46  0     1  0  0  0  0  0999 V2000
    0.3673   -5.8513    1.3637 C   0  0  0  0  0  0  0  0  0  0  0  0
    1.5302   -5.9927    1.7087 O   0  0  0  0  0  0  0  0  0  0  0  0
   -0.6673   -6.8970    1.7383 C   0  0  0  0  0  0  0  0  0  0  0  0
   -1.1319   -7.3013    0.8356 H   0  0  0  0  0  0  0  0  0  0  0  0
   -0.1958   -7.7152    2.2897 H   0  0  0  0  0  0  0  0  0  0  0  0
   -1.4401   -6.4473    2.3668 H   0  0  0  0  0  0  0  0  0  0  0  0
   -0.0194   -4.7462    0.6377 N   0  0  0  0  0  0  0  0  0  0  0  0
    0.8305   -3.5806    0.3640 C   0  0  2  0  0  0  0  0  0  0  0  0
   -0.0210   -2.3013    0.2202 C   0  0  0  0  0  0  0  0  0  0  0  0
   -1.2476   -2.3817    0.1833 O   0  0  0  0  0  0  0  0  0  0  0  0
    1.6225   -3.8401   -0.9217 C   0  0  0  0  0  0  0  0  0  0  0  0
   -1.0188   -4.6115    0.4867 H   0  0  0  0  0  0  0  0  0  0  0  0
    1.5266   -3.4237    1.1951 H   0  0  0  0  0  0  0  0  0  0  0  0
    0.9423   -3.9774   -1.7685 H   0  0  0  0  0  0  0  0  0  0  0  0
    2.2842   -2.9970   -1.1429 H   0  0  0  0  0  0  0  0  0  0  0  0
    2.2358   -4.7402   -0.8152 H   0  0  0  0  0  0  0  0  0  0  0  0
    0.5828   -1.0616    0.1458 N   0  0  0  0  0  0  0  0  0  0  0  0
   -0.1234    0.1340   -0.3349 C   0  0  2  0  0  0  0  0  0  0  0  0
   -0.6298   -0.0182   -1.7878 C   0  0  0  0  0  0  0  0  0  0  0  0
    0.0051   -0.6708   -2.6132 O   0  0  0  0  0  0  0  0  0  0  0  0
    0.8377    1.3292   -0.2531 C   0  0  0  0  0  0  0  0  0  0  0  0
    1.1821    1.6877    1.2008 C   0  0  0  0  0  0  0  0  0  0  0  0
    2.1565    2.8615    1.2357 C   0  0  0  0  0  0  0  0  0  0  0  0
    3.3815    2.5926    1.2928 O   0  5  0  0  0  0  0  0  0  0  0  0
    1.6774    4.0179    1.1409 O   0  0  0  0  0  0  0  0  0  0  0  0
    1.5974   -1.0502    0.0896 H   0  0  0  0  0  0  0  0  0  0  0  0
   -0.9879    0.3253    0.3087 H   0  0  0  0  0  0  0  0  0  0  0  0
    0.3775    2.2035   -0.7266 H   0  0  0  0  0  0  0  0  0  0  0  0
    1.7578    1.1045   -0.8044 H   0  0  0  0  0  0  0  0  0  0  0  0
    0.2729    1.9544    1.7479 H   0  0  0  0  0  0  0  0  0  0  0  0
    1.6373    0.8326    1.7088 H   0  0  0  0  0  0  0  0  0  0  0  0
   -1.7708    0.6437   -2.2019 N   0  0  0  0  0  0  0  0  0  0  0  0
   -2.2933    0.6259   -3.5728 C   0  0  2  0  0  0  0  0  0  0  0  0
   -3.1644    1.8612   -3.8794 C   0  0  0  0  0  0  0  0  0  0  0  0
   -3.7884    2.4230   -2.9859 O   0  0  0  0  0  0  0  0  0  0  0  0
   -3.1112   -0.6544   -3.7715 C   0  0  0  0  0  0  0  0  0  0  0  0
   -2.2579    1.2215   -1.5181 H   0  0  0  0  0  0  0  0  0  0  0  0
   -1.4549    0.6313   -4.2770 H   0  0  0  0  0  0  0  0  0  0  0  0
   -3.9530   -0.6813   -3.0724 H   0  0  0  0  0  0  0  0  0  0  0  0
   -3.5021   -0.7048   -4.7920 H   0  0  0  0  0  0  0  0  0  0  0  0
   -2.4869   -1.5364   -3.5974 H   0  0  0  0  0  0  0  0  0  0  0  0
   -3.2649    2.3331   -5.1762 N   0  0  0  0  0  0  0  0  0  0  0  0
   -4.0159    3.5289   -5.5358 C   0  0  0  0  0  0  0  0  0  0  0  0
   -2.6816    1.8889   -5.8789 H   0  0  0  0  0  0  0  0  0  0  0  0
   -5.0737    3.4083   -5.2799 H   0  0  0  0  0  0  0  0  0  0  0  0
   -3.6214    4.4025   -5.0064 H   0  0  0  0  0  0  0  0  0  0  0  0
   -3.9395    3.7129   -6.6116 H   0  0  0  0  0  0  0  0  0  0  0  0
  1  2  2  0  0  0  0
  1  3  1  0  0  0  0
  1  7  1  0  0  0  0
  3  4  1  0  0  0  0
  3  5  1  0  0  0  0
  3  6  1  0  0  0  0
  7  8  1  0  0  0  0
  7 12  1  0  0  0  0
  8  9  1  0  0  0  0
  8 11  1  0  0  0  0
  8 13  1  0  0  0  0
  9 10  2  0  0  0  0
  9 17  1  0  0  0  0
 11 14  1  0  0  0  0
 11 15  1  0  0  0  0
 11 16  1  0  0  0  0
 17 18  1  0  0  0  0
 17 26  1  0  0  0  0
 18 19  1  0  0  0  0
 18 21  1  0  0  0  0
 18 27  1  0  0  0  0
 19 20  2  0  0  0  0
 19 32  1  0  0  0  0
 21 22  1  0  0  0  0
 21 28  1  0  0  0  0
 21 29  1  0  0  0  0
 22 23  1  0  0  0  0
 22 30  1  0  0  0  0
 22 31  1  0  0  0  0
 23 24  1  0  0  0  0
 23 25  2  0  0  0  0
 32 33  1  0  0  0  0
 32 37  1  0  0  0  0
 33 34  1  0  0  0  0
 33 36  1  0  0  0  0
 33 38  1  0  0  0  0
 34 35  2  0  0  0  0
 34 42  1  0  0  0  0
 36 39  1  0  0  0  0
 36 40  1  0  0  0  0
 36 41  1  0  0  0  0
 42 43  1  0  0  0  0
 42 44  1  0  0  0  0
 43 45  1  0  0  0  0
 43 46  1  0  0  0  0
 43 47  1  0  0  0  0
M  CHG  1  24  -1
M  END
$$$$

  -OEChem-05262216243D

 47 46  0     1  0  0  0  0  0999 V2000
    0.3679   -5.8431    1.3780 C   0  0  0  0  0  0  0  0  0  0  0  0
    1.5391   -5.9872    1.6923 O   0  0  0  0  0  0  0  0  0  0  0  0
   -0.6607   -6.8792    1.7917 C   0  0  0  0  0  0  0  0  0  0  0  0
   -1.1194   -7.3214    0.9040 H   0  0  0  0  0  0  0  0  0  0  0  0
   -0.1863   -7.6715    2.3776 H   0  0  0  0  0  0  0  0  0  0  0  0
   -1.4379   -6.4096    2.3996 H   0  0  0  0  0  0  0  0  0  0  0  0
   -0.0345   -4.7412    0.6561 N   0  0  0  0  0  0  0  0  0  0  0  0
    0.8098   -3.5765    0.3624 C   0  0  2  0  0  0  0  0  0  0  0  0
   -0.0453   -2.2975    0.2394 C   0  0  0  0  0  0  0  0  0  0  0  0
   -1.2728   -2.3762    0.2395 O   0  0  0  0  0  0  0  0  0  0  0  0
    1.5724   -3.8357   -0.9410 C   0  0  0  0  0  0  0  0  0  0  0  0
   -1.0375   -4.6025    0.5341 H   0  0  0  0  0  0  0  0  0  0  0  0
    1.5249   -3.4191    1.1772 H   0  0  0  0  0  0  0  0  0  0  0  0
    0.8721   -3.9763   -1.7708 H   0  0  0  0  0  0  0  0  0  0  0  0
    2.2264   -2.9911   -1.1792 H   0  0  0  0  0  0  0  0  0  0  0  0
    2.1904   -4.7339   -0.8475 H   0  0  0  0  0  0  0  0  0  0  0  0
    0.5579   -1.0576    0.1631 N   0  0  0  0  0  0  0  0  0  0  0  0
   -0.1477    0.1338   -0.3305 C   0  0  2  0  0  0  0  0  0  0  0  0
   -0.6480   -0.0144   -1.7879 C   0  0  0  0  0  0  0  0  0  0  0  0
   -0.1232   -0.8131   -2.5610 O   0  0  0  0  0  0  0  0  0  0  0  0
    0.8297    1.3173   -0.2481 C   0  0  0  0  0  0  0  0  0  0  0  0
    1.1720    1.6789    1.2056 C   0  0  0  0  0  0  0  0  0  0  0  0
    2.1621    2.8395    1.2366 C   0  0  0  0  0  0  0  0  0  0  0  0
    3.3842    2.5529    1.2071 O   0  5  0  0  0  0  0  0  0  0  0  0
    1.6957    4.0045    1.2228 O   0  0  0  0  0  0  0  0  0  0  0  0
    1.5715   -1.0505    0.0934 H   0  0  0  0  0  0  0  0  0  0  0  0
   -1.0148    0.3335    0.3074 H   0  0  0  0  0  0  0  0  0  0  0  0
    0.3853    2.1976   -0.7258 H   0  0  0  0  0  0  0  0  0  0  0  0
    1.7496    1.0779   -0.7940 H   0  0  0  0  0  0  0  0  0  0  0  0
    0.2633    1.9600    1.7461 H   0  0  0  0  0  0  0  0  0  0  0  0
    1.6148    0.8220    1.7211 H   0  0  0  0  0  0  0  0  0  0  0  0
   -1.5853    0.8680   -2.2942 N   0  0  0  0  0  0  0  0  0  0  0  0
   -1.9927    0.9334   -3.7030 C   0  0  2  0  0  0  0  0  0  0  0  0
   -2.5810    2.3101   -4.0729 C   0  0  0  0  0  0  0  0  0  0  0  0
   -3.1171    3.0088   -3.2201 O   0  0  0  0  0  0  0  0  0  0  0  0
   -3.0238   -0.1667   -3.9767 C   0  0  0  0  0  0  0  0  0  0  0  0
   -1.9435    1.5882   -1.6672 H   0  0  0  0  0  0  0  0  0  0  0  0
   -1.1149    0.7704   -4.3367 H   0  0  0  0  0  0  0  0  0  0  0  0
   -3.9118   -0.0211   -3.3535 H   0  0  0  0  0  0  0  0  0  0  0  0
   -3.3275   -0.1532   -5.0275 H   0  0  0  0  0  0  0  0  0  0  0  0
   -2.6007   -1.1512   -3.7541 H   0  0  0  0  0  0  0  0  0  0  0  0
   -2.5233    2.7597   -5.3800 N   0  0  0  0  0  0  0  0  0  0  0  0
   -2.9914    4.0765   -5.7920 C   0  0  0  0  0  0  0  0  0  0  0  0
   -2.0117    2.1888   -6.0460 H   0  0  0  0  0  0  0  0  0  0  0  0
   -4.0489    4.2045   -5.5384 H   0  0  0  0  0  0  0  0  0  0  0  0
   -2.4115    4.8609   -5.2949 H   0  0  0  0  0  0  0  0  0  0  0  0
   -2.8800    4.1955   -6.8737 H   0  0  0  0  0  0  0  0  0  0  0  0
  1  2  2  0  0  0  0
  1  3  1  0  0  0  0
  1  7  1  0  0  0  0
  3  4  1  0  0  0  0
  3  5  1  0  0  0  0
  3  6  1  0  0  0  0
  7  8  1  0  0  0  0
  7 12  1  0  0  0  0
  8  9  1  0  0  0  0
  8 11  1  0  0  0  0
  8 13  1  0  0  0  0
  9 10  2  0  0  0  0
  9 17  1  0  0  0  0
 11 14  1  0  0  0  0
 11 15  1  0  0  0  0
 11 16  1  0  0  0  0
 17 18  1  0  0  0  0
 17 26  1  0  0  0  0
 18 19  1  0  0  0  0
 18 21  1  0  0  0  0
 18 27  1  0  0  0  0
 19 20  2  0  0  0  0
 19 32  1  0  0  0  0
 21 22  1  0  0  0  0
 21 28  1  0  0  0  0
 21 29  1  0  0  0  0
 22 23  1  0  0  0  0
 22 30  1  0  0  0  0
 22 31  1  0  0  0  0
 23 24  1  0  0  0  0
 23 25  2  0  0  0  0
 32 33  1  0  0  0  0
 32 37  1  0  0  0  0
 33 34  1  0  0  0  0
 33 36  1  0  0  0  0
 33 38  1  0  0  0  0
 34 35  2  0  0  0  0
 34 42  1  0  0  0  0
 36 39  1  0  0  0  0
 36 40  1  0  0  0  0
 36 41  1  0  0  0  0
 42 43  1  0  0  0  0
 42 44  1  0  0  0  0
 43 45  1  0  0  0  0
 43 46  1  0  0  0  0
 43 47  1  0  0  0  0
M  CHG  1  24  -1
M  END
$$$$

  -OEChem-05262216243D

 47 46  0     1  0  0  0  0  0999 V2000
    0.3907   -5.8213    1.3909 C   0  0  0  0  0  0  0  0  0  0  0  0
    1.5740   -5.9662    1.6570 O   0  0  0  0  0  0  0  0  0  0  0  0
   -0.6199   -6.8583    1.8450 C   0  0  0  0  0  0  0  0  0  0  0  0
   -1.1141   -7.3007    0.9768 H   0  0  0  0  0  0  0  0  0  0  0  0
   -0.1208   -7.6505    2.4099 H   0  0  0  0  0  0  0  0  0  0  0  0
   -1.3724   -6.3894    2.4840 H   0  0  0  0  0  0  0  0  0  0  0  0
   -0.0410   -4.7198    0.6854 N   0  0  0  0  0  0  0  0  0  0  0  0
    0.7899   -3.5532    0.3629 C   0  0  2  0  0  0  0  0  0  0  0  0
   -0.0581   -2.2637    0.3381 C   0  0  0  0  0  0  0  0  0  0  0  0
   -1.2744   -2.3247    0.5111 O   0  0  0  0  0  0  0  0  0  0  0  0
    1.4501   -3.7849   -0.9998 C   0  0  0  0  0  0  0  0  0  0  0  0
   -1.0483   -4.5736    0.6205 H   0  0  0  0  0  0  0  0  0  0  0  0
    1.5646   -3.4236    1.1260 H   0  0  0  0  0  0  0  0  0  0  0  0
    0.6880   -3.8740   -1.7809 H   0  0  0  0  0  0  0  0  0  0  0  0
    2.1108   -2.9505   -1.2545 H   0  0  0  0  0  0  0  0  0  0  0  0
    2.0447   -4.7036   -0.9834 H   0  0  0  0  0  0  0  0  0  0  0  0
    0.5464   -1.0265    0.2184 N   0  0  0  0  0  0  0  0  0  0  0  0
   -0.1491    0.1523   -0.3270 C   0  0  2  0  0  0  0  0  0  0  0  0
   -0.9667   -0.0984   -1.6254 C   0  0  0  0  0  0  0  0  0  0  0  0
   -0.8009   -1.1085   -2.3057 O   0  0  0  0  0  0  0  0  0  0  0  0
    0.9426    1.2021   -0.6054 C   0  0  0  0  0  0  0  0  0  0  0  0
    1.5925    1.7141    0.6904 C   0  0  0  0  0  0  0  0  0  0  0  0
    2.6823    2.7302    0.3621 C   0  0  0  0  0  0  0  0  0  0  0  0
    3.8078    2.2751    0.0412 O   0  5  0  0  0  0  0  0  0  0  0  0
    2.3741    3.9464    0.3745 O   0  0  0  0  0  0  0  0  0  0  0  0
    1.5537   -1.0443    0.0837 H   0  0  0  0  0  0  0  0  0  0  0  0
   -0.8428    0.5363    0.4278 H   0  0  0  0  0  0  0  0  0  0  0  0
    0.5114    2.0630   -1.1271 H   0  0  0  0  0  0  0  0  0  0  0  0
    1.7099    0.7747   -1.2614 H   0  0  0  0  0  0  0  0  0  0  0  0
    0.8367    2.1813    1.3286 H   0  0  0  0  0  0  0  0  0  0  0  0
    2.0389    0.8886    1.2522 H   0  0  0  0  0  0  0  0  0  0  0  0
   -1.6605    0.9458   -2.2123 N   0  0  0  0  0  0  0  0  0  0  0  0
   -2.2799    0.9049   -3.5433 C   0  0  2  0  0  0  0  0  0  0  0  0
   -2.5441    2.3198   -4.0969 C   0  0  0  0  0  0  0  0  0  0  0  0
   -2.7720    3.2524   -3.3348 O   0  0  0  0  0  0  0  0  0  0  0  0
   -3.5991    0.1290   -3.4588 C   0  0  0  0  0  0  0  0  0  0  0  0
   -1.6956    1.8311   -1.7073 H   0  0  0  0  0  0  0  0  0  0  0  0
   -1.6043    0.3964   -4.2390 H   0  0  0  0  0  0  0  0  0  0  0  0
   -4.2869    0.6215   -2.7641 H   0  0  0  0  0  0  0  0  0  0  0  0
   -4.0749    0.0748   -4.4423 H   0  0  0  0  0  0  0  0  0  0  0  0
   -3.4210   -0.8918   -3.1066 H   0  0  0  0  0  0  0  0  0  0  0  0
   -2.5543    2.5427   -5.4623 N   0  0  0  0  0  0  0  0  0  0  0  0
   -2.7423    3.8617   -6.0525 C   0  0  0  0  0  0  0  0  0  0  0  0
   -2.2928    1.7669   -6.0631 H   0  0  0  0  0  0  0  0  0  0  0  0
   -3.7057    4.2836   -5.7481 H   0  0  0  0  0  0  0  0  0  0  0  0
   -1.9437    4.5404   -5.7350 H   0  0  0  0  0  0  0  0  0  0  0  0
   -2.7258    3.7930   -7.1443 H   0  0  0  0  0  0  0  0  0  0  0  0
  1  2  2  0  0  0  0
  1  3  1  0  0  0  0
  1  7  1  0  0  0  0
  3  4  1  0  0  0  0
  3  5  1  0  0  0  0
  3  6  1  0  0  0  0
  7  8  1  0  0  0  0
  7 12  1  0  0  0  0
  8  9  1  0  0  0  0
  8 11  1  0  0  0  0
  8 13  1  0  0  0  0
  9 10  2  0  0  0  0
  9 17  1  0  0  0  0
 11 14  1  0  0  0  0
 11 15  1  0  0  0  0
 11 16  1  0  0  0  0
 17 18  1  0  0  0  0
 17 26  1  0  0  0  0
 18 19  1  0  0  0  0
 18 21  1  0  0  0  0
 18 27  1  0  0  0  0
 19 20  2  0  0  0  0
 19 32  1  0  0  0  0
 21 22  1  0  0  0  0
 21 28  1  0  0  0  0
 21 29  1  0  0  0  0
 22 23  1  0  0  0  0
 22 30  1  0  0  0  0
 22 31  1  0  0  0  0
 23 24  1  0  0  0  0
 23 25  2  0  0  0  0
 32 33  1  0  0  0  0
 32 37  1  0  0  0  0
 33 34  1  0  0  0  0
 33 36  1  0  0  0  0
 33 38  1  0  0  0  0
 34 35  2  0  0  0  0
 34 42  1  0  0  0  0
 36 39  1  0  0  0  0
 36 40  1  0  0  0  0
 36 41  1  0  0  0  0
 42 43  1  0  0  0  0
 42 44  1  0  0  0  0
 43 45  1  0  0  0  0
 43 46  1  0  0  0  0
 43 47  1  0  0  0  0
M  CHG  1  24  -1
M  END
$$$$

  -OEChem-05262216243D

 47 46  0     1  0  0  0  0  0999 V2000
    0.3915   -5.8167    1.3252 C   0  0  0  0  0  0  0  0  0  0  0  0
    1.5845   -5.9827    1.5283 O   0  0  0  0  0  0  0  0  0  0  0  0
   -0.6082   -6.8537    1.8040 C   0  0  0  0  0  0  0  0  0  0  0  0
   -1.1935   -7.2262    0.9597 H   0  0  0  0  0  0  0  0  0  0  0  0
   -0.0864   -7.6942    2.2699 H   0  0  0  0  0  0  0  0  0  0  0  0
   -1.2840   -6.4076    2.5379 H   0  0  0  0  0  0  0  0  0  0  0  0
   -0.0594   -4.6899    0.6739 N   0  0  0  0  0  0  0  0  0  0  0  0
    0.7709   -3.5247    0.3444 C   0  0  2  0  0  0  0  0  0  0  0  0
   -0.0723   -2.2319    0.3433 C   0  0  0  0  0  0  0  0  0  0  0  0
   -1.2799   -2.2864    0.5690 O   0  0  0  0  0  0  0  0  0  0  0  0
    1.4103   -3.7477   -1.0294 C   0  0  0  0  0  0  0  0  0  0  0  0
   -1.0670   -4.5313    0.6567 H   0  0  0  0  0  0  0  0  0  0  0  0
    1.5580   -3.4042    1.0963 H   0  0  0  0  0  0  0  0  0  0  0  0
    0.6369   -3.8394   -1.7990 H   0  0  0  0  0  0  0  0  0  0  0  0
    2.0620   -2.9086   -1.2910 H   0  0  0  0  0  0  0  0  0  0  0  0
    2.0113   -4.6623   -1.0250 H   0  0  0  0  0  0  0  0  0  0  0  0
    0.5344   -0.9958    0.2227 N   0  0  0  0  0  0  0  0  0  0  0  0
   -0.1463    0.1890   -0.3324 C   0  0  2  0  0  0  0  0  0  0  0  0
   -0.9597   -0.0377   -1.6440 C   0  0  0  0  0  0  0  0  0  0  0  0
   -0.9987   -1.1292   -2.2061 O   0  0  0  0  0  0  0  0  0  0  0  0
    0.9732    1.2237   -0.5693 C   0  0  0  0  0  0  0  0  0  0  0  0
    1.5941    1.7146    0.7490 C   0  0  0  0  0  0  0  0  0  0  0  0
    2.7100    2.7136    0.4578 C   0  0  0  0  0  0  0  0  0  0  0  0
    3.8073    2.2424    0.0691 O   0  5  0  0  0  0  0  0  0  0  0  0
    2.4496    3.9356    0.5690 O   0  0  0  0  0  0  0  0  0  0  0  0
    1.5422   -1.0198    0.0942 H   0  0  0  0  0  0  0  0  0  0  0  0
   -0.8467    0.5765    0.4138 H   0  0  0  0  0  0  0  0  0  0  0  0
    0.5775    2.1021   -1.0892 H   0  0  0  0  0  0  0  0  0  0  0  0
    1.7506    0.7899   -1.2087 H   0  0  0  0  0  0  0  0  0  0  0  0
    0.8278    2.1893    1.3690 H   0  0  0  0  0  0  0  0  0  0  0  0
    2.0119    0.8788    1.3170 H   0  0  0  0  0  0  0  0  0  0  0  0
   -1.3755    1.0455   -2.4018 N   0  0  0  0  0  0  0  0  0  0  0  0
   -1.9457    0.9632   -3.7535 C   0  0  2  0  0  0  0  0  0  0  0  0
   -1.8632    2.3109   -4.4982 C   0  0  0  0  0  0  0  0  0  0  0  0
   -1.9110    3.3666   -3.8779 O   0  0  0  0  0  0  0  0  0  0  0  0
   -3.4092    0.5178   -3.6535 C   0  0  0  0  0  0  0  0  0  0  0  0
   -1.2370    1.9770   -2.0096 H   0  0  0  0  0  0  0  0  0  0  0  0
   -1.3828    0.2276   -4.3373 H   0  0  0  0  0  0  0  0  0  0  0  0
   -3.9874    1.2381   -3.0660 H   0  0  0  0  0  0  0  0  0  0  0  0
   -3.8546    0.4417   -4.6498 H   0  0  0  0  0  0  0  0  0  0  0  0
   -3.4794   -0.4614   -3.1698 H   0  0  0  0  0  0  0  0  0  0  0  0
   -1.7677    2.3401   -5.8781 N   0  0  0  0  0  0  0  0  0  0  0  0
   -1.6462    3.5747   -6.6430 C   0  0  0  0  0  0  0  0  0  0  0  0
   -1.6682    1.4508   -6.3583 H   0  0  0  0  0  0  0  0  0  0  0  0
   -2.5217    4.2125   -6.4818 H   0  0  0  0  0  0  0  0  0  0  0  0
   -0.7484    4.1250   -6.3420 H   0  0  0  0  0  0  0  0  0  0  0  0
   -1.5735    3.3517   -7.7117 H   0  0  0  0  0  0  0  0  0  0  0  0
  1  2  2  0  0  0  0
  1  3  1  0  0  0  0
  1  7  1  0  0  0  0
  3  4  1  0  0  0  0
  3  5  1  0  0  0  0
  3  6  1  0  0  0  0
  7  8  1  0  0  0  0
  7 12  1  0  0  0  0
  8  9  1  0  0  0  0
  8 11  1  0  0  0  0
  8 13  1  0  0  0  0
  9 10  2  0  0  0  0
  9 17  1  0  0  0  0
 11 14  1  0  0  0  0
 11 15  1  0  0  0  0
 11 16  1  0  0  0  0
 17 18  1  0  0  0  0
 17 26  1  0  0  0  0
 18 19  1  0  0  0  0
 18 21  1  0  0  0  0
 18 27  1  0  0  0  0
 19 20  2  0  0  0  0
 19 32  1  0  0  0  0
 21 22  1  0  0  0  0
 21 28  1  0  0  0  0
 21 29  1  0  0  0  0
 22 23  1  0  0  0  0
 22 30  1  0  0  0  0
 22 31  1  0  0  0  0
 23 24  1  0  0  0  0
 23 25  2  0  0  0  0
 32 33  1  0  0  0  0
 32 37  1  0  0  0  0
 33 34  1  0  0  0  0
 33 36  1  0  0  0  0
 33 38  1  0  0  0  0
 34 35  2  0  0  0  0
 34 42  1  0  0  0  0
 36 39  1  0  0  0  0
 36 40  1  0  0  0  0
 36 41  1  0  0  0  0
 42 43  1  0  0  0  0
 42 44  1  0  0  0  0
 43 45  1  0  0  0  0
 43 46  1  0  0  0  0
 43 47  1  0  0  0  0
M  CHG  1  24  -1
M  END
$$$$

  -OEChem-05262216243D

 47 46  0     1  0  0  0  0  0999 V2000
    0.4063   -5.8092    1.2537 C   0  0  0  0  0  0  0  0  0  0  0  0
    1.6035   -5.9880    1.4173 O   0  0  0  0  0  0  0  0  0  0  0  0
   -0.5889   -6.8435    1.7465 C   0  0  0  0  0  0  0  0  0  0  0  0
   -1.2270   -7.1693    0.9215 H   0  0  0  0  0  0  0  0  0  0  0  0
   -0.0626   -7.7129    2.1501 H   0  0  0  0  0  0  0  0  0  0  0  0
   -1.2138   -6.4123    2.5326 H   0  0  0  0  0  0  0  0  0  0  0  0
   -0.0547   -4.6700    0.6321 N   0  0  0  0  0  0  0  0  0  0  0  0
    0.7711   -3.5028    0.3000 C   0  0  2  0  0  0  0  0  0  0  0  0
   -0.0719   -2.2100    0.3358 C   0  0  0  0  0  0  0  0  0  0  0  0
   -1.2697   -2.2682    0.6056 O   0  0  0  0  0  0  0  0  0  0  0  0
    1.3770   -3.7063   -1.0920 C   0  0  0  0  0  0  0  0  0  0  0  0
   -1.0611   -4.5030    0.6510 H   0  0  0  0  0  0  0  0  0  0  0  0
    1.5754   -3.3950    1.0354 H   0  0  0  0  0  0  0  0  0  0  0  0
    0.5848   -3.7876   -1.8434 H   0  0  0  0  0  0  0  0  0  0  0  0
    2.0223   -2.8635   -1.3575 H   0  0  0  0  0  0  0  0  0  0  0  0
    1.9778   -4.6208   -1.1152 H   0  0  0  0  0  0  0  0  0  0  0  0
    0.5328   -0.9719    0.2280 N   0  0  0  0  0  0  0  0  0  0  0  0
   -0.1239    0.2203   -0.3440 C   0  0  2  0  0  0  0  0  0  0  0  0
   -0.9059    0.0154   -1.6830 C   0  0  0  0  0  0  0  0  0  0  0  0
   -1.2211   -1.0932   -2.1030 O   0  0  0  0  0  0  0  0  0  0  0  0
    1.0075    1.2597   -0.5006 C   0  0  0  0  0  0  0  0  0  0  0  0
    1.5524    1.7255    0.8609 C   0  0  0  0  0  0  0  0  0  0  0  0
    2.6835    2.7303    0.6611 C   0  0  0  0  0  0  0  0  0  0  0  0
    3.7744    2.2786    0.2326 O   0  5  0  0  0  0  0  0  0  0  0  0
    2.4470    3.9396    0.8962 O   0  0  0  0  0  0  0  0  0  0  0  0
    1.5431   -0.9985    0.1221 H   0  0  0  0  0  0  0  0  0  0  0  0
   -0.8524    0.5972    0.3806 H   0  0  0  0  0  0  0  0  0  0  0  0
    0.6410    2.1523   -1.0168 H   0  0  0  0  0  0  0  0  0  0  0  0
    1.8186    0.8400   -1.1066 H   0  0  0  0  0  0  0  0  0  0  0  0
    0.7499    2.1868    1.4442 H   0  0  0  0  0  0  0  0  0  0  0  0
    1.9380    0.8786    1.4350 H   0  0  0  0  0  0  0  0  0  0  0  0
   -1.0263    1.0478   -2.6004 N   0  0  0  0  0  0  0  0  0  0  0  0
   -1.5796    0.9184   -3.9565 C   0  0  2  0  0  0  0  0  0  0  0  0
   -1.1269    2.0672   -4.8803 C   0  0  0  0  0  0  0  0  0  0  0  0
   -0.8182    3.1565   -4.4126 O   0  0  0  0  0  0  0  0  0  0  0  0
   -3.1103    0.8952   -3.8714 C   0  0  0  0  0  0  0  0  0  0  0  0
   -0.6660    1.9635   -2.3314 H   0  0  0  0  0  0  0  0  0  0  0  0
   -1.2276   -0.0179   -4.4015 H   0  0  0  0  0  0  0  0  0  0  0  0
   -3.4817    1.8242   -3.4272 H   0  0  0  0  0  0  0  0  0  0  0  0
   -3.5478    0.7852   -4.8680 H   0  0  0  0  0  0  0  0  0  0  0  0
   -3.4465    0.0559   -3.2546 H   0  0  0  0  0  0  0  0  0  0  0  0
   -1.0913    1.8848   -6.2514 N   0  0  0  0  0  0  0  0  0  0  0  0
   -0.6511    2.9149   -7.1835 C   0  0  0  0  0  0  0  0  0  0  0  0
   -1.3120    0.9594   -6.6063 H   0  0  0  0  0  0  0  0  0  0  0  0
   -1.2910    3.8002   -7.1060 H   0  0  0  0  0  0  0  0  0  0  0  0
    0.3829    3.2075   -6.9720 H   0  0  0  0  0  0  0  0  0  0  0  0
   -0.7017    2.5410   -8.2105 H   0  0  0  0  0  0  0  0  0  0  0  0
  1  2  2  0  0  0  0
  1  3  1  0  0  0  0
  1  7  1  0  0  0  0
  3  4  1  0  0  0  0
  3  5  1  0  0  0  0
  3  6  1  0  0  0  0
  7  8  1  0  0  0  0
  7 12  1  0  0  0  0
  8  9  1  0  0  0  0
  8 11  1  0  0  0  0
  8 13  1  0  0  0  0
  9 10  2  0  0  0  0
  9 17  1  0  0  0  0
 11 14  1  0  0  0  0
 11 15  1  0  0  0  0
 11 16  1  0  0  0  0
 17 18  1  0  0  0  0
 17 26  1  0  0  0  0
 18 19  1  0  0  0  0
 18 21  1  0  0  0  0
 18 27  1  0  0  0  0
 19 20  2  0  0  0  0
 19 32  1  0  0  0  0
 21 22  1  0  0  0  0
 21 28  1  0  0  0  0
 21 29  1  0  0  0  0
 22 23  1  0  0  0  0
 22 30  1  0  0  0  0
 22 31  1  0  0  0  0
 23 24  1  0  0  0  0
 23 25  2  0  0  0  0
 32 33  1  0  0  0  0
 32 37  1  0  0  0  0
 33 34  1  0  0  0  0
 33 36  1  0  0  0  0
 33 38  1  0  0  0  0
 34 35  2  0  0  0  0
 34 42  1  0  0  0  0
 36 39  1  0  0  0  0
 36 40  1  0  0  0  0
 36 41  1  0  0  0  0
 42 43  1  0  0  0  0
 42 44  1  0  0  0  0
 43 45  1  0  0  0  0
 43 46  1  0  0  0  0
 43 47  1  0  0  0  0
M  CHG  1  24  -1
M  END
$$$$

  -OEChem-05262216243D

 47 46  0     1  0  0  0  0  0999 V2000
    0.4552   -5.8129    1.1834 C   0  0  0  0  0  0  0  0  0  0  0  0
    1.6554   -5.9861    1.3299 O   0  0  0  0  0  0  0  0  0  0  0  0
   -0.5278   -6.8597    1.6750 C   0  0  0  0  0  0  0  0  0  0  0  0
   -1.1835   -7.1676    0.8569 H   0  0  0  0  0  0  0  0  0  0  0  0
    0.0086   -7.7370    2.0469 H   0  0  0  0  0  0  0  0  0  0  0  0
   -1.1363   -6.4479    2.4840 H   0  0  0  0  0  0  0  0  0  0  0  0
   -0.0197   -4.6699    0.5798 N   0  0  0  0  0  0  0  0  0  0  0  0
    0.7933   -3.4921    0.2530 C   0  0  2  0  0  0  0  0  0  0  0  0
   -0.0647   -2.2093    0.3058 C   0  0  0  0  0  0  0  0  0  0  0  0
   -1.2595   -2.2913    0.5771 O   0  0  0  0  0  0  0  0  0  0  0  0
    1.3924   -3.6794   -1.1445 C   0  0  0  0  0  0  0  0  0  0  0  0
   -1.0268   -4.5087    0.6149 H   0  0  0  0  0  0  0  0  0  0  0  0
    1.6016   -3.3824    0.9838 H   0  0  0  0  0  0  0  0  0  0  0  0
    0.5965   -3.7706   -1.8908 H   0  0  0  0  0  0  0  0  0  0  0  0
    2.0230   -2.8258   -1.4107 H   0  0  0  0  0  0  0  0  0  0  0  0
    2.0074   -4.5842   -1.1758 H   0  0  0  0  0  0  0  0  0  0  0  0
    0.5262   -0.9619    0.2314 N   0  0  0  0  0  0  0  0  0  0  0  0
   -0.1099    0.2323   -0.3608 C   0  0  2  0  0  0  0  0  0  0  0  0
   -0.8253    0.0308   -1.7362 C   0  0  0  0  0  0  0  0  0  0  0  0
   -1.4751   -0.9703   -2.0110 O   0  0  0  0  0  0  0  0  0  0  0  0
    0.9932    1.3100   -0.4273 C   0  0  0  0  0  0  0  0  0  0  0  0
    1.4309    1.7645    0.9745 C   0  0  0  0  0  0  0  0  0  0  0  0
    2.5375    2.8087    0.8631 C   0  0  0  0  0  0  0  0  0  0  0  0
    3.6996    2.3842    0.6483 O   0  5  0  0  0  0  0  0  0  0  0  0
    2.2129    4.0188    0.9289 O   0  0  0  0  0  0  0  0  0  0  0  0
    1.5408   -0.9757    0.1769 H   0  0  0  0  0  0  0  0  0  0  0  0
   -0.8873    0.5801    0.3268 H   0  0  0  0  0  0  0  0  0  0  0  0
    0.6226    2.2004   -0.9457 H   0  0  0  0  0  0  0  0  0  0  0  0
    1.8565    0.9334   -0.9877 H   0  0  0  0  0  0  0  0  0  0  0  0
    0.5783    2.1890    1.5131 H   0  0  0  0  0  0  0  0  0  0  0  0
    1.8051    0.9181    1.5570 H   0  0  0  0  0  0  0  0  0  0  0  0
   -0.6535    0.9334   -2.7742 N   0  0  0  0  0  0  0  0  0  0  0  0
   -1.2215    0.7911   -4.1227 C   0  0  2  0  0  0  0  0  0  0  0  0
   -0.3983    1.5410   -5.1906 C   0  0  0  0  0  0  0  0  0  0  0  0
    0.4178    2.3943   -4.8644 O   0  0  0  0  0  0  0  0  0  0  0  0
   -2.6601    1.3174   -4.0974 C   0  0  0  0  0  0  0  0  0  0  0  0
   -0.0190    1.7170   -2.6184 H   0  0  0  0  0  0  0  0  0  0  0  0
   -1.2287   -0.2664   -4.4065 H   0  0  0  0  0  0  0  0  0  0  0  0
   -2.6752    2.3736   -3.8095 H   0  0  0  0  0  0  0  0  0  0  0  0
   -3.1242    1.2169   -5.0828 H   0  0  0  0  0  0  0  0  0  0  0  0
   -3.2577    0.7515   -3.3759 H   0  0  0  0  0  0  0  0  0  0  0  0
   -0.5759    1.2573   -6.5336 N   0  0  0  0  0  0  0  0  0  0  0  0
    0.1892    1.9014   -7.5939 C   0  0  0  0  0  0  0  0  0  0  0  0
   -1.2380    0.5262   -6.7752 H   0  0  0  0  0  0  0  0  0  0  0  0
    0.0634    2.9885   -7.5518 H   0  0  0  0  0  0  0  0  0  0  0  0
    1.2537    1.6654   -7.4938 H   0  0  0  0  0  0  0  0  0  0  0  0
   -0.1529    1.5527   -8.5728 H   0  0  0  0  0  0  0  0  0  0  0  0
  1  2  2  0  0  0  0
  1  3  1  0  0  0  0
  1  7  1  0  0  0  0
  3  4  1  0  0  0  0
  3  5  1  0  0  0  0
  3  6  1  0  0  0  0
  7  8  1  0  0  0  0
  7 12  1  0  0  0  0
  8  9  1  0  0  0  0
  8 11  1  0  0  0  0
  8 13  1  0  0  0  0
  9 10  2  0  0  0  0
  9 17  1  0  0  0  0
 11 14  1  0  0  0  0
 11 15  1  0  0  0  0
 11 16  1  0  0  0  0
 17 18  1  0  0  0  0
 17 26  1  0  0  0  0
 18 19  1  0  0  0  0
 18 21  1  0  0  0  0
 18 27  1  0  0  0  0
 19 20  2  0  0  0  0
 19 32  1  0  0  0  0
 21 22  1  0  0  0  0
 21 28  1  0  0  0  0
 21 29  1  0  0  0  0
 22 23  1  0  0  0  0
 22 30  1  0  0  0  0
 22 31  1  0  0  0  0
 23 24  1  0  0  0  0
 23 25  2  0  0  0  0
 32 33  1  0  0  0  0
 32 37  1  0  0  0  0
 33 34  1  0  0  0  0
 33 36  1  0  0  0  0
 33 38  1  0  0  0  0
 34 35  2  0  0  0  0
 34 42  1  0  0  0  0
 36 39  1  0  0  0  0
 36 40  1  0  0  0  0
 36 41  1  0  0  0  0
 42 43  1  0  0  0  0
 42 44  1  0  0  0  0
 43 45  1  0  0  0  0
 43 46  1  0  0  0  0
 43 47  1  0  0  0  0
M  CHG  1  24  -1
M  END
$$$$

  -OEChem-05262216243D

 47 46  0     1  0  0  0  0  0999 V2000
    0.4938   -5.7916    1.4712 C   0  0  0  0  0  0  0  0  0  0  0  0
    1.6240   -5.8124    1.9334 O   0  0  0  0  0  0  0  0  0  0  0  0
   -0.4978   -6.8767    1.8486 C   0  0  0  0  0  0  0  0  0  0  0  0
   -0.8538   -7.3870    0.9503 H   0  0  0  0  0  0  0  0  0  0  0  0
   -0.0229   -7.6102    2.5061 H   0  0  0  0  0  0  0  0  0  0  0  0
   -1.3507   -6.4351    2.3699 H   0  0  0  0  0  0  0  0  0  0  0  0
    0.1053   -4.7832    0.6170 N   0  0  0  0  0  0  0  0  0  0  0  0
    0.8794   -3.5623    0.3595 C   0  0  2  0  0  0  0  0  0  0  0  0
   -0.0559   -2.3728    0.0467 C   0  0  0  0  0  0  0  0  0  0  0  0
   -1.2584   -2.5782   -0.0541 O   0  0  0  0  0  0  0  0  0  0  0  0
    1.8316   -3.8235   -0.8115 C   0  0  0  0  0  0  0  0  0  0  0  0
   -0.8862   -4.7300    0.3813 H   0  0  0  0  0  0  0  0  0  0  0  0
    1.4615   -3.2982    1.2489 H   0  0  0  0  0  0  0  0  0  0  0  0
    1.2653   -4.0696   -1.7154 H   0  0  0  0  0  0  0  0  0  0  0  0
    2.4454   -2.9405   -1.0134 H   0  0  0  0  0  0  0  0  0  0  0  0
    2.4987   -4.6593   -0.5784 H   0  0  0  0  0  0  0  0  0  0  0  0
    0.4552   -1.0881    0.0226 N   0  0  0  0  0  0  0  0  0  0  0  0
   -0.1715    0.1298   -0.5307 C   0  0  2  0  0  0  0  0  0  0  0  0
   -0.8352    0.0039   -1.9358 C   0  0  0  0  0  0  0  0  0  0  0  0
   -1.8635   -0.6332   -2.1193 O   0  0  0  0  0  0  0  0  0  0  0  0
    0.9196    1.2197   -0.5028 C   0  0  0  0  0  0  0  0  0  0  0  0
    1.3040    1.6096    0.9335 C   0  0  0  0  0  0  0  0  0  0  0  0
    2.4010    2.6690    0.9065 C   0  0  0  0  0  0  0  0  0  0  0  0
    3.5874    2.2587    0.8953 O   0  5  0  0  0  0  0  0  0  0  0  0
    2.0526    3.8710    0.8161 O   0  0  0  0  0  0  0  0  0  0  0  0
    1.4461   -1.0099    0.2379 H   0  0  0  0  0  0  0  0  0  0  0  0
   -0.9770    0.4348    0.1450 H   0  0  0  0  0  0  0  0  0  0  0  0
    0.5517    2.1264   -0.9961 H   0  0  0  0  0  0  0  0  0  0  0  0
    1.8084    0.8795   -1.0468 H   0  0  0  0  0  0  0  0  0  0  0  0
    0.4309    2.0029    1.4625 H   0  0  0  0  0  0  0  0  0  0  0  0
    1.6660    0.7395    1.4884 H   0  0  0  0  0  0  0  0  0  0  0  0
   -0.3982    0.7752   -3.0015 N   0  0  0  0  0  0  0  0  0  0  0  0
   -0.9870    0.7652   -4.3479 C   0  0  2  0  0  0  0  0  0  0  0  0
    0.0681    0.9598   -5.4574 C   0  0  0  0  0  0  0  0  0  0  0  0
    1.2160    1.2901   -5.1836 O   0  0  0  0  0  0  0  0  0  0  0  0
   -2.0419    1.8739   -4.4101 C   0  0  0  0  0  0  0  0  0  0  0  0
    0.4888    1.2652   -2.8867 H   0  0  0  0  0  0  0  0  0  0  0  0
   -1.4685   -0.2006   -4.5336 H   0  0  0  0  0  0  0  0  0  0  0  0
   -1.5774    2.8519   -4.2469 H   0  0  0  0  0  0  0  0  0  0  0  0
   -2.5380    1.8800   -5.3850 H   0  0  0  0  0  0  0  0  0  0  0  0
   -2.8018    1.7160   -3.6380 H   0  0  0  0  0  0  0  0  0  0  0  0
   -0.2749    0.7574   -6.7826 N   0  0  0  0  0  0  0  0  0  0  0  0
    0.6587    0.9301   -7.8881 C   0  0  0  0  0  0  0  0  0  0  0  0
   -1.2309    0.4781   -6.9807 H   0  0  0  0  0  0  0  0  0  0  0  0
    1.0445    1.9549   -7.9063 H   0  0  0  0  0  0  0  0  0  0  0  0
    1.5013    0.2376   -7.7905 H   0  0  0  0  0  0  0  0  0  0  0  0
    0.1568    0.7327   -8.8401 H   0  0  0  0  0  0  0  0  0  0  0  0
  1  2  2  0  0  0  0
  1  3  1  0  0  0  0
  1  7  1  0  0  0  0
  3  4  1  0  0  0  0
  3  5  1  0  0  0  0
  3  6  1  0  0  0  0
  7  8  1  0  0  0  0
  7 12  1  0  0  0  0
  8  9  1  0  0  0  0
  8 11  1  0  0  0  0
  8 13  1  0  0  0  0
  9 10  2  0  0  0  0
  9 17  1  0  0  0  0
 11 14  1  0  0  0  0
 11 15  1  0  0  0  0
 11 16  1  0  0  0  0
 17 18  1  0  0  0  0
 17 26  1  0  0  0  0
 18 19  1  0  0  0  0
 18 21  1  0  0  0  0
 18 27  1  0  0  0  0
 19 20  2  0  0  0  0
 19 32  1  0  0  0  0
 21 22  1  0  0  0  0
 21 28  1  0  0  0  0
 21 29  1  0  0  0  0
 22 23  1  0  0  0  0
 22 30  1  0  0  0  0
 22 31  1  0  0  0  0
 23 24  1  0  0  0  0
 23 25  2  0  0  0  0
 32 33  1  0  0  0  0
 32 37  1  0  0  0  0
 33 34  1  0  0  0  0
 33 36  1  0  0  0  0
 33 38  1  0  0  0  0
 34 35  2  0  0  0  0
 34 42  1  0  0  0  0
 36 39  1  0  0  0  0
 36 40  1  0  0  0  0
 36 41  1  0  0  0  0
 42 43  1  0  0  0  0
 42 44  1  0  0  0  0
 43 45  1  0  0  0  0
 43 46  1  0  0  0  0
 43 47  1  0  0  0  0
M  CHG  1  24  -1
M  END
$$$$

  -OEChem-05262216243D

 47 46  0     1  0  0  0  0  0999 V2000
    0.4051   -5.7852    1.4544 C   0  0  0  0  0  0  0  0  0  0  0  0
    1.3712   -5.7388    2.1999 O   0  0  0  0  0  0  0  0  0  0  0  0
   -0.5798   -6.9352    1.5611 C   0  0  0  0  0  0  0  0  0  0  0  0
   -0.5887   -7.5055    0.6291 H   0  0  0  0  0  0  0  0  0  0  0  0
   -0.2963   -7.6010    2.3811 H   0  0  0  0  0  0  0  0  0  0  0  0
   -1.5839   -6.5487    1.7528 H   0  0  0  0  0  0  0  0  0  0  0  0
    0.1939   -4.7962    0.5188 N   0  0  0  0  0  0  0  0  0  0  0  0
    0.9375   -3.5310    0.4571 C   0  0  2  0  0  0  0  0  0  0  0  0
    0.0527   -2.3985   -0.1104 C   0  0  0  0  0  0  0  0  0  0  0  0
   -1.0566   -2.6765   -0.5456 O   0  0  0  0  0  0  0  0  0  0  0  0
    2.1823   -3.7320   -0.4137 C   0  0  0  0  0  0  0  0  0  0  0  0
   -0.7015   -4.8042    0.0291 H   0  0  0  0  0  0  0  0  0  0  0  0
    1.2447   -3.2340    1.4659 H   0  0  0  0  0  0  0  0  0  0  0  0
    1.8952   -4.0105   -1.4328 H   0  0  0  0  0  0  0  0  0  0  0  0
    2.7743   -2.8126   -0.4571 H   0  0  0  0  0  0  0  0  0  0  0  0
    2.8115   -4.5255    0.0015 H   0  0  0  0  0  0  0  0  0  0  0  0
    0.5138   -1.0950   -0.0826 N   0  0  0  0  0  0  0  0  0  0  0  0
   -0.1519    0.1233   -0.5837 C   0  0  2  0  0  0  0  0  0  0  0  0
   -0.8086    0.0214   -1.9883 C   0  0  0  0  0  0  0  0  0  0  0  0
   -1.9829   -0.3067   -2.1097 O   0  0  0  0  0  0  0  0  0  0  0  0
    0.9036    1.2457   -0.5369 C   0  0  0  0  0  0  0  0  0  0  0  0
    1.3001    1.6023    0.9063 C   0  0  0  0  0  0  0  0  0  0  0  0
    2.3646    2.6979    0.9205 C   0  0  0  0  0  0  0  0  0  0  0  0
    3.4847    2.4002    1.4013 O   0  5  0  0  0  0  0  0  0  0  0  0
    2.0794    3.7991    0.3897 O   0  0  0  0  0  0  0  0  0  0  0  0
    1.4167   -0.9551    0.3647 H   0  0  0  0  0  0  0  0  0  0  0  0
   -0.9613    0.3822    0.1068 H   0  0  0  0  0  0  0  0  0  0  0  0
    0.4964    2.1480   -1.0083 H   0  0  0  0  0  0  0  0  0  0  0  0
    1.7963    0.9503   -1.0992 H   0  0  0  0  0  0  0  0  0  0  0  0
    0.4233    1.9519    1.4588 H   0  0  0  0  0  0  0  0  0  0  0  0
    1.6896    0.7215    1.4243 H   0  0  0  0  0  0  0  0  0  0  0  0
   -0.2070    0.6044   -3.0914 N   0  0  0  0  0  0  0  0  0  0  0  0
   -0.7718    0.6210   -4.4463 C   0  0  2  0  0  0  0  0  0  0  0  0
    0.2679    0.2452   -5.5222 C   0  0  0  0  0  0  0  0  0  0  0  0
    1.4695    0.2986   -5.2838 O   0  0  0  0  0  0  0  0  0  0  0  0
   -1.3262    2.0246   -4.6995 C   0  0  0  0  0  0  0  0  0  0  0  0
    0.7766    0.8527   -2.9967 H   0  0  0  0  0  0  0  0  0  0  0  0
   -1.5876   -0.1050   -4.5234 H   0  0  0  0  0  0  0  0  0  0  0  0
   -0.5253    2.7688   -4.6388 H   0  0  0  0  0  0  0  0  0  0  0  0
   -1.7853    2.0841   -5.6906 H   0  0  0  0  0  0  0  0  0  0  0  0
   -2.0862    2.2695   -3.9505 H   0  0  0  0  0  0  0  0  0  0  0  0
   -0.1512   -0.1505   -6.7801 N   0  0  0  0  0  0  0  0  0  0  0  0
    0.7654   -0.5303   -7.8471 C   0  0  0  0  0  0  0  0  0  0  0  0
   -1.1520   -0.2158   -6.9402 H   0  0  0  0  0  0  0  0  0  0  0  0
    1.4260    0.3061   -8.0988 H   0  0  0  0  0  0  0  0  0  0  0  0
    1.3780   -1.3842   -7.5394 H   0  0  0  0  0  0  0  0  0  0  0  0
    0.2057   -0.8111   -8.7444 H   0  0  0  0  0  0  0  0  0  0  0  0
  1  2  2  0  0  0  0
  1  3  1  0  0  0  0
  1  7  1  0  0  0  0
  3  4  1  0  0  0  0
  3  5  1  0  0  0  0
  3  6  1  0  0  0  0
  7  8  1  0  0  0  0
  7 12  1  0  0  0  0
  8  9  1  0  0  0  0
  8 11  1  0  0  0  0
  8 13  1  0  0  0  0
  9 10  2  0  0  0  0
  9 17  1  0  0  0  0
 11 14  1  0  0  0  0
 11 15  1  0  0  0  0
 11 16  1  0  0  0  0
 17 18  1  0  0  0  0
 17 26  1  0  0  0  0
 18 19  1  0  0  0  0
 18 21  1  0  0  0  0
 18 27  1  0  0  0  0
 19 20  2  0  0  0  0
 19 32  1  0  0  0  0
 21 22  1  0  0  0  0
 21 28  1  0  0  0  0
 21 29  1  0  0  0  0
 22 23  1  0  0  0  0
 22 30  1  0  0  0  0
 22 31  1  0  0  0  0
 23 24  1  0  0  0  0
 23 25  2  0  0  0  0
 32 33  1  0  0  0  0
 32 37  1  0  0  0  0
 33 34  1  0  0  0  0
 33 36  1  0  0  0  0
 33 38  1  0  0  0  0
 34 35  2  0  0  0  0
 34 42  1  0  0  0  0
 36 39  1  0  0  0  0
 36 40  1  0  0  0  0
 36 41  1  0  0  0  0
 42 43  1  0  0  0  0
 42 44  1  0  0  0  0
 43 45  1  0  0  0  0
 43 46  1  0  0  0  0
 43 47  1  0  0  0  0
M  CHG  1  24  -1
M  END
$$$$

  -OEChem-05262216243D

 47 46  0     1  0  0  0  0  0999 V2000
    0.3640   -5.7602    1.4879 C   0  0  0  0  0  0  0  0  0  0  0  0
    1.2883   -5.7026    2.2839 O   0  0  0  0  0  0  0  0  0  0  0  0
   -0.6295   -6.9053    1.5635 C   0  0  0  0  0  0  0  0  0  0  0  0
   -0.6101   -7.4785    0.6334 H   0  0  0  0  0  0  0  0  0  0  0  0
   -0.3767   -7.5705    2.3938 H   0  0  0  0  0  0  0  0  0  0  0  0
   -1.6373   -6.5133    1.7211 H   0  0  0  0  0  0  0  0  0  0  0  0
    0.2064   -4.7856    0.5268 N   0  0  0  0  0  0  0  0  0  0  0  0
    0.9525   -3.5205    0.4924 C   0  0  2  0  0  0  0  0  0  0  0  0
    0.0953   -2.3901   -0.1191 C   0  0  0  0  0  0  0  0  0  0  0  0
   -0.9939   -2.6655   -0.6063 O   0  0  0  0  0  0  0  0  0  0  0  0
    2.2359   -3.7260   -0.3187 C   0  0  0  0  0  0  0  0  0  0  0  0
   -0.6607   -4.8003   -0.0109 H   0  0  0  0  0  0  0  0  0  0  0  0
    1.2149   -3.2182    1.5121 H   0  0  0  0  0  0  0  0  0  0  0  0
    1.9962   -4.0059   -1.3495 H   0  0  0  0  0  0  0  0  0  0  0  0
    2.8319   -2.8082   -0.3354 H   0  0  0  0  0  0  0  0  0  0  0  0
    2.8426   -4.5202    0.1271 H   0  0  0  0  0  0  0  0  0  0  0  0
    0.5544   -1.0866   -0.0859 N   0  0  0  0  0  0  0  0  0  0  0  0
   -0.1229    0.1190   -0.5978 C   0  0  2  0  0  0  0  0  0  0  0  0
   -0.7610   -0.0153   -2.0045 C   0  0  0  0  0  0  0  0  0  0  0  0
   -1.9755   -0.1294   -2.1280 O   0  0  0  0  0  0  0  0  0  0  0  0
    0.9147    1.2558   -0.5688 C   0  0  0  0  0  0  0  0  0  0  0  0
    1.3080    1.6335    0.8686 C   0  0  0  0  0  0  0  0  0  0  0  0
    2.3545    2.7432    0.8482 C   0  0  0  0  0  0  0  0  0  0  0  0
    3.5573    2.3902    0.9150 O   0  5  0  0  0  0  0  0  0  0  0  0
    1.9570    3.9231    0.6935 O   0  0  0  0  0  0  0  0  0  0  0  0
    1.4444   -0.9359    0.3838 H   0  0  0  0  0  0  0  0  0  0  0  0
   -0.9395    0.3750    0.0852 H   0  0  0  0  0  0  0  0  0  0  0  0
    0.4953    2.1449   -1.0547 H   0  0  0  0  0  0  0  0  0  0  0  0
    1.8118    0.9643   -1.1262 H   0  0  0  0  0  0  0  0  0  0  0  0
    0.4280    1.9758    1.4206 H   0  0  0  0  0  0  0  0  0  0  0  0
    1.7172    0.7691    1.3989 H   0  0  0  0  0  0  0  0  0  0  0  0
   -0.0259    0.2820   -3.1396 N   0  0  0  0  0  0  0  0  0  0  0  0
   -0.5457    0.2074   -4.5102 C   0  0  2  0  0  0  0  0  0  0  0  0
    0.4324   -0.4937   -5.4753 C   0  0  0  0  0  0  0  0  0  0  0  0
    1.6131   -0.6424   -5.1791 O   0  0  0  0  0  0  0  0  0  0  0  0
   -0.8343    1.6357   -4.9781 C   0  0  0  0  0  0  0  0  0  0  0  0
    0.9862    0.3175   -3.0294 H   0  0  0  0  0  0  0  0  0  0  0  0
   -1.4764   -0.3686   -4.5267 H   0  0  0  0  0  0  0  0  0  0  0  0
    0.0863    2.2281   -4.9890 H   0  0  0  0  0  0  0  0  0  0  0  0
   -1.2595    1.6320   -5.9860 H   0  0  0  0  0  0  0  0  0  0  0  0
   -1.5493    2.1161   -4.3023 H   0  0  0  0  0  0  0  0  0  0  0  0
   -0.0177   -0.9524   -6.7008 N   0  0  0  0  0  0  0  0  0  0  0  0
    0.8379   -1.6260   -7.6687 C   0  0  0  0  0  0  0  0  0  0  0  0
   -1.0071   -0.8457   -6.9043 H   0  0  0  0  0  0  0  0  0  0  0  0
    1.6758   -0.9808   -7.9533 H   0  0  0  0  0  0  0  0  0  0  0  0
    1.2347   -2.5552   -7.2468 H   0  0  0  0  0  0  0  0  0  0  0  0
    0.2686   -1.8701   -8.5705 H   0  0  0  0  0  0  0  0  0  0  0  0
  1  2  2  0  0  0  0
  1  3  1  0  0  0  0
  1  7  1  0  0  0  0
  3  4  1  0  0  0  0
  3  5  1  0  0  0  0
  3  6  1  0  0  0  0
  7  8  1  0  0  0  0
  7 12  1  0  0  0  0
  8  9  1  0  0  0  0
  8 11  1  0  0  0  0
  8 13  1  0  0  0  0
  9 10  2  0  0  0  0
  9 17  1  0  0  0  0
 11 14  1  0  0  0  0
 11 15  1  0  0  0  0
 11 16  1  0  0  0  0
 17 18  1  0  0  0  0
 17 26  1  0  0  0  0
 18 19  1  0  0  0  0
 18 21  1  0  0  0  0
 18 27  1  0  0  0  0
 19 20  2  0  0  0  0
 19 32  1  0  0  0  0
 21 22  1  0  0  0  0
 21 28  1  0  0  0  0
 21 29  1  0  0  0  0
 22 23  1  0  0  0  0
 22 30  1  0  0  0  0
 22 31  1  0  0  0  0
 23 24  1  0  0  0  0
 23 25  2  0  0  0  0
 32 33  1  0  0  0  0
 32 37  1  0  0  0  0
 33 34  1  0  0  0  0
 33 36  1  0  0  0  0
 33 38  1  0  0  0  0
 34 35  2  0  0  0  0
 34 42  1  0  0  0  0
 36 39  1  0  0  0  0
 36 40  1  0  0  0  0
 36 41  1  0  0  0  0
 42 43  1  0  0  0  0
 42 44  1  0  0  0  0
 43 45  1  0  0  0  0
 43 46  1  0  0  0  0
 43 47  1  0  0  0  0
M  CHG  1  24  -1
M  END
$$$$

  -OEChem-05262216243D

 47 46  0     1  0  0  0  0  0999 V2000
    0.5952   -5.8169    0.3486 C   0  0  0  0  0  0  0  0  0  0  0  0
    1.4625   -5.8334    1.2079 O   0  0  0  0  0  0  0  0  0  0  0  0
   -0.2417   -7.0561    0.0898 C   0  0  0  0  0  0  0  0  0  0  0  0
   -0.1149   -7.3817   -0.9457 H   0  0  0  0  0  0  0  0  0  0  0  0
    0.0677   -7.8670    0.7552 H   0  0  0  0  0  0  0  0  0  0  0  0
   -1.2973   -6.8368    0.2686 H   0  0  0  0  0  0  0  0  0  0  0  0
    0.3652   -4.6764   -0.3892 N   0  0  0  0  0  0  0  0  0  0  0  0
    0.9855   -3.3708   -0.1295 C   0  0  2  0  0  0  0  0  0  0  0  0
    0.0719   -2.2221   -0.6084 C   0  0  0  0  0  0  0  0  0  0  0  0
   -0.9411   -2.4897   -1.2439 O   0  0  0  0  0  0  0  0  0  0  0  0
    2.3359   -3.3170   -0.8525 C   0  0  0  0  0  0  0  0  0  0  0  0
   -0.4590   -4.6672   -0.9899 H   0  0  0  0  0  0  0  0  0  0  0  0
    1.1429   -3.2434    0.9470 H   0  0  0  0  0  0  0  0  0  0  0  0
    2.1951   -3.4193   -1.9334 H   0  0  0  0  0  0  0  0  0  0  0  0
    2.8414   -2.3669   -0.6548 H   0  0  0  0  0  0  0  0  0  0  0  0
    2.9848   -4.1278   -0.5069 H   0  0  0  0  0  0  0  0  0  0  0  0
    0.4094   -0.9072   -0.3432 N   0  0  0  0  0  0  0  0  0  0  0  0
   -0.2903    0.3005   -0.8201 C   0  0  2  0  0  0  0  0  0  0  0  0
   -0.6682    0.2582   -2.3192 C   0  0  0  0  0  0  0  0  0  0  0  0
   -1.8217    0.0643   -2.6812 O   0  0  0  0  0  0  0  0  0  0  0  0
    0.6443    1.4887   -0.5437 C   0  0  0  0  0  0  0  0  0  0  0  0
    0.8290    1.7392    0.9619 C   0  0  0  0  0  0  0  0  0  0  0  0
    1.7840    2.9091    1.1787 C   0  0  0  0  0  0  0  0  0  0  0  0
    2.9839    2.7174    0.8597 O   0  5  0  0  0  0  0  0  0  0  0  0
    1.3180    3.9860    1.6199 O   0  0  0  0  0  0  0  0  0  0  0  0
    1.2339   -0.7565    0.2345 H   0  0  0  0  0  0  0  0  0  0  0  0
   -1.2185    0.4307   -0.2536 H   0  0  0  0  0  0  0  0  0  0  0  0
    0.2225    2.3945   -0.9948 H   0  0  0  0  0  0  0  0  0  0  0  0
    1.6227    1.3140   -1.0050 H   0  0  0  0  0  0  0  0  0  0  0  0
   -0.1377    1.9603    1.4246 H   0  0  0  0  0  0  0  0  0  0  0  0
    1.2429    0.8557    1.4553 H   0  0  0  0  0  0  0  0  0  0  0  0
    0.3010    0.4355   -3.2907 N   0  0  0  0  0  0  0  0  0  0  0  0
    0.0784    0.1708   -4.7203 C   0  0  2  0  0  0  0  0  0  0  0  0
    0.1505   -1.3418   -5.0558 C   0  0  0  0  0  0  0  0  0  0  0  0
    0.7981   -1.7536   -6.0135 O   0  0  0  0  0  0  0  0  0  0  0  0
    1.1027    1.0055   -5.4988 C   0  0  0  0  0  0  0  0  0  0  0  0
    1.2570    0.5313   -2.9603 H   0  0  0  0  0  0  0  0  0  0  0  0
   -0.9201    0.5171   -5.0069 H   0  0  0  0  0  0  0  0  0  0  0  0
    2.1214    0.6785   -5.2673 H   0  0  0  0  0  0  0  0  0  0  0  0
    0.9397    0.8992   -6.5759 H   0  0  0  0  0  0  0  0  0  0  0  0
    1.0067    2.0644   -5.2397 H   0  0  0  0  0  0  0  0  0  0  0  0
   -0.4940   -2.2625   -4.2504 N   0  0  0  0  0  0  0  0  0  0  0  0
   -0.4127   -3.7038   -4.4285 C   0  0  0  0  0  0  0  0  0  0  0  0
   -1.0118   -1.8952   -3.4448 H   0  0  0  0  0  0  0  0  0  0  0  0
   -0.7657   -3.9875   -5.4250 H   0  0  0  0  0  0  0  0  0  0  0  0
    0.6196   -4.0467   -4.3054 H   0  0  0  0  0  0  0  0  0  0  0  0
   -1.0369   -4.2070   -3.6839 H   0  0  0  0  0  0  0  0  0  0  0  0
  1  2  2  0  0  0  0
  1  3  1  0  0  0  0
  1  7  1  0  0  0  0
  3  4  1  0  0  0  0
  3  5  1  0  0  0  0
  3  6  1  0  0  0  0
  7  8  1  0  0  0  0
  7 12  1  0  0  0  0
  8  9  1  0  0  0  0
  8 11  1  0  0  0  0
  8 13  1  0  0  0  0
  9 10  2  0  0  0  0
  9 17  1  0  0  0  0
 11 14  1  0  0  0  0
 11 15  1  0  0  0  0
 11 16  1  0  0  0  0
 17 18  1  0  0  0  0
 17 26  1  0  0  0  0
 18 19  1  0  0  0  0
 18 21  1  0  0  0  0
 18 27  1  0  0  0  0
 19 20  2  0  0  0  0
 19 32  1  0  0  0  0
 21 22  1  0  0  0  0
 21 28  1  0  0  0  0
 21 29  1  0  0  0  0
 22 23  1  0  0  0  0
 22 30  1  0  0  0  0
 22 31  1  0  0  0  0
 23 24  1  0  0  0  0
 23 25  2  0  0  0  0
 32 33  1  0  0  0  0
 32 37  1  0  0  0  0
 33 34  1  0  0  0  0
 33 36  1  0  0  0  0
 33 38  1  0  0  0  0
 34 35  2  0  0  0  0
 34 42  1  0  0  0  0
 36 39  1  0  0  0  0
 36 40  1  0  0  0  0
 36 41  1  0  0  0  0
 42 43  1  0  0  0  0
 42 44  1  0  0  0  0
 43 45  1  0  0  0  0
 43 46  1  0  0  0  0
 43 47  1  0  0  0  0
M  CHG  1  24  -1
M  END
$$$$

  -OEChem-05262216243D

 47 46  0     1  0  0  0  0  0999 V2000
    0.6845   -5.8731    0.6754 C   0  0  0  0  0  0  0  0  0  0  0  0
    1.5089   -5.8235    1.5747 O   0  0  0  0  0  0  0  0  0  0  0  0
   -0.1383   -7.1312    0.4669 C   0  0  0  0  0  0  0  0  0  0  0  0
    0.0171   -7.5152   -0.5443 H   0  0  0  0  0  0  0  0  0  0  0  0
    0.1583   -7.9006    1.1854 H   0  0  0  0  0  0  0  0  0  0  0  0
   -1.1993   -6.9093    0.6057 H   0  0  0  0  0  0  0  0  0  0  0  0
    0.4877   -4.7876   -0.1503 N   0  0  0  0  0  0  0  0  0  0  0  0
    1.0951   -3.4647    0.0450 C   0  0  2  0  0  0  0  0  0  0  0  0
    0.2037   -2.3521   -0.5474 C   0  0  0  0  0  0  0  0  0  0  0  0
   -0.7727   -2.6574   -1.2232 O   0  0  0  0  0  0  0  0  0  0  0  0
    2.4757   -3.4569   -0.6208 C   0  0  0  0  0  0  0  0  0  0  0  0
   -0.2993   -4.8295   -0.7973 H   0  0  0  0  0  0  0  0  0  0  0  0
    1.2072   -3.2635    1.1160 H   0  0  0  0  0  0  0  0  0  0  0  0
    2.3839   -3.6544   -1.6937 H   0  0  0  0  0  0  0  0  0  0  0  0
    2.9644   -2.4872   -0.4850 H   0  0  0  0  0  0  0  0  0  0  0  0
    3.1149   -4.2270   -0.1778 H   0  0  0  0  0  0  0  0  0  0  0  0
    0.5167   -1.0220   -0.3351 N   0  0  0  0  0  0  0  0  0  0  0  0
   -0.2321    0.1484   -0.8296 C   0  0  2  0  0  0  0  0  0  0  0  0
   -0.6597    0.0517   -2.3109 C   0  0  0  0  0  0  0  0  0  0  0  0
   -1.8392    0.0964   -2.6341 O   0  0  0  0  0  0  0  0  0  0  0  0
    0.6891    1.3632   -0.6425 C   0  0  0  0  0  0  0  0  0  0  0  0
    0.9319    1.6747    0.8439 C   0  0  0  0  0  0  0  0  0  0  0  0
    1.8717    2.8691    0.9803 C   0  0  0  0  0  0  0  0  0  0  0  0
    3.0657    2.6815    0.6380 O   0  5  0  0  0  0  0  0  0  0  0  0
    1.4029    3.9545    1.3972 O   0  0  0  0  0  0  0  0  0  0  0  0
    1.3017   -0.8302    0.2844 H   0  0  0  0  0  0  0  0  0  0  0  0
   -1.1403    0.2821   -0.2324 H   0  0  0  0  0  0  0  0  0  0  0  0
    0.2292    2.2423   -1.1088 H   0  0  0  0  0  0  0  0  0  0  0  0
    1.6488    1.1904   -1.1423 H   0  0  0  0  0  0  0  0  0  0  0  0
   -0.0191    1.8957    1.3377 H   0  0  0  0  0  0  0  0  0  0  0  0
    1.3826    0.8185    1.3527 H   0  0  0  0  0  0  0  0  0  0  0  0
    0.2987   -0.0838   -3.2988 N   0  0  0  0  0  0  0  0  0  0  0  0
   -0.0020   -0.2691   -4.7264 C   0  0  2  0  0  0  0  0  0  0  0  0
   -0.2316   -1.7526   -5.1131 C   0  0  0  0  0  0  0  0  0  0  0  0
    0.0535   -2.1616   -6.2345 O   0  0  0  0  0  0  0  0  0  0  0  0
    1.1515    0.3695   -5.5099 C   0  0  0  0  0  0  0  0  0  0  0  0
    1.2631   -0.1527   -2.9883 H   0  0  0  0  0  0  0  0  0  0  0  0
   -0.9197    0.2717   -4.9803 H   0  0  0  0  0  0  0  0  0  0  0  0
    2.0858   -0.1706   -5.3273 H   0  0  0  0  0  0  0  0  0  0  0  0
    0.9414    0.3471   -6.5838 H   0  0  0  0  0  0  0  0  0  0  0  0
    1.2846    1.4134   -5.2087 H   0  0  0  0  0  0  0  0  0  0  0  0
   -0.7356   -2.6543   -4.1934 N   0  0  0  0  0  0  0  0  0  0  0  0
   -1.0030   -4.0539   -4.4870 C   0  0  0  0  0  0  0  0  0  0  0  0
   -0.9935   -2.2892   -3.2713 H   0  0  0  0  0  0  0  0  0  0  0  0
   -1.7386   -4.1414   -5.2930 H   0  0  0  0  0  0  0  0  0  0  0  0
   -0.0832   -4.5654   -4.7883 H   0  0  0  0  0  0  0  0  0  0  0  0
   -1.4015   -4.5521   -3.5981 H   0  0  0  0  0  0  0  0  0  0  0  0
  1  2  2  0  0  0  0
  1  3  1  0  0  0  0
  1  7  1  0  0  0  0
  3  4  1  0  0  0  0
  3  5  1  0  0  0  0
  3  6  1  0  0  0  0
  7  8  1  0  0  0  0
  7 12  1  0  0  0  0
  8  9  1  0  0  0  0
  8 11  1  0  0  0  0
  8 13  1  0  0  0  0
  9 10  2  0  0  0  0
  9 17  1  0  0  0  0
 11 14  1  0  0  0  0
 11 15  1  0  0  0  0
 11 16  1  0  0  0  0
 17 18  1  0  0  0  0
 17 26  1  0  0  0  0
 18 19  1  0  0  0  0
 18 21  1  0  0  0  0
 18 27  1  0  0  0  0
 19 20  2  0  0  0  0
 19 32  1  0  0  0  0
 21 22  1  0  0  0  0
 21 28  1  0  0  0  0
 21 29  1  0  0  0  0
 22 23  1  0  0  0  0
 22 30  1  0  0  0  0
 22 31  1  0  0  0  0
 23 24  1  0  0  0  0
 23 25  2  0  0  0  0
 32 33  1  0  0  0  0
 32 37  1  0  0  0  0
 33 34  1  0  0  0  0
 33 36  1  0  0  0  0
 33 38  1  0  0  0  0
 34 35  2  0  0  0  0
 34 42  1  0  0  0  0
 36 39  1  0  0  0  0
 36 40  1  0  0  0  0
 36 41  1  0  0  0  0
 42 43  1  0  0  0  0
 42 44  1  0  0  0  0
 43 45  1  0  0  0  0
 43 46  1  0  0  0  0
 43 47  1  0  0  0  0
M  CHG  1  24  -1
M  END
$$$$

  -OEChem-05262216243D

 47 46  0     1  0  0  0  0  0999 V2000
    1.0107   -5.7564   -0.6467 C   0  0  0  0  0  0  0  0  0  0  0  0
    1.3678   -6.1737    0.4456 O   0  0  0  0  0  0  0  0  0  0  0  0
    0.7168   -6.7296   -1.7731 C   0  0  0  0  0  0  0  0  0  0  0  0
    1.4141   -6.5634   -2.5981 H   0  0  0  0  0  0  0  0  0  0  0  0
    0.8197   -7.7597   -1.4219 H   0  0  0  0  0  0  0  0  0  0  0  0
   -0.3027   -6.5800   -2.1372 H   0  0  0  0  0  0  0  0  0  0  0  0
    0.8764   -4.4042   -0.8695 N   0  0  0  0  0  0  0  0  0  0  0  0
    0.9558   -3.3763    0.1818 C   0  0  2  0  0  0  0  0  0  0  0  0
   -0.0068   -2.2042   -0.1134 C   0  0  0  0  0  0  0  0  0  0  0  0
   -1.1351   -2.4464   -0.5160 O   0  0  0  0  0  0  0  0  0  0  0  0
    2.4205   -2.9321    0.3021 C   0  0  0  0  0  0  0  0  0  0  0  0
    0.4574   -4.1464   -1.7688 H   0  0  0  0  0  0  0  0  0  0  0  0
    0.6399   -3.8017    1.1405 H   0  0  0  0  0  0  0  0  0  0  0  0
    2.7659   -2.4808   -0.6334 H   0  0  0  0  0  0  0  0  0  0  0  0
    2.5387   -2.2046    1.1112 H   0  0  0  0  0  0  0  0  0  0  0  0
    3.0574   -3.7939    0.5260 H   0  0  0  0  0  0  0  0  0  0  0  0
    0.4141   -0.8852   -0.0759 N   0  0  0  0  0  0  0  0  0  0  0  0
   -0.2285    0.2208   -0.8129 C   0  0  2  0  0  0  0  0  0  0  0  0
   -0.5514   -0.1529   -2.2784 C   0  0  0  0  0  0  0  0  0  0  0  0
   -1.6652    0.0102   -2.7654 O   0  0  0  0  0  0  0  0  0  0  0  0
    0.7695    1.3877   -0.8090 C   0  0  0  0  0  0  0  0  0  0  0  0
    0.9855    1.9591    0.6015 C   0  0  0  0  0  0  0  0  0  0  0  0
    2.0039    3.0944    0.5517 C   0  0  0  0  0  0  0  0  0  0  0  0
    3.1938    2.7658    0.3174 O   0  5  0  0  0  0  0  0  0  0  0  0
    1.5997    4.2699    0.7148 O   0  0  0  0  0  0  0  0  0  0  0  0
    1.3419   -0.7082    0.3023 H   0  0  0  0  0  0  0  0  0  0  0  0
   -1.1589    0.5170   -0.3167 H   0  0  0  0  0  0  0  0  0  0  0  0
    0.3885    2.1904   -1.4508 H   0  0  0  0  0  0  0  0  0  0  0  0
    1.7301    1.0639   -1.2249 H   0  0  0  0  0  0  0  0  0  0  0  0
    0.0373    2.3308    1.0022 H   0  0  0  0  0  0  0  0  0  0  0  0
    1.3569    1.1869    1.2807 H   0  0  0  0  0  0  0  0  0  0  0  0
    0.4139   -0.8096   -3.0226 N   0  0  0  0  0  0  0  0  0  0  0  0
    0.0981   -1.5984   -4.2160 C   0  0  2  0  0  0  0  0  0  0  0  0
   -0.5860   -2.9312   -3.8329 C   0  0  0  0  0  0  0  0  0  0  0  0
    0.0618   -3.9675   -3.6957 O   0  0  0  0  0  0  0  0  0  0  0  0
    1.3996   -1.8036   -4.9985 C   0  0  0  0  0  0  0  0  0  0  0  0
    1.2693   -1.0300   -2.5222 H   0  0  0  0  0  0  0  0  0  0  0  0
   -0.5929   -1.0407   -4.8569 H   0  0  0  0  0  0  0  0  0  0  0  0
    2.1380   -2.3362   -4.3905 H   0  0  0  0  0  0  0  0  0  0  0  0
    1.2088   -2.3879   -5.9041 H   0  0  0  0  0  0  0  0  0  0  0  0
    1.8213   -0.8370   -5.2913 H   0  0  0  0  0  0  0  0  0  0  0  0
   -1.9378   -2.9322   -3.5572 N   0  0  0  0  0  0  0  0  0  0  0  0
   -2.6257   -4.0862   -2.9936 C   0  0  0  0  0  0  0  0  0  0  0  0
   -2.3216   -2.0056   -3.3514 H   0  0  0  0  0  0  0  0  0  0  0  0
   -2.5737   -4.9358   -3.6818 H   0  0  0  0  0  0  0  0  0  0  0  0
   -2.1769   -4.3779   -2.0388 H   0  0  0  0  0  0  0  0  0  0  0  0
   -3.6788   -3.8455   -2.8205 H   0  0  0  0  0  0  0  0  0  0  0  0
  1  2  2  0  0  0  0
  1  3  1  0  0  0  0
  1  7  1  0  0  0  0
  3  4  1  0  0  0  0
  3  5  1  0  0  0  0
  3  6  1  0  0  0  0
  7  8  1  0  0  0  0
  7 12  1  0  0  0  0
  8  9  1  0  0  0  0
  8 11  1  0  0  0  0
  8 13  1  0  0  0  0
  9 10  2  0  0  0  0
  9 17  1  0  0  0  0
 11 14  1  0  0  0  0
 11 15  1  0  0  0  0
 11 16  1  0  0  0  0
 17 18  1  0  0  0  0
 17 26  1  0  0  0  0
 18 19  1  0  0  0  0
 18 21  1  0  0  0  0
 18 27  1  0  0  0  0
 19 20  2  0  0  0  0
 19 32  1  0  0  0  0
 21 22  1  0  0  0  0
 21 28  1  0  0  0  0
 21 29  1  0  0  0  0
 22 23  1  0  0  0  0
 22 30  1  0  0  0  0
 22 31  1  0  0  0  0
 23 24  1  0  0  0  0
 23 25  2  0  0  0  0
 32 33  1  0  0  0  0
 32 37  1  0  0  0  0
 33 34  1  0  0  0  0
 33 36  1  0  0  0  0
 33 38  1  0  0  0  0
 34 35  2  0  0  0  0
 34 42  1  0  0  0  0
 36 39  1  0  0  0  0
 36 40  1  0  0  0  0
 36 41  1  0  0  0  0
 42 43  1  0  0  0  0
 42 44  1  0  0  0  0
 43 45  1  0  0  0  0
 43 46  1  0  0  0  0
 43 47  1  0  0  0  0
M  CHG  1  24  -1
M  END
$$$$

  -OEChem-05262216243D

 47 46  0     1  0  0  0  0  0999 V2000
    0.9863   -5.9071   -0.4276 C   0  0  0  0  0  0  0  0  0  0  0  0
    1.5444   -6.2327    0.6104 O   0  0  0  0  0  0  0  0  0  0  0  0
    0.5050   -6.9684   -1.3995 C   0  0  0  0  0  0  0  0  0  0  0  0
    1.0059   -6.8453   -2.3630 H   0  0  0  0  0  0  0  0  0  0  0  0
    0.7229   -7.9668   -1.0108 H   0  0  0  0  0  0  0  0  0  0  0  0
   -0.5736   -6.8729   -1.5491 H   0  0  0  0  0  0  0  0  0  0  0  0
    0.7845   -4.5778   -0.7242 N   0  0  0  0  0  0  0  0  0  0  0  0
    1.0023   -3.4731    0.2243 C   0  0  2  0  0  0  0  0  0  0  0  0
    0.0084   -2.3207   -0.0454 C   0  0  0  0  0  0  0  0  0  0  0  0
   -1.1125   -2.5841   -0.4581 O   0  0  0  0  0  0  0  0  0  0  0  0
    2.4683   -3.0298    0.1131 C   0  0  0  0  0  0  0  0  0  0  0  0
    0.1841   -4.3971   -1.5362 H   0  0  0  0  0  0  0  0  0  0  0  0
    0.8150   -3.8189    1.2467 H   0  0  0  0  0  0  0  0  0  0  0  0
    2.6812   -2.6450   -0.8891 H   0  0  0  0  0  0  0  0  0  0  0  0
    2.6945   -2.2505    0.8474 H   0  0  0  0  0  0  0  0  0  0  0  0
    3.1332   -3.8777    0.3058 H   0  0  0  0  0  0  0  0  0  0  0  0
    0.3938   -0.9904   -0.0085 N   0  0  0  0  0  0  0  0  0  0  0  0
   -0.2406    0.0703   -0.8200 C   0  0  2  0  0  0  0  0  0  0  0  0
   -0.4643   -0.3353   -2.2983 C   0  0  0  0  0  0  0  0  0  0  0  0
   -1.4772   -0.0134   -2.9103 O   0  0  0  0  0  0  0  0  0  0  0  0
    0.7149    1.2714   -0.7889 C   0  0  0  0  0  0  0  0  0  0  0  0
    0.8207    1.8905    0.6145 C   0  0  0  0  0  0  0  0  0  0  0  0
    1.8005    3.0606    0.5981 C   0  0  0  0  0  0  0  0  0  0  0  0
    3.0140    2.7710    0.4469 O   0  5  0  0  0  0  0  0  0  0  0  0
    1.3460    4.2238    0.7112 O   0  0  0  0  0  0  0  0  0  0  0  0
    1.3155   -0.7864    0.3720 H   0  0  0  0  0  0  0  0  0  0  0  0
   -1.2084    0.3461   -0.3879 H   0  0  0  0  0  0  0  0  0  0  0  0
    0.3488    2.0418   -1.4774 H   0  0  0  0  0  0  0  0  0  0  0  0
    1.7094    0.9689   -1.1357 H   0  0  0  0  0  0  0  0  0  0  0  0
   -0.1636    2.2387    0.9421 H   0  0  0  0  0  0  0  0  0  0  0  0
    1.1730    1.1511    1.3389 H   0  0  0  0  0  0  0  0  0  0  0  0
    0.4121   -1.2298   -2.8899 N   0  0  0  0  0  0  0  0  0  0  0  0
    0.0699   -2.0407   -4.0601 C   0  0  2  0  0  0  0  0  0  0  0  0
   -0.8823   -3.1945   -3.6700 C   0  0  0  0  0  0  0  0  0  0  0  0
   -0.4560   -4.3251   -3.4386 O   0  0  0  0  0  0  0  0  0  0  0  0
    1.3820   -2.5352   -4.6782 C   0  0  0  0  0  0  0  0  0  0  0  0
    1.1452   -1.5744   -2.2795 H   0  0  0  0  0  0  0  0  0  0  0  0
   -0.4406   -1.4219   -4.8056 H   0  0  0  0  0  0  0  0  0  0  0  0
    1.9423   -3.1458   -3.9626 H   0  0  0  0  0  0  0  0  0  0  0  0
    1.1770   -3.1405   -5.5666 H   0  0  0  0  0  0  0  0  0  0  0  0
    2.0045   -1.6850   -4.9740 H   0  0  0  0  0  0  0  0  0  0  0  0
   -2.2238   -2.9149   -3.5052 N   0  0  0  0  0  0  0  0  0  0  0  0
   -3.1561   -3.8630   -2.9125 C   0  0  0  0  0  0  0  0  0  0  0  0
   -2.4331   -1.9180   -3.4060 H   0  0  0  0  0  0  0  0  0  0  0  0
   -3.1740   -4.7943   -3.4876 H   0  0  0  0  0  0  0  0  0  0  0  0
   -2.8702   -4.0898   -1.8805 H   0  0  0  0  0  0  0  0  0  0  0  0
   -4.1657   -3.4416   -2.9078 H   0  0  0  0  0  0  0  0  0  0  0  0
  1  2  2  0  0  0  0
  1  3  1  0  0  0  0
  1  7  1  0  0  0  0
  3  4  1  0  0  0  0
  3  5  1  0  0  0  0
  3  6  1  0  0  0  0
  7  8  1  0  0  0  0
  7 12  1  0  0  0  0
  8  9  1  0  0  0  0
  8 11  1  0  0  0  0
  8 13  1  0  0  0  0
  9 10  2  0  0  0  0
  9 17  1  0  0  0  0
 11 14  1  0  0  0  0
 11 15  1  0  0  0  0
 11 16  1  0  0  0  0
 17 18  1  0  0  0  0
 17 26  1  0  0  0  0
 18 19  1  0  0  0  0
 18 21  1  0  0  0  0
 18 27  1  0  0  0  0
 19 20  2  0  0  0  0
 19 32  1  0  0  0  0
 21 22  1  0  0  0  0
 21 28  1  0  0  0  0
 21 29  1  0  0  0  0
 22 23  1  0  0  0  0
 22 30  1  0  0  0  0
 22 31  1  0  0  0  0
 23 24  1  0  0  0  0
 23 25  2  0  0  0  0
 32 33  1  0  0  0  0
 32 37  1  0  0  0  0
 33 34  1  0  0  0  0
 33 36  1  0  0  0  0
 33 38  1  0  0  0  0
 34 35  2  0  0  0  0
 34 42  1  0  0  0  0
 36 39  1  0  0  0  0
 36 40  1  0  0  0  0
 36 41  1  0  0  0  0
 42 43  1  0  0  0  0
 42 44  1  0  0  0  0
 43 45  1  0  0  0  0
 43 46  1  0  0  0  0
 43 47  1  0  0  0  0
M  CHG  1  24  -1
M  END
$$$$

  -OEChem-05262216243D

 47 46  0     1  0  0  0  0  0999 V2000
    0.2381   -5.8110    0.4520 C   0  0  0  0  0  0  0  0  0  0  0  0
    0.4564   -6.0599    1.6288 O   0  0  0  0  0  0  0  0  0  0  0  0
   -0.2623   -6.9024   -0.4756 C   0  0  0  0  0  0  0  0  0  0  0  0
    0.4401   -7.0381   -1.3017 H   0  0  0  0  0  0  0  0  0  0  0  0
   -0.3598   -7.8469    0.0666 H   0  0  0  0  0  0  0  0  0  0  0  0
   -1.2377   -6.6231   -0.8815 H   0  0  0  0  0  0  0  0  0  0  0  0
    0.4353   -4.5444   -0.0489 N   0  0  0  0  0  0  0  0  0  0  0  0
    0.6739   -3.3519    0.7774 C   0  0  2  0  0  0  0  0  0  0  0  0
   -0.1034   -2.1382    0.2186 C   0  0  0  0  0  0  0  0  0  0  0  0
   -1.2348   -2.3007   -0.2200 O   0  0  0  0  0  0  0  0  0  0  0  0
    2.1897   -3.1204    0.8411 C   0  0  0  0  0  0  0  0  0  0  0  0
    0.1056   -4.3944   -1.0085 H   0  0  0  0  0  0  0  0  0  0  0  0
    0.3022   -3.5183    1.7943 H   0  0  0  0  0  0  0  0  0  0  0  0
    2.5910   -2.9132   -0.1562 H   0  0  0  0  0  0  0  0  0  0  0  0
    2.4261   -2.2784    1.4990 H   0  0  0  0  0  0  0  0  0  0  0  0
    2.6888   -4.0107    1.2372 H   0  0  0  0  0  0  0  0  0  0  0  0
    0.4862   -0.8923    0.0871 N   0  0  0  0  0  0  0  0  0  0  0  0
   -0.0057    0.2234   -0.7499 C   0  0  2  0  0  0  0  0  0  0  0  0
   -0.4527   -0.1494   -2.1881 C   0  0  0  0  0  0  0  0  0  0  0  0
   -1.1635    0.6083   -2.8381 O   0  0  0  0  0  0  0  0  0  0  0  0
    1.1631    1.2179   -0.8404 C   0  0  0  0  0  0  0  0  0  0  0  0
    1.4712    1.8646    0.5221 C   0  0  0  0  0  0  0  0  0  0  0  0
    2.6519    2.8240    0.4015 C   0  0  0  0  0  0  0  0  0  0  0  0
    3.7860    2.3009    0.2637 O   0  5  0  0  0  0  0  0  0  0  0  0
    2.4280    4.0575    0.4428 O   0  0  0  0  0  0  0  0  0  0  0  0
    1.4216   -0.7874    0.4748 H   0  0  0  0  0  0  0  0  0  0  0  0
   -0.8597    0.6979   -0.2562 H   0  0  0  0  0  0  0  0  0  0  0  0
    0.9084    2.0153   -1.5484 H   0  0  0  0  0  0  0  0  0  0  0  0
    2.0571    0.7135   -1.2247 H   0  0  0  0  0  0  0  0  0  0  0  0
    0.5921    2.4088    0.8802 H   0  0  0  0  0  0  0  0  0  0  0  0
    1.7190    1.1032    1.2665 H   0  0  0  0  0  0  0  0  0  0  0  0
   -0.1039   -1.3671   -2.7429 N   0  0  0  0  0  0  0  0  0  0  0  0
   -0.8354   -2.0026   -3.8402 C   0  0  2  0  0  0  0  0  0  0  0  0
   -1.0657   -3.5024   -3.5525 C   0  0  0  0  0  0  0  0  0  0  0  0
   -0.2821   -4.1390   -2.8490 O   0  0  0  0  0  0  0  0  0  0  0  0
   -0.0348   -1.8100   -5.1292 C   0  0  0  0  0  0  0  0  0  0  0  0
    0.3340   -2.0067   -2.0856 H   0  0  0  0  0  0  0  0  0  0  0  0
   -1.8189   -1.5349   -3.9549 H   0  0  0  0  0  0  0  0  0  0  0  0
    0.9522   -2.2751   -5.0408 H   0  0  0  0  0  0  0  0  0  0  0  0
   -0.5600   -2.2598   -5.9770 H   0  0  0  0  0  0  0  0  0  0  0  0
    0.0999   -0.7424   -5.3312 H   0  0  0  0  0  0  0  0  0  0  0  0
   -2.1559   -4.1532   -4.1003 N   0  0  0  0  0  0  0  0  0  0  0  0
   -2.4968   -5.5360   -3.7941 C   0  0  0  0  0  0  0  0  0  0  0  0
   -2.8394   -3.5765   -4.5826 H   0  0  0  0  0  0  0  0  0  0  0  0
   -1.6569   -6.1995   -4.0255 H   0  0  0  0  0  0  0  0  0  0  0  0
   -2.7490   -5.6402   -2.7337 H   0  0  0  0  0  0  0  0  0  0  0  0
   -3.3582   -5.8526   -4.3898 H   0  0  0  0  0  0  0  0  0  0  0  0
  1  2  2  0  0  0  0
  1  3  1  0  0  0  0
  1  7  1  0  0  0  0
  3  4  1  0  0  0  0
  3  5  1  0  0  0  0
  3  6  1  0  0  0  0
  7  8  1  0  0  0  0
  7 12  1  0  0  0  0
  8  9  1  0  0  0  0
  8 11  1  0  0  0  0
  8 13  1  0  0  0  0
  9 10  2  0  0  0  0
  9 17  1  0  0  0  0
 11 14  1  0  0  0  0
 11 15  1  0  0  0  0
 11 16  1  0  0  0  0
 17 18  1  0  0  0  0
 17 26  1  0  0  0  0
 18 19  1  0  0  0  0
 18 21  1  0  0  0  0
 18 27  1  0  0  0  0
 19 20  2  0  0  0  0
 19 32  1  0  0  0  0
 21 22  1  0  0  0  0
 21 28  1  0  0  0  0
 21 29  1  0  0  0  0
 22 23  1  0  0  0  0
 22 30  1  0  0  0  0
 22 31  1  0  0  0  0
 23 24  1  0  0  0  0
 23 25  2  0  0  0  0
 32 33  1  0  0  0  0
 32 37  1  0  0  0  0
 33 34  1  0  0  0  0
 33 36  1  0  0  0  0
 33 38  1  0  0  0  0
 34 35  2  0  0  0  0
 34 42  1  0  0  0  0
 36 39  1  0  0  0  0
 36 40  1  0  0  0  0
 36 41  1  0  0  0  0
 42 43  1  0  0  0  0
 42 44  1  0  0  0  0
 43 45  1  0  0  0  0
 43 46  1  0  0  0  0
 43 47  1  0  0  0  0
M  CHG  1  24  -1
M  END
$$$$

  -OEChem-05262216243D

 47 46  0     1  0  0  0  0  0999 V2000
    0.2333   -5.7977    0.7099 C   0  0  0  0  0  0  0  0  0  0  0  0
    0.7347   -6.0497    1.7959 O   0  0  0  0  0  0  0  0  0  0  0  0
   -0.4303   -6.8987   -0.0960 C   0  0  0  0  0  0  0  0  0  0  0  0
    0.0576   -6.9927   -1.0694 H   0  0  0  0  0  0  0  0  0  0  0  0
   -0.3562   -7.8532    0.4322 H   0  0  0  0  0  0  0  0  0  0  0  0
   -1.4851   -6.6589   -0.2514 H   0  0  0  0  0  0  0  0  0  0  0  0
    0.2597   -4.5181    0.2033 N   0  0  0  0  0  0  0  0  0  0  0  0
    0.6963   -3.3313    0.9576 C   0  0  2  0  0  0  0  0  0  0  0  0
   -0.1088   -2.0841    0.5262 C   0  0  0  0  0  0  0  0  0  0  0  0
   -1.3014   -2.2032    0.2766 O   0  0  0  0  0  0  0  0  0  0  0  0
    2.2085   -3.1667    0.7527 C   0  0  0  0  0  0  0  0  0  0  0  0
   -0.2983   -4.3699   -0.6444 H   0  0  0  0  0  0  0  0  0  0  0  0
    0.5013   -3.4771    2.0255 H   0  0  0  0  0  0  0  0  0  0  0  0
    2.4375   -2.9881   -0.3028 H   0  0  0  0  0  0  0  0  0  0  0  0
    2.5910   -2.3294    1.3445 H   0  0  0  0  0  0  0  0  0  0  0  0
    2.7325   -4.0733    1.0714 H   0  0  0  0  0  0  0  0  0  0  0  0
    0.5033   -0.8793    0.2275 N   0  0  0  0  0  0  0  0  0  0  0  0
   -0.0195    0.1810   -0.6669 C   0  0  2  0  0  0  0  0  0  0  0  0
   -0.6068   -0.2817   -2.0336 C   0  0  0  0  0  0  0  0  0  0  0  0
   -1.0502    0.5276   -2.8399 O   0  0  0  0  0  0  0  0  0  0  0  0
    1.1796    1.1138   -0.9188 C   0  0  0  0  0  0  0  0  0  0  0  0
    1.6096    1.8550    0.3609 C   0  0  0  0  0  0  0  0  0  0  0  0
    2.8152    2.7488    0.0823 C   0  0  0  0  0  0  0  0  0  0  0  0
    3.9069    2.1659   -0.1353 O   0  5  0  0  0  0  0  0  0  0  0  0
    2.6538    3.9928    0.0945 O   0  0  0  0  0  0  0  0  0  0  0  0
    1.4962   -0.8199    0.4439 H   0  0  0  0  0  0  0  0  0  0  0  0
   -0.8117    0.7308   -0.1486 H   0  0  0  0  0  0  0  0  0  0  0  0
    0.9090    1.8650   -1.6693 H   0  0  0  0  0  0  0  0  0  0  0  0
    2.0224    0.5406   -1.3214 H   0  0  0  0  0  0  0  0  0  0  0  0
    0.7797    2.4636    0.7327 H   0  0  0  0  0  0  0  0  0  0  0  0
    1.8821    1.1456    1.1471 H   0  0  0  0  0  0  0  0  0  0  0  0
   -0.6304   -1.6178   -2.3824 N   0  0  0  0  0  0  0  0  0  0  0  0
   -1.3044   -2.1879   -3.5478 C   0  0  2  0  0  0  0  0  0  0  0  0
   -1.7109   -3.6532   -3.2740 C   0  0  0  0  0  0  0  0  0  0  0  0
   -1.1535   -4.3123   -2.3962 O   0  0  0  0  0  0  0  0  0  0  0  0
   -0.3605   -2.1121   -4.7515 C   0  0  0  0  0  0  0  0  0  0  0  0
   -0.5469   -2.2421   -1.5813 H   0  0  0  0  0  0  0  0  0  0  0  0
   -2.2145   -1.6173   -3.7595 H   0  0  0  0  0  0  0  0  0  0  0  0
    0.5594   -2.6705   -4.5505 H   0  0  0  0  0  0  0  0  0  0  0  0
   -0.8382   -2.5326   -5.6412 H   0  0  0  0  0  0  0  0  0  0  0  0
   -0.0957   -1.0710   -4.9617 H   0  0  0  0  0  0  0  0  0  0  0  0
   -2.7113   -4.2451   -4.0233 N   0  0  0  0  0  0  0  0  0  0  0  0
   -3.1956   -5.5986   -3.7869 C   0  0  0  0  0  0  0  0  0  0  0  0
   -3.1864   -3.6638   -4.7078 H   0  0  0  0  0  0  0  0  0  0  0  0
   -2.3865   -6.3236   -3.9233 H   0  0  0  0  0  0  0  0  0  0  0  0
   -3.5872   -5.6921   -2.7685 H   0  0  0  0  0  0  0  0  0  0  0  0
   -3.9984   -5.8408   -4.4899 H   0  0  0  0  0  0  0  0  0  0  0  0
  1  2  2  0  0  0  0
  1  3  1  0  0  0  0
  1  7  1  0  0  0  0
  3  4  1  0  0  0  0
  3  5  1  0  0  0  0
  3  6  1  0  0  0  0
  7  8  1  0  0  0  0
  7 12  1  0  0  0  0
  8  9  1  0  0  0  0
  8 11  1  0  0  0  0
  8 13  1  0  0  0  0
  9 10  2  0  0  0  0
  9 17  1  0  0  0  0
 11 14  1  0  0  0  0
 11 15  1  0  0  0  0
 11 16  1  0  0  0  0
 17 18  1  0  0  0  0
 17 26  1  0  0  0  0
 18 19  1  0  0  0  0
 18 21  1  0  0  0  0
 18 27  1  0  0  0  0
 19 20  2  0  0  0  0
 19 32  1  0  0  0  0
 21 22  1  0  0  0  0
 21 28  1  0  0  0  0
 21 29  1  0  0  0  0
 22 23  1  0  0  0  0
 22 30  1  0  0  0  0
 22 31  1  0  0  0  0
 23 24  1  0  0  0  0
 23 25  2  0  0  0  0
 32 33  1  0  0  0  0
 32 37  1  0  0  0  0
 33 34  1  0  0  0  0
 33 36  1  0  0  0  0
 33 38  1  0  0  0  0
 34 35  2  0  0  0  0
 34 42  1  0  0  0  0
 36 39  1  0  0  0  0
 36 40  1  0  0  0  0
 36 41  1  0  0  0  0
 42 43  1  0  0  0  0
 42 44  1  0  0  0  0
 43 45  1  0  0  0  0
 43 46  1  0  0  0  0
 43 47  1  0  0  0  0
M  CHG  1  24  -1
M  END
$$$$

  -OEChem-05262216243D

 47 46  0     1  0  0  0  0  0999 V2000
    0.1067   -5.7962    0.8170 C   0  0  0  0  0  0  0  0  0  0  0  0
    0.8080   -6.0726    1.7793 O   0  0  0  0  0  0  0  0  0  0  0  0
   -0.7919   -6.8530    0.2023 C   0  0  0  0  0  0  0  0  0  0  0  0
   -0.5193   -7.0091   -0.8445 H   0  0  0  0  0  0  0  0  0  0  0  0
   -0.6906   -7.7987    0.7415 H   0  0  0  0  0  0  0  0  0  0  0  0
   -1.8336   -6.5261    0.2513 H   0  0  0  0  0  0  0  0  0  0  0  0
    0.1201   -4.5295    0.2783 N   0  0  0  0  0  0  0  0  0  0  0  0
    0.7862   -3.3684    0.8925 C   0  0  2  0  0  0  0  0  0  0  0  0
   -0.0328   -2.0778    0.6616 C   0  0  0  0  0  0  0  0  0  0  0  0
   -1.2568   -2.1378    0.6547 O   0  0  0  0  0  0  0  0  0  0  0  0
    2.2054   -3.2805    0.3148 C   0  0  0  0  0  0  0  0  0  0  0  0
   -0.5818   -4.3527   -0.4482 H   0  0  0  0  0  0  0  0  0  0  0  0
    0.8560   -3.5077    1.9767 H   0  0  0  0  0  0  0  0  0  0  0  0
    2.1715   -3.0963   -0.7641 H   0  0  0  0  0  0  0  0  0  0  0  0
    2.7692   -2.4736    0.7930 H   0  0  0  0  0  0  0  0  0  0  0  0
    2.7418   -4.2186    0.4895 H   0  0  0  0  0  0  0  0  0  0  0  0
    0.5621   -0.8854    0.2896 N   0  0  0  0  0  0  0  0  0  0  0  0
   -0.0355    0.1694   -0.5646 C   0  0  2  0  0  0  0  0  0  0  0  0
   -0.7597   -0.3051   -1.8647 C   0  0  0  0  0  0  0  0  0  0  0  0
   -1.0174    0.4744   -2.7741 O   0  0  0  0  0  0  0  0  0  0  0  0
    1.1424    1.1000   -0.9173 C   0  0  0  0  0  0  0  0  0  0  0  0
    1.6749    1.8455    0.3208 C   0  0  0  0  0  0  0  0  0  0  0  0
    2.8560    2.7375   -0.0538 C   0  0  0  0  0  0  0  0  0  0  0  0
    3.9231    2.1544   -0.3711 O   0  5  0  0  0  0  0  0  0  0  0  0
    2.7010    3.9819   -0.0124 O   0  0  0  0  0  0  0  0  0  0  0  0
    1.5788   -0.8743    0.3361 H   0  0  0  0  0  0  0  0  0  0  0  0
   -0.7747    0.7252    0.0209 H   0  0  0  0  0  0  0  0  0  0  0  0
    0.8163    1.8528   -1.6436 H   0  0  0  0  0  0  0  0  0  0  0  0
    1.9482    0.5243   -1.3863 H   0  0  0  0  0  0  0  0  0  0  0  0
    0.8776    2.4562    0.7549 H   0  0  0  0  0  0  0  0  0  0  0  0
    2.0083    1.1388    1.0854 H   0  0  0  0  0  0  0  0  0  0  0  0
   -1.1074   -1.6274   -2.0567 N   0  0  0  0  0  0  0  0  0  0  0  0
   -1.7285   -2.2200   -3.2417 C   0  0  2  0  0  0  0  0  0  0  0  0
   -2.2491   -3.6402   -2.9268 C   0  0  0  0  0  0  0  0  0  0  0  0
   -1.7602   -4.3044   -2.0136 O   0  0  0  0  0  0  0  0  0  0  0  0
   -0.7007   -2.2931   -4.3780 C   0  0  0  0  0  0  0  0  0  0  0  0
   -1.1524   -2.1776   -1.1967 H   0  0  0  0  0  0  0  0  0  0  0  0
   -2.5755   -1.5999   -3.5520 H   0  0  0  0  0  0  0  0  0  0  0  0
    0.1679   -2.8838   -4.0695 H   0  0  0  0  0  0  0  0  0  0  0  0
   -1.1423   -2.7574   -5.2646 H   0  0  0  0  0  0  0  0  0  0  0  0
   -0.3580   -1.2907   -4.6522 H   0  0  0  0  0  0  0  0  0  0  0  0
   -3.2636   -4.1910   -3.6884 N   0  0  0  0  0  0  0  0  0  0  0  0
   -3.8300   -5.5097   -3.4371 C   0  0  0  0  0  0  0  0  0  0  0  0
   -3.6716   -3.6083   -4.4138 H   0  0  0  0  0  0  0  0  0  0  0  0
   -3.0516   -6.2779   -3.4924 H   0  0  0  0  0  0  0  0  0  0  0  0
   -4.2918   -5.5448   -2.4448 H   0  0  0  0  0  0  0  0  0  0  0  0
   -4.5955   -5.7405   -4.1840 H   0  0  0  0  0  0  0  0  0  0  0  0
  1  2  2  0  0  0  0
  1  3  1  0  0  0  0
  1  7  1  0  0  0  0
  3  4  1  0  0  0  0
  3  5  1  0  0  0  0
  3  6  1  0  0  0  0
  7  8  1  0  0  0  0
  7 12  1  0  0  0  0
  8  9  1  0  0  0  0
  8 11  1  0  0  0  0
  8 13  1  0  0  0  0
  9 10  2  0  0  0  0
  9 17  1  0  0  0  0
 11 14  1  0  0  0  0
 11 15  1  0  0  0  0
 11 16  1  0  0  0  0
 17 18  1  0  0  0  0
 17 26  1  0  0  0  0
 18 19  1  0  0  0  0
 18 21  1  0  0  0  0
 18 27  1  0  0  0  0
 19 20  2  0  0  0  0
 19 32  1  0  0  0  0
 21 22  1  0  0  0  0
 21 28  1  0  0  0  0
 21 29  1  0  0  0  0
 22 23  1  0  0  0  0
 22 30  1  0  0  0  0
 22 31  1  0  0  0  0
 23 24  1  0  0  0  0
 23 25  2  0  0  0  0
 32 33  1  0  0  0  0
 32 37  1  0  0  0  0
 33 34  1  0  0  0  0
 33 36  1  0  0  0  0
 33 38  1  0  0  0  0
 34 35  2  0  0  0  0
 34 42  1  0  0  0  0
 36 39  1  0  0  0  0
 36 40  1  0  0  0  0
 36 41  1  0  0  0  0
 42 43  1  0  0  0  0
 42 44  1  0  0  0  0
 43 45  1  0  0  0  0
 43 46  1  0  0  0  0
 43 47  1  0  0  0  0
M  CHG  1  24  -1
M  END
$$$$

  -OEChem-05262216243D

 47 46  0     1  0  0  0  0  0999 V2000
   -0.0248   -5.7933    0.7340 C   0  0  0  0  0  0  0  0  0  0  0  0
    0.8582   -6.1380    1.5058 O   0  0  0  0  0  0  0  0  0  0  0  0
   -1.0869   -6.7861    0.2994 C   0  0  0  0  0  0  0  0  0  0  0  0
   -1.0776   -6.8872   -0.7888 H   0  0  0  0  0  0  0  0  0  0  0  0
   -0.8999   -7.7649    0.7494 H   0  0  0  0  0  0  0  0  0  0  0  0
   -2.0729   -6.4336    0.6128 H   0  0  0  0  0  0  0  0  0  0  0  0
   -0.0705   -4.5056    0.2504 N   0  0  0  0  0  0  0  0  0  0  0  0
    0.7659   -3.3978    0.7408 C   0  0  2  0  0  0  0  0  0  0  0  0
   -0.0141   -2.0636    0.7029 C   0  0  0  0  0  0  0  0  0  0  0  0
   -1.2262   -2.0671    0.8893 O   0  0  0  0  0  0  0  0  0  0  0  0
    2.0416   -3.3569   -0.1116 C   0  0  0  0  0  0  0  0  0  0  0  0
   -0.9039   -4.2695   -0.2992 H   0  0  0  0  0  0  0  0  0  0  0  0
    1.0445   -3.5731    1.7854 H   0  0  0  0  0  0  0  0  0  0  0  0
    1.7986   -3.1350   -1.1559 H   0  0  0  0  0  0  0  0  0  0  0  0
    2.7319   -2.5935    0.2603 H   0  0  0  0  0  0  0  0  0  0  0  0
    2.5534   -4.3236   -0.0720 H   0  0  0  0  0  0  0  0  0  0  0  0
    0.5796   -0.8760    0.3161 N   0  0  0  0  0  0  0  0  0  0  0  0
   -0.0594    0.2011   -0.4774 C   0  0  2  0  0  0  0  0  0  0  0  0
   -0.8742   -0.2561   -1.7322 C   0  0  0  0  0  0  0  0  0  0  0  0
   -0.9335    0.4277   -2.7469 O   0  0  0  0  0  0  0  0  0  0  0  0
    1.0990    1.1431   -0.8695 C   0  0  0  0  0  0  0  0  0  0  0  0
    1.6965    1.8565    0.3579 C   0  0  0  0  0  0  0  0  0  0  0  0
    2.8561    2.7601   -0.0539 C   0  0  0  0  0  0  0  0  0  0  0  0
    3.9156    2.1876   -0.4136 O   0  5  0  0  0  0  0  0  0  0  0  0
    2.6916    4.0032   -0.0016 O   0  0  0  0  0  0  0  0  0  0  0  0
    1.5939   -0.9096    0.2415 H   0  0  0  0  0  0  0  0  0  0  0  0
   -0.7587    0.7449    0.1654 H   0  0  0  0  0  0  0  0  0  0  0  0
    0.7348    1.9159   -1.5555 H   0  0  0  0  0  0  0  0  0  0  0  0
    1.8784    0.5816   -1.3966 H   0  0  0  0  0  0  0  0  0  0  0  0
    0.9238    2.4553    0.8493 H   0  0  0  0  0  0  0  0  0  0  0  0
    2.0680    1.1296    1.0851 H   0  0  0  0  0  0  0  0  0  0  0  0
   -1.5087   -1.4822   -1.7824 N   0  0  0  0  0  0  0  0  0  0  0  0
   -2.0272   -2.1691   -2.9693 C   0  0  2  0  0  0  0  0  0  0  0  0
   -2.7321   -3.4850   -2.5752 C   0  0  0  0  0  0  0  0  0  0  0  0
   -2.3049   -4.1711   -1.6488 O   0  0  0  0  0  0  0  0  0  0  0  0
   -0.8752   -2.5038   -3.9279 C   0  0  0  0  0  0  0  0  0  0  0  0
   -1.5784   -1.9733   -0.8870 H   0  0  0  0  0  0  0  0  0  0  0  0
   -2.7494   -1.5191   -3.4730 H   0  0  0  0  0  0  0  0  0  0  0  0
   -0.1168   -3.1050   -3.4166 H   0  0  0  0  0  0  0  0  0  0  0  0
   -1.2461   -3.0687   -4.7881 H   0  0  0  0  0  0  0  0  0  0  0  0
   -0.3999   -1.5920   -4.3006 H   0  0  0  0  0  0  0  0  0  0  0  0
   -3.8186   -3.9376   -3.3013 N   0  0  0  0  0  0  0  0  0  0  0  0
   -4.5311   -5.1715   -2.9960 C   0  0  0  0  0  0  0  0  0  0  0  0
   -4.1619   -3.3417   -4.0491 H   0  0  0  0  0  0  0  0  0  0  0  0
   -3.8597   -6.0324   -3.0807 H   0  0  0  0  0  0  0  0  0  0  0  0
   -4.9373   -5.1383   -1.9796 H   0  0  0  0  0  0  0  0  0  0  0  0
   -5.3610   -5.3104   -3.6955 H   0  0  0  0  0  0  0  0  0  0  0  0
  1  2  2  0  0  0  0
  1  3  1  0  0  0  0
  1  7  1  0  0  0  0
  3  4  1  0  0  0  0
  3  5  1  0  0  0  0
  3  6  1  0  0  0  0
  7  8  1  0  0  0  0
  7 12  1  0  0  0  0
  8  9  1  0  0  0  0
  8 11  1  0  0  0  0
  8 13  1  0  0  0  0
  9 10  2  0  0  0  0
  9 17  1  0  0  0  0
 11 14  1  0  0  0  0
 11 15  1  0  0  0  0
 11 16  1  0  0  0  0
 17 18  1  0  0  0  0
 17 26  1  0  0  0  0
 18 19  1  0  0  0  0
 18 21  1  0  0  0  0
 18 27  1  0  0  0  0
 19 20  2  0  0  0  0
 19 32  1  0  0  0  0
 21 22  1  0  0  0  0
 21 28  1  0  0  0  0
 21 29  1  0  0  0  0
 22 23  1  0  0  0  0
 22 30  1  0  0  0  0
 22 31  1  0  0  0  0
 23 24  1  0  0  0  0
 23 25  2  0  0  0  0
 32 33  1  0  0  0  0
 32 37  1  0  0  0  0
 33 34  1  0  0  0  0
 33 36  1  0  0  0  0
 33 38  1  0  0  0  0
 34 35  2  0  0  0  0
 34 42  1  0  0  0  0
 36 39  1  0  0  0  0
 36 40  1  0  0  0  0
 36 41  1  0  0  0  0
 42 43  1  0  0  0  0
 42 44  1  0  0  0  0
 43 45  1  0  0  0  0
 43 46  1  0  0  0  0
 43 47  1  0  0  0  0
M  CHG  1  24  -1
M  END
$$$$

  -OEChem-05262216243D

 47 46  0     1  0  0  0  0  0999 V2000
    0.8116   -5.8380    1.6938 C   0  0  0  0  0  0  0  0  0  0  0  0
    1.9855   -5.8479    2.0296 O   0  0  0  0  0  0  0  0  0  0  0  0
   -0.1158   -6.9524    2.1428 C   0  0  0  0  0  0  0  0  0  0  0  0
   -0.6200   -7.3904    1.2780 H   0  0  0  0  0  0  0  0  0  0  0  0
    0.4529   -7.7356    2.6516 H   0  0  0  0  0  0  0  0  0  0  0  0
   -0.8671   -6.5565    2.8308 H   0  0  0  0  0  0  0  0  0  0  0  0
    0.3154   -4.8155    0.9149 N   0  0  0  0  0  0  0  0  0  0  0  0
    1.0509   -3.5923    0.5663 C   0  0  2  0  0  0  0  0  0  0  0  0
    0.0781   -2.4221    0.3052 C   0  0  0  0  0  0  0  0  0  0  0  0
   -1.1312   -2.6176    0.3708 O   0  0  0  0  0  0  0  0  0  0  0  0
    1.9058   -3.8663   -0.6760 C   0  0  0  0  0  0  0  0  0  0  0  0
   -0.6961   -4.7800    0.7857 H   0  0  0  0  0  0  0  0  0  0  0  0
    1.7020   -3.3024    1.3980 H   0  0  0  0  0  0  0  0  0  0  0  0
    1.2706   -4.1383   -1.5248 H   0  0  0  0  0  0  0  0  0  0  0  0
    2.4883   -2.9799   -0.9460 H   0  0  0  0  0  0  0  0  0  0  0  0
    2.6027   -4.6883   -0.4846 H   0  0  0  0  0  0  0  0  0  0  0  0
    0.5551   -1.1466    0.0740 N   0  0  0  0  0  0  0  0  0  0  0  0
   -0.1729   -0.0048   -0.5174 C   0  0  2  0  0  0  0  0  0  0  0  0
   -1.0152   -0.3066   -1.7948 C   0  0  0  0  0  0  0  0  0  0  0  0
   -0.7684    0.2417   -2.8638 O   0  0  0  0  0  0  0  0  0  0  0  0
    0.8939    1.0818   -0.7666 C   0  0  0  0  0  0  0  0  0  0  0  0
    1.4662    1.6274    0.5549 C   0  0  0  0  0  0  0  0  0  0  0  0
    2.5370    2.6809    0.2858 C   0  0  0  0  0  0  0  0  0  0  0  0
    3.6563    2.2629   -0.1019 O   0  5  0  0  0  0  0  0  0  0  0  0
    2.2420    3.8868    0.4682 O   0  0  0  0  0  0  0  0  0  0  0  0
    1.5677   -1.0435    0.1033 H   0  0  0  0  0  0  0  0  0  0  0  0
   -0.8820    0.3743    0.2251 H   0  0  0  0  0  0  0  0  0  0  0  0
    0.4453    1.9213   -1.3100 H   0  0  0  0  0  0  0  0  0  0  0  0
    1.7006    0.6815   -1.3911 H   0  0  0  0  0  0  0  0  0  0  0  0
    0.6626    2.0683    1.1521 H   0  0  0  0  0  0  0  0  0  0  0  0
    1.9149    0.8226    1.1432 H   0  0  0  0  0  0  0  0  0  0  0  0
   -2.0518   -1.2214   -1.7928 N   0  0  0  0  0  0  0  0  0  0  0  0
   -2.7535   -1.6911   -2.9944 C   0  0  2  0  0  0  0  0  0  0  0  0
   -4.1808   -2.1981   -2.7018 C   0  0  0  0  0  0  0  0  0  0  0  0
   -4.4225   -2.8820   -1.7139 O   0  0  0  0  0  0  0  0  0  0  0  0
   -1.9207   -2.8078   -3.6324 C   0  0  0  0  0  0  0  0  0  0  0  0
   -2.1505   -1.7768   -0.9358 H   0  0  0  0  0  0  0  0  0  0  0  0
   -2.8447   -0.8638   -3.7054 H   0  0  0  0  0  0  0  0  0  0  0  0
   -1.7994   -3.6405   -2.9318 H   0  0  0  0  0  0  0  0  0  0  0  0
   -2.4102   -3.1800   -4.5372 H   0  0  0  0  0  0  0  0  0  0  0  0
   -0.9287   -2.4347   -3.9059 H   0  0  0  0  0  0  0  0  0  0  0  0
   -5.1993   -1.9385   -3.6024 N   0  0  0  0  0  0  0  0  0  0  0  0
   -6.5758   -2.3731   -3.4039 C   0  0  0  0  0  0  0  0  0  0  0  0
   -4.9819   -1.3306   -4.3867 H   0  0  0  0  0  0  0  0  0  0  0  0
   -6.6208   -3.4605   -3.2839 H   0  0  0  0  0  0  0  0  0  0  0  0
   -7.0007   -1.9022   -2.5115 H   0  0  0  0  0  0  0  0  0  0  0  0
   -7.1870   -2.0959   -4.2680 H   0  0  0  0  0  0  0  0  0  0  0  0
  1  2  2  0  0  0  0
  1  3  1  0  0  0  0
  1  7  1  0  0  0  0
  3  4  1  0  0  0  0
  3  5  1  0  0  0  0
  3  6  1  0  0  0  0
  7  8  1  0  0  0  0
  7 12  1  0  0  0  0
  8  9  1  0  0  0  0
  8 11  1  0  0  0  0
  8 13  1  0  0  0  0
  9 10  2  0  0  0  0
  9 17  1  0  0  0  0
 11 14  1  0  0  0  0
 11 15  1  0  0  0  0
 11 16  1  0  0  0  0
 17 18  1  0  0  0  0
 17 26  1  0  0  0  0
 18 19  1  0  0  0  0
 18 21  1  0  0  0  0
 18 27  1  0  0  0  0
 19 20  2  0  0  0  0
 19 32  1  0  0  0  0
 21 22  1  0  0  0  0
 21 28  1  0  0  0  0
 21 29  1  0  0  0  0
 22 23  1  0  0  0  0
 22 30  1  0  0  0  0
 22 31  1  0  0  0  0
 23 24  1  0  0  0  0
 23 25  2  0  0  0  0
 32 33  1  0  0  0  0
 32 37  1  0  0  0  0
 33 34  1  0  0  0  0
 33 36  1  0  0  0  0
 33 38  1  0  0  0  0
 34 35  2  0  0  0  0
 34 42  1  0  0  0  0
 36 39  1  0  0  0  0
 36 40  1  0  0  0  0
 36 41  1  0  0  0  0
 42 43  1  0  0  0  0
 42 44  1  0  0  0  0
 43 45  1  0  0  0  0
 43 46  1  0  0  0  0
 43 47  1  0  0  0  0
M  CHG  1  24  -1
M  END
$$$$

  -OEChem-05262216243D

 47 46  0     1  0  0  0  0  0999 V2000
    0.7464   -5.8477    1.6073 C   0  0  0  0  0  0  0  0  0  0  0  0
    1.9211   -5.8750    1.9389 O   0  0  0  0  0  0  0  0  0  0  0  0
   -0.1968   -6.9450    2.0652 C   0  0  0  0  0  0  0  0  0  0  0  0
   -0.7056   -7.3841    1.2036 H   0  0  0  0  0  0  0  0  0  0  0  0
    0.3603   -7.7305    2.5833 H   0  0  0  0  0  0  0  0  0  0  0  0
   -0.9436   -6.5320    2.7479 H   0  0  0  0  0  0  0  0  0  0  0  0
    0.2633   -4.8195    0.8276 N   0  0  0  0  0  0  0  0  0  0  0  0
    1.0145   -3.6045    0.4849 C   0  0  2  0  0  0  0  0  0  0  0  0
    0.0584   -2.4166    0.2446 C   0  0  0  0  0  0  0  0  0  0  0  0
   -1.1554   -2.5988    0.2759 O   0  0  0  0  0  0  0  0  0  0  0  0
    1.8545   -3.8762   -0.7679 C   0  0  0  0  0  0  0  0  0  0  0  0
   -0.7474   -4.7696    0.6996 H   0  0  0  0  0  0  0  0  0  0  0  0
    1.6775   -3.3332    1.3137 H   0  0  0  0  0  0  0  0  0  0  0  0
    1.2087   -4.1287   -1.6147 H   0  0  0  0  0  0  0  0  0  0  0  0
    2.4471   -2.9949   -1.0324 H   0  0  0  0  0  0  0  0  0  0  0  0
    2.5416   -4.7097   -0.5922 H   0  0  0  0  0  0  0  0  0  0  0  0
    0.5571   -1.1421    0.0574 N   0  0  0  0  0  0  0  0  0  0  0  0
   -0.1720    0.0175   -0.4901 C   0  0  2  0  0  0  0  0  0  0  0  0
   -1.0165   -0.2708   -1.7635 C   0  0  0  0  0  0  0  0  0  0  0  0
   -0.6457    0.0923   -2.8749 O   0  0  0  0  0  0  0  0  0  0  0  0
    0.8842    1.1123   -0.7369 C   0  0  0  0  0  0  0  0  0  0  0  0
    1.4828    1.6284    0.5842 C   0  0  0  0  0  0  0  0  0  0  0  0
    2.5436    2.6917    0.3146 C   0  0  0  0  0  0  0  0  0  0  0  0
    3.6906    2.2826    0.0069 O   0  5  0  0  0  0  0  0  0  0  0  0
    2.2088    3.8978    0.4049 O   0  0  0  0  0  0  0  0  0  0  0  0
    1.5705   -1.0495    0.0852 H   0  0  0  0  0  0  0  0  0  0  0  0
   -0.8721    0.3822    0.2682 H   0  0  0  0  0  0  0  0  0  0  0  0
    0.4213    1.9577   -1.2585 H   0  0  0  0  0  0  0  0  0  0  0  0
    1.6813    0.7271   -1.3831 H   0  0  0  0  0  0  0  0  0  0  0  0
    0.6917    2.0549    1.2084 H   0  0  0  0  0  0  0  0  0  0  0  0
    1.9444    0.8113    1.1452 H   0  0  0  0  0  0  0  0  0  0  0  0
   -2.2155   -0.9530   -1.6794 N   0  0  0  0  0  0  0  0  0  0  0  0
   -3.0000   -1.3924   -2.8399 C   0  0  2  0  0  0  0  0  0  0  0  0
   -4.5062   -1.5261   -2.5336 C   0  0  0  0  0  0  0  0  0  0  0  0
   -4.9017   -1.9552   -1.4556 O   0  0  0  0  0  0  0  0  0  0  0  0
   -2.4370   -2.7344   -3.3187 C   0  0  0  0  0  0  0  0  0  0  0  0
   -2.3650   -1.4516   -0.7965 H   0  0  0  0  0  0  0  0  0  0  0  0
   -2.8994   -0.6565   -3.6440 H   0  0  0  0  0  0  0  0  0  0  0  0
   -2.5077   -3.4836   -2.5234 H   0  0  0  0  0  0  0  0  0  0  0  0
   -2.9945   -3.0936   -4.1888 H   0  0  0  0  0  0  0  0  0  0  0  0
   -1.3853   -2.6261   -3.6025 H   0  0  0  0  0  0  0  0  0  0  0  0
   -5.4349   -1.2058   -3.5086 N   0  0  0  0  0  0  0  0  0  0  0  0
   -6.8745   -1.2646   -3.2923 C   0  0  0  0  0  0  0  0  0  0  0  0
   -5.0817   -0.7999   -4.3701 H   0  0  0  0  0  0  0  0  0  0  0  0
   -7.1824   -2.2837   -3.0366 H   0  0  0  0  0  0  0  0  0  0  0  0
   -7.1663   -0.5928   -2.4785 H   0  0  0  0  0  0  0  0  0  0  0  0
   -7.4053   -0.9611   -4.1994 H   0  0  0  0  0  0  0  0  0  0  0  0
  1  2  2  0  0  0  0
  1  3  1  0  0  0  0
  1  7  1  0  0  0  0
  3  4  1  0  0  0  0
  3  5  1  0  0  0  0
  3  6  1  0  0  0  0
  7  8  1  0  0  0  0
  7 12  1  0  0  0  0
  8  9  1  0  0  0  0
  8 11  1  0  0  0  0
  8 13  1  0  0  0  0
  9 10  2  0  0  0  0
  9 17  1  0  0  0  0
 11 14  1  0  0  0  0
 11 15  1  0  0  0  0
 11 16  1  0  0  0  0
 17 18  1  0  0  0  0
 17 26  1  0  0  0  0
 18 19  1  0  0  0  0
 18 21  1  0  0  0  0
 18 27  1  0  0  0  0
 19 20  2  0  0  0  0
 19 32  1  0  0  0  0
 21 22  1  0  0  0  0
 21 28  1  0  0  0  0
 21 29  1  0  0  0  0
 22 23  1  0  0  0  0
 22 30  1  0  0  0  0
 22 31  1  0  0  0  0
 23 24  1  0  0  0  0
 23 25  2  0  0  0  0
 32 33  1  0  0  0  0
 32 37  1  0  0  0  0
 33 34  1  0  0  0  0
 33 36  1  0  0  0  0
 33 38  1  0  0  0  0
 34 35  2  0  0  0  0
 34 42  1  0  0  0  0
 36 39  1  0  0  0  0
 36 40  1  0  0  0  0
 36 41  1  0  0  0  0
 42 43  1  0  0  0  0
 42 44  1  0  0  0  0
 43 45  1  0  0  0  0
 43 46  1  0  0  0  0
 43 47  1  0  0  0  0
M  CHG  1  24  -1
M  END
$$$$

  -OEChem-05262216243D

 47 46  0     1  0  0  0  0  0999 V2000
    0.5867   -5.8347    1.5395 C   0  0  0  0  0  0  0  0  0  0  0  0
    1.7562   -5.9001    1.8842 O   0  0  0  0  0  0  0  0  0  0  0  0
   -0.3910   -6.9145    1.9642 C   0  0  0  0  0  0  0  0  0  0  0  0
   -0.8410   -7.3767    1.0822 H   0  0  0  0  0  0  0  0  0  0  0  0
    0.1261   -7.6859    2.5413 H   0  0  0  0  0  0  0  0  0  0  0  0
   -1.1807   -6.4803    2.5824 H   0  0  0  0  0  0  0  0  0  0  0  0
    0.1427   -4.7846    0.7663 N   0  0  0  0  0  0  0  0  0  0  0  0
    0.9397   -3.5988    0.4262 C   0  0  2  0  0  0  0  0  0  0  0  0
    0.0317   -2.3714    0.2002 C   0  0  0  0  0  0  0  0  0  0  0  0
   -1.1895   -2.5069    0.2048 O   0  0  0  0  0  0  0  0  0  0  0  0
    1.7571   -3.8990   -0.8347 C   0  0  0  0  0  0  0  0  0  0  0  0
   -0.8641   -4.7020    0.6256 H   0  0  0  0  0  0  0  0  0  0  0  0
    1.6197   -3.3597    1.2511 H   0  0  0  0  0  0  0  0  0  0  0  0
    1.0943   -4.1315   -1.6742 H   0  0  0  0  0  0  0  0  0  0  0  0
    2.3751   -3.0379   -1.1074 H   0  0  0  0  0  0  0  0  0  0  0  0
    2.4177   -4.7547   -0.6638 H   0  0  0  0  0  0  0  0  0  0  0  0
    0.5790   -1.1118    0.0530 N   0  0  0  0  0  0  0  0  0  0  0  0
   -0.1312    0.0714   -0.4609 C   0  0  2  0  0  0  0  0  0  0  0  0
   -0.9771   -0.1983   -1.7331 C   0  0  0  0  0  0  0  0  0  0  0  0
   -0.5065   -0.0570   -2.8573 O   0  0  0  0  0  0  0  0  0  0  0  0
    0.9324    1.1563   -0.7098 C   0  0  0  0  0  0  0  0  0  0  0  0
    1.5608    1.6410    0.6089 C   0  0  0  0  0  0  0  0  0  0  0  0
    2.6295    2.6963    0.3398 C   0  0  0  0  0  0  0  0  0  0  0  0
    3.7917    2.2825    0.1046 O   0  5  0  0  0  0  0  0  0  0  0  0
    2.2816    3.9021    0.3474 O   0  0  0  0  0  0  0  0  0  0  0  0
    1.5951   -1.0523    0.0676 H   0  0  0  0  0  0  0  0  0  0  0  0
   -0.8193    0.4357    0.3082 H   0  0  0  0  0  0  0  0  0  0  0  0
    0.4694    2.0136   -1.2111 H   0  0  0  0  0  0  0  0  0  0  0  0
    1.7140    0.7717   -1.3749 H   0  0  0  0  0  0  0  0  0  0  0  0
    0.7872    2.0665    1.2553 H   0  0  0  0  0  0  0  0  0  0  0  0
    2.0208    0.8072    1.1466 H   0  0  0  0  0  0  0  0  0  0  0  0
   -2.2982   -0.5885   -1.6201 N   0  0  0  0  0  0  0  0  0  0  0  0
   -3.1426   -0.9697   -2.7585 C   0  0  2  0  0  0  0  0  0  0  0  0
   -4.6493   -0.8197   -2.4613 C   0  0  0  0  0  0  0  0  0  0  0  0
   -5.1000   -1.0263   -1.3398 O   0  0  0  0  0  0  0  0  0  0  0  0
   -2.8257   -2.4205   -3.1360 C   0  0  0  0  0  0  0  0  0  0  0  0
   -2.5610   -0.9563   -0.7036 H   0  0  0  0  0  0  0  0  0  0  0  0
   -2.9127   -0.3200   -3.6091 H   0  0  0  0  0  0  0  0  0  0  0  0
   -3.0343   -3.0874   -2.2933 H   0  0  0  0  0  0  0  0  0  0  0  0
   -3.4326   -2.7348   -3.9900 H   0  0  0  0  0  0  0  0  0  0  0  0
   -1.7703   -2.5227   -3.4066 H   0  0  0  0  0  0  0  0  0  0  0  0
   -5.5219   -0.4943   -3.4852 N   0  0  0  0  0  0  0  0  0  0  0  0
   -6.9552   -0.3171   -3.2912 C   0  0  0  0  0  0  0  0  0  0  0  0
   -5.1163   -0.2794   -4.3912 H   0  0  0  0  0  0  0  0  0  0  0  0
   -7.4050   -1.2355   -2.8996 H   0  0  0  0  0  0  0  0  0  0  0  0
   -7.1483    0.4990   -2.5871 H   0  0  0  0  0  0  0  0  0  0  0  0
   -7.4380   -0.0757   -4.2429 H   0  0  0  0  0  0  0  0  0  0  0  0
  1  2  2  0  0  0  0
  1  3  1  0  0  0  0
  1  7  1  0  0  0  0
  3  4  1  0  0  0  0
  3  5  1  0  0  0  0
  3  6  1  0  0  0  0
  7  8  1  0  0  0  0
  7 12  1  0  0  0  0
  8  9  1  0  0  0  0
  8 11  1  0  0  0  0
  8 13  1  0  0  0  0
  9 10  2  0  0  0  0
  9 17  1  0  0  0  0
 11 14  1  0  0  0  0
 11 15  1  0  0  0  0
 11 16  1  0  0  0  0
 17 18  1  0  0  0  0
 17 26  1  0  0  0  0
 18 19  1  0  0  0  0
 18 21  1  0  0  0  0
 18 27  1  0  0  0  0
 19 20  2  0  0  0  0
 19 32  1  0  0  0  0
 21 22  1  0  0  0  0
 21 28  1  0  0  0  0
 21 29  1  0  0  0  0
 22 23  1  0  0  0  0
 22 30  1  0  0  0  0
 22 31  1  0  0  0  0
 23 24  1  0  0  0  0
 23 25  2  0  0  0  0
 32 33  1  0  0  0  0
 32 37  1  0  0  0  0
 33 34  1  0  0  0  0
 33 36  1  0  0  0  0
 33 38  1  0  0  0  0
 34 35  2  0  0  0  0
 34 42  1  0  0  0  0
 36 39  1  0  0  0  0
 36 40  1  0  0  0  0
 36 41  1  0  0  0  0
 42 43  1  0  0  0  0
 42 44  1  0  0  0  0
 43 45  1  0  0  0  0
 43 46  1  0  0  0  0
 43 47  1  0  0  0  0
M  CHG  1  24  -1
M  END
$$$$

  -OEChem-05262216243D

 47 46  0     1  0  0  0  0  0999 V2000
    0.4986   -5.8486    1.4247 C   0  0  0  0  0  0  0  0  0  0  0  0
    1.6770   -5.9607    1.7241 O   0  0  0  0  0  0  0  0  0  0  0  0
   -0.5003   -6.8981    1.8770 C   0  0  0  0  0  0  0  0  0  0  0  0
   -0.9999   -7.3363    1.0096 H   0  0  0  0  0  0  0  0  0  0  0  0
    0.0100   -7.6927    2.4287 H   0  0  0  0  0  0  0  0  0  0  0  0
   -1.2500   -6.4419    2.5284 H   0  0  0  0  0  0  0  0  0  0  0  0
    0.0628   -4.7685    0.6882 N   0  0  0  0  0  0  0  0  0  0  0  0
    0.8827   -3.5950    0.3593 C   0  0  2  0  0  0  0  0  0  0  0  0
    0.0072   -2.3333    0.2046 C   0  0  0  0  0  0  0  0  0  0  0  0
   -1.2177   -2.4322    0.2253 O   0  0  0  0  0  0  0  0  0  0  0  0
    1.6474   -3.8731   -0.9390 C   0  0  0  0  0  0  0  0  0  0  0  0
   -0.9446   -4.6523    0.5820 H   0  0  0  0  0  0  0  0  0  0  0  0
    1.5972   -3.4043    1.1675 H   0  0  0  0  0  0  0  0  0  0  0  0
    0.9493   -4.0434   -1.7650 H   0  0  0  0  0  0  0  0  0  0  0  0
    2.2901   -3.0255   -1.1965 H   0  0  0  0  0  0  0  0  0  0  0  0
    2.2786   -4.7597   -0.8257 H   0  0  0  0  0  0  0  0  0  0  0  0
    0.5915   -1.0868    0.0905 N   0  0  0  0  0  0  0  0  0  0  0  0
   -0.1019    0.1157   -0.3966 C   0  0  2  0  0  0  0  0  0  0  0  0
   -0.9468   -0.1349   -1.6698 C   0  0  0  0  0  0  0  0  0  0  0  0
   -0.4106   -0.2901   -2.7630 O   0  0  0  0  0  0  0  0  0  0  0  0
    0.9634    1.1944   -0.6554 C   0  0  0  0  0  0  0  0  0  0  0  0
    1.6232    1.6608    0.6532 C   0  0  0  0  0  0  0  0  0  0  0  0
    2.6928    2.7114    0.3681 C   0  0  0  0  0  0  0  0  0  0  0  0
    3.8788    2.3102    0.2730 O   0  5  0  0  0  0  0  0  0  0  0  0
    2.3193    3.8991    0.2080 O   0  0  0  0  0  0  0  0  0  0  0  0
    1.6080   -1.0633    0.0539 H   0  0  0  0  0  0  0  0  0  0  0  0
   -0.7798    0.4769    0.3829 H   0  0  0  0  0  0  0  0  0  0  0  0
    0.4970    2.0594   -1.1398 H   0  0  0  0  0  0  0  0  0  0  0  0
    1.7284    0.8109   -1.3399 H   0  0  0  0  0  0  0  0  0  0  0  0
    0.8687    2.0875    1.3207 H   0  0  0  0  0  0  0  0  0  0  0  0
    2.0862    0.8164    1.1718 H   0  0  0  0  0  0  0  0  0  0  0  0
   -2.3249   -0.2110   -1.5924 N   0  0  0  0  0  0  0  0  0  0  0  0
   -3.1954   -0.5657   -2.7192 C   0  0  2  0  0  0  0  0  0  0  0  0
   -4.6389   -0.0509   -2.5426 C   0  0  0  0  0  0  0  0  0  0  0  0
   -5.1195    0.1182   -1.4270 O   0  0  0  0  0  0  0  0  0  0  0  0
   -3.1988   -2.0906   -2.8707 C   0  0  0  0  0  0  0  0  0  0  0  0
   -2.7247   -0.2608   -0.6566 H   0  0  0  0  0  0  0  0  0  0  0  0
   -2.7980   -0.1139   -3.6340 H   0  0  0  0  0  0  0  0  0  0  0  0
   -3.5865   -2.5623   -1.9620 H   0  0  0  0  0  0  0  0  0  0  0  0
   -3.8245   -2.3903   -3.7164 H   0  0  0  0  0  0  0  0  0  0  0  0
   -2.1831   -2.4587   -3.0459 H   0  0  0  0  0  0  0  0  0  0  0  0
   -5.4222    0.1939   -3.6571 N   0  0  0  0  0  0  0  0  0  0  0  0
   -6.7849    0.7039   -3.5832 C   0  0  0  0  0  0  0  0  0  0  0  0
   -4.9844    0.0856   -4.5672 H   0  0  0  0  0  0  0  0  0  0  0  0
   -7.4234    0.0094   -3.0274 H   0  0  0  0  0  0  0  0  0  0  0  0
   -6.8024    1.6780   -3.0833 H   0  0  0  0  0  0  0  0  0  0  0  0
   -7.1983    0.8238   -4.5890 H   0  0  0  0  0  0  0  0  0  0  0  0
  1  2  2  0  0  0  0
  1  3  1  0  0  0  0
  1  7  1  0  0  0  0
  3  4  1  0  0  0  0
  3  5  1  0  0  0  0
  3  6  1  0  0  0  0
  7  8  1  0  0  0  0
  7 12  1  0  0  0  0
  8  9  1  0  0  0  0
  8 11  1  0  0  0  0
  8 13  1  0  0  0  0
  9 10  2  0  0  0  0
  9 17  1  0  0  0  0
 11 14  1  0  0  0  0
 11 15  1  0  0  0  0
 11 16  1  0  0  0  0
 17 18  1  0  0  0  0
 17 26  1  0  0  0  0
 18 19  1  0  0  0  0
 18 21  1  0  0  0  0
 18 27  1  0  0  0  0
 19 20  2  0  0  0  0
 19 32  1  0  0  0  0
 21 22  1  0  0  0  0
 21 28  1  0  0  0  0
 21 29  1  0  0  0  0
 22 23  1  0  0  0  0
 22 30  1  0  0  0  0
 22 31  1  0  0  0  0
 23 24  1  0  0  0  0
 23 25  2  0  0  0  0
 32 33  1  0  0  0  0
 32 37  1  0  0  0  0
 33 34  1  0  0  0  0
 33 36  1  0  0  0  0
 33 38  1  0  0  0  0
 34 35  2  0  0  0  0
 34 42  1  0  0  0  0
 36 39  1  0  0  0  0
 36 40  1  0  0  0  0
 36 41  1  0  0  0  0
 42 43  1  0  0  0  0
 42 44  1  0  0  0  0
 43 45  1  0  0  0  0
 43 46  1  0  0  0  0
 43 47  1  0  0  0  0
M  CHG  1  24  -1
M  END
$$$$

  -OEChem-05262216243D

 47 46  0     1  0  0  0  0  0999 V2000
    0.4228   -5.8617    1.3123 C   0  0  0  0  0  0  0  0  0  0  0  0
    1.6088   -6.0218    1.5543 O   0  0  0  0  0  0  0  0  0  0  0  0
   -0.5862   -6.9106    1.7427 C   0  0  0  0  0  0  0  0  0  0  0  0
   -1.1575   -7.2556    0.8773 H   0  0  0  0  0  0  0  0  0  0  0  0
   -0.0735   -7.7666    2.1904 H   0  0  0  0  0  0  0  0  0  0  0  0
   -1.2735   -6.4861    2.4787 H   0  0  0  0  0  0  0  0  0  0  0  0
   -0.0115   -4.7319    0.6545 N   0  0  0  0  0  0  0  0  0  0  0  0
    0.8301   -3.5741    0.3258 C   0  0  2  0  0  0  0  0  0  0  0  0
   -0.0111   -2.2818    0.2581 C   0  0  0  0  0  0  0  0  0  0  0  0
   -1.2374   -2.3469    0.3220 O   0  0  0  0  0  0  0  0  0  0  0  0
    1.5172   -3.8302   -1.0201 C   0  0  0  0  0  0  0  0  0  0  0  0
   -1.0184   -4.5846    0.5884 H   0  0  0  0  0  0  0  0  0  0  0  0
    1.5903   -3.4353    1.1021 H   0  0  0  0  0  0  0  0  0  0  0  0
    0.7717   -3.9528   -1.8125 H   0  0  0  0  0  0  0  0  0  0  0  0
    2.1692   -2.9919   -1.2849 H   0  0  0  0  0  0  0  0  0  0  0  0
    2.1267   -4.7378   -0.9698 H   0  0  0  0  0  0  0  0  0  0  0  0
    0.6039   -1.0483    0.1556 N   0  0  0  0  0  0  0  0  0  0  0  0
   -0.0801    0.1569   -0.3383 C   0  0  2  0  0  0  0  0  0  0  0  0
   -0.9131   -0.1038   -1.6151 C   0  0  0  0  0  0  0  0  0  0  0  0
   -0.3802   -0.5446   -2.6300 O   0  0  0  0  0  0  0  0  0  0  0  0
    0.9761    1.2375   -0.6159 C   0  0  0  0  0  0  0  0  0  0  0  0
    1.6448    1.7196    0.6820 C   0  0  0  0  0  0  0  0  0  0  0  0
    2.7070    2.7738    0.3804 C   0  0  0  0  0  0  0  0  0  0  0  0
    3.9092    2.4219    0.4621 O   0  5  0  0  0  0  0  0  0  0  0  0
    2.3131    3.9112    0.0236 O   0  0  0  0  0  0  0  0  0  0  0  0
    1.6165   -1.0577    0.0612 H   0  0  0  0  0  0  0  0  0  0  0  0
   -0.7593    0.5214    0.4382 H   0  0  0  0  0  0  0  0  0  0  0  0
    0.4995    2.0960   -1.1030 H   0  0  0  0  0  0  0  0  0  0  0  0
    1.7367    0.8515   -1.3039 H   0  0  0  0  0  0  0  0  0  0  0  0
    0.8949    2.1495    1.3521 H   0  0  0  0  0  0  0  0  0  0  0  0
    2.1136    0.8804    1.2039 H   0  0  0  0  0  0  0  0  0  0  0  0
   -2.2762    0.1229   -1.6228 N   0  0  0  0  0  0  0  0  0  0  0  0
   -3.1656   -0.2364   -2.7316 C   0  0  2  0  0  0  0  0  0  0  0  0
   -4.4599    0.6015   -2.7394 C   0  0  0  0  0  0  0  0  0  0  0  0
   -4.9474    1.0154   -1.6928 O   0  0  0  0  0  0  0  0  0  0  0  0
   -3.5016   -1.7269   -2.6177 C   0  0  0  0  0  0  0  0  0  0  0  0
   -2.7084    0.3942   -0.7419 H   0  0  0  0  0  0  0  0  0  0  0  0
   -2.6505   -0.0544   -3.6804 H   0  0  0  0  0  0  0  0  0  0  0  0
   -4.0130   -1.9311   -1.6714 H   0  0  0  0  0  0  0  0  0  0  0  0
   -4.1504   -2.0381   -3.4416 H   0  0  0  0  0  0  0  0  0  0  0  0
   -2.5870   -2.3272   -2.6526 H   0  0  0  0  0  0  0  0  0  0  0  0
   -5.0979    0.8737   -3.9365 N   0  0  0  0  0  0  0  0  0  0  0  0
   -6.2887    1.7071   -4.0367 C   0  0  0  0  0  0  0  0  0  0  0  0
   -4.6362    0.5699   -4.7887 H   0  0  0  0  0  0  0  0  0  0  0  0
   -7.1075    1.2766   -3.4509 H   0  0  0  0  0  0  0  0  0  0  0  0
   -6.0814    2.7165   -3.6662 H   0  0  0  0  0  0  0  0  0  0  0  0
   -6.6116    1.7801   -5.0795 H   0  0  0  0  0  0  0  0  0  0  0  0
  1  2  2  0  0  0  0
  1  3  1  0  0  0  0
  1  7  1  0  0  0  0
  3  4  1  0  0  0  0
  3  5  1  0  0  0  0
  3  6  1  0  0  0  0
  7  8  1  0  0  0  0
  7 12  1  0  0  0  0
  8  9  1  0  0  0  0
  8 11  1  0  0  0  0
  8 13  1  0  0  0  0
  9 10  2  0  0  0  0
  9 17  1  0  0  0  0
 11 14  1  0  0  0  0
 11 15  1  0  0  0  0
 11 16  1  0  0  0  0
 17 18  1  0  0  0  0
 17 26  1  0  0  0  0
 18 19  1  0  0  0  0
 18 21  1  0  0  0  0
 18 27  1  0  0  0  0
 19 20  2  0  0  0  0
 19 32  1  0  0  0  0
 21 22  1  0  0  0  0
 21 28  1  0  0  0  0
 21 29  1  0  0  0  0
 22 23  1  0  0  0  0
 22 30  1  0  0  0  0
 22 31  1  0  0  0  0
 23 24  1  0  0  0  0
 23 25  2  0  0  0  0
 32 33  1  0  0  0  0
 32 37  1  0  0  0  0
 33 34  1  0  0  0  0
 33 36  1  0  0  0  0
 33 38  1  0  0  0  0
 34 35  2  0  0  0  0
 34 42  1  0  0  0  0
 36 39  1  0  0  0  0
 36 40  1  0  0  0  0
 36 41  1  0  0  0  0
 42 43  1  0  0  0  0
 42 44  1  0  0  0  0
 43 45  1  0  0  0  0
 43 46  1  0  0  0  0
 43 47  1  0  0  0  0
M  CHG  1  24  -1
M  END
$$$$

  -OEChem-05262216243D

 47 46  0     1  0  0  0  0  0999 V2000
    0.4188   -5.8703    1.2929 C   0  0  0  0  0  0  0  0  0  0  0  0
    1.6079   -6.0395    1.5136 O   0  0  0  0  0  0  0  0  0  0  0  0
   -0.5905   -6.9111    1.7414 C   0  0  0  0  0  0  0  0  0  0  0  0
   -1.2234   -7.2038    0.9001 H   0  0  0  0  0  0  0  0  0  0  0  0
   -0.0754   -7.7982    2.1202 H   0  0  0  0  0  0  0  0  0  0  0  0
   -1.2190   -6.5006    2.5355 H   0  0  0  0  0  0  0  0  0  0  0  0
   -0.0202   -4.7344    0.6489 N   0  0  0  0  0  0  0  0  0  0  0  0
    0.8202   -3.5753    0.3223 C   0  0  2  0  0  0  0  0  0  0  0  0
   -0.0156   -2.2780    0.3064 C   0  0  0  0  0  0  0  0  0  0  0  0
   -1.2398   -2.3368    0.4100 O   0  0  0  0  0  0  0  0  0  0  0  0
    1.4670   -3.8061   -1.0475 C   0  0  0  0  0  0  0  0  0  0  0  0
   -1.0272   -4.5782    0.6088 H   0  0  0  0  0  0  0  0  0  0  0  0
    1.6028   -3.4573    1.0795 H   0  0  0  0  0  0  0  0  0  0  0  0
    0.6986   -3.8982   -1.8221 H   0  0  0  0  0  0  0  0  0  0  0  0
    2.1229   -2.9701   -1.3089 H   0  0  0  0  0  0  0  0  0  0  0  0
    2.0652   -4.7223   -1.0369 H   0  0  0  0  0  0  0  0  0  0  0  0
    0.6014   -1.0454    0.2067 N   0  0  0  0  0  0  0  0  0  0  0  0
   -0.0909    0.1508   -0.2980 C   0  0  2  0  0  0  0  0  0  0  0  0
   -0.9156   -0.1177   -1.5795 C   0  0  0  0  0  0  0  0  0  0  0  0
   -0.4308   -0.7529   -2.5130 O   0  0  0  0  0  0  0  0  0  0  0  0
    0.9584    1.2358   -0.5838 C   0  0  0  0  0  0  0  0  0  0  0  0
    1.6252    1.7357    0.7084 C   0  0  0  0  0  0  0  0  0  0  0  0
    2.6802    2.7940    0.3947 C   0  0  0  0  0  0  0  0  0  0  0  0
    3.8848    2.4498    0.4751 O   0  5  0  0  0  0  0  0  0  0  0  0
    2.2781    3.9244    0.0244 O   0  0  0  0  0  0  0  0  0  0  0  0
    1.6098   -1.0628    0.0777 H   0  0  0  0  0  0  0  0  0  0  0  0
   -0.7773    0.5127    0.4739 H   0  0  0  0  0  0  0  0  0  0  0  0
    0.4774    2.0868   -1.0794 H   0  0  0  0  0  0  0  0  0  0  0  0
    1.7212    0.8469   -1.2675 H   0  0  0  0  0  0  0  0  0  0  0  0
    0.8732    2.1675    1.3749 H   0  0  0  0  0  0  0  0  0  0  0  0
    2.1004    0.9049    1.2379 H   0  0  0  0  0  0  0  0  0  0  0  0
   -2.2000    0.3768   -1.7082 N   0  0  0  0  0  0  0  0  0  0  0  0
   -3.0710    0.1327   -2.8629 C   0  0  2  0  0  0  0  0  0  0  0  0
   -4.1444    1.2273   -3.0274 C   0  0  0  0  0  0  0  0  0  0  0  0
   -4.5878    1.8211   -2.0504 O   0  0  0  0  0  0  0  0  0  0  0  0
   -3.7356   -1.2369   -2.6882 C   0  0  0  0  0  0  0  0  0  0  0  0
   -2.5900    0.8930   -0.9216 H   0  0  0  0  0  0  0  0  0  0  0  0
   -2.4669    0.1263   -3.7760 H   0  0  0  0  0  0  0  0  0  0  0  0
   -4.3400   -1.2543   -1.7756 H   0  0  0  0  0  0  0  0  0  0  0  0
   -4.3830   -1.4601   -3.5412 H   0  0  0  0  0  0  0  0  0  0  0  0
   -2.9762   -2.0221   -2.6153 H   0  0  0  0  0  0  0  0  0  0  0  0
   -4.6325    1.5330   -4.2855 N   0  0  0  0  0  0  0  0  0  0  0  0
   -5.5914    2.6022   -4.5324 C   0  0  0  0  0  0  0  0  0  0  0  0
   -4.1937    1.0732   -5.0777 H   0  0  0  0  0  0  0  0  0  0  0  0
   -6.5102    2.4340   -3.9609 H   0  0  0  0  0  0  0  0  0  0  0  0
   -5.1683    3.5697   -4.2426 H   0  0  0  0  0  0  0  0  0  0  0  0
   -5.8490    2.6397   -5.5951 H   0  0  0  0  0  0  0  0  0  0  0  0
  1  2  2  0  0  0  0
  1  3  1  0  0  0  0
  1  7  1  0  0  0  0
  3  4  1  0  0  0  0
  3  5  1  0  0  0  0
  3  6  1  0  0  0  0
  7  8  1  0  0  0  0
  7 12  1  0  0  0  0
  8  9  1  0  0  0  0
  8 11  1  0  0  0  0
  8 13  1  0  0  0  0
  9 10  2  0  0  0  0
  9 17  1  0  0  0  0
 11 14  1  0  0  0  0
 11 15  1  0  0  0  0
 11 16  1  0  0  0  0
 17 18  1  0  0  0  0
 17 26  1  0  0  0  0
 18 19  1  0  0  0  0
 18 21  1  0  0  0  0
 18 27  1  0  0  0  0
 19 20  2  0  0  0  0
 19 32  1  0  0  0  0
 21 22  1  0  0  0  0
 21 28  1  0  0  0  0
 21 29  1  0  0  0  0
 22 23  1  0  0  0  0
 22 30  1  0  0  0  0
 22 31  1  0  0  0  0
 23 24  1  0  0  0  0
 23 25  2  0  0  0  0
 32 33  1  0  0  0  0
 32 37  1  0  0  0  0
 33 34  1  0  0  0  0
 33 36  1  0  0  0  0
 33 38  1  0  0  0  0
 34 35  2  0  0  0  0
 34 42  1  0  0  0  0
 36 39  1  0  0  0  0
 36 40  1  0  0  0  0
 36 41  1  0  0  0  0
 42 43  1  0  0  0  0
 42 44  1  0  0  0  0
 43 45  1  0  0  0  0
 43 46  1  0  0  0  0
 43 47  1  0  0  0  0
M  CHG  1  24  -1
M  END
$$$$

  -OEChem-05262216243D

 47 46  0     1  0  0  0  0  0999 V2000
    0.4311   -5.8726    1.3311 C   0  0  0  0  0  0  0  0  0  0  0  0
    1.6236   -6.0335    1.5398 O   0  0  0  0  0  0  0  0  0  0  0  0
   -0.5648   -6.9222    1.7887 C   0  0  0  0  0  0  0  0  0  0  0  0
   -1.2049   -7.2189    0.9543 H   0  0  0  0  0  0  0  0  0  0  0  0
   -0.0382   -7.8057    2.1598 H   0  0  0  0  0  0  0  0  0  0  0  0
   -1.1874   -6.5181    2.5908 H   0  0  0  0  0  0  0  0  0  0  0  0
   -0.0230   -4.7393    0.6932 N   0  0  0  0  0  0  0  0  0  0  0  0
    0.8060   -3.5754    0.3555 C   0  0  2  0  0  0  0  0  0  0  0  0
   -0.0374   -2.2830    0.3383 C   0  0  0  0  0  0  0  0  0  0  0  0
   -1.2599   -2.3455    0.4592 O   0  0  0  0  0  0  0  0  0  0  0  0
    1.4447   -3.8073   -1.0178 C   0  0  0  0  0  0  0  0  0  0  0  0
   -1.0314   -4.5927    0.6561 H   0  0  0  0  0  0  0  0  0  0  0  0
    1.5927   -3.4491    1.1070 H   0  0  0  0  0  0  0  0  0  0  0  0
    0.6711   -3.9049   -1.7865 H   0  0  0  0  0  0  0  0  0  0  0  0
    2.0947   -2.9689   -1.2863 H   0  0  0  0  0  0  0  0  0  0  0  0
    2.0474   -4.7205   -1.0086 H   0  0  0  0  0  0  0  0  0  0  0  0
    0.5740   -1.0480    0.2342 N   0  0  0  0  0  0  0  0  0  0  0  0
   -0.1227    0.1390   -0.2865 C   0  0  2  0  0  0  0  0  0  0  0  0
   -0.9400   -0.1276   -1.5741 C   0  0  0  0  0  0  0  0  0  0  0  0
   -0.5283   -0.9064   -2.4311 O   0  0  0  0  0  0  0  0  0  0  0  0
    0.9314    1.2176   -0.5783 C   0  0  0  0  0  0  0  0  0  0  0  0
    1.5938    1.7309    0.7097 C   0  0  0  0  0  0  0  0  0  0  0  0
    2.6496    2.7803    0.3751 C   0  0  0  0  0  0  0  0  0  0  0  0
    3.8307    2.3808    0.2278 O   0  5  0  0  0  0  0  0  0  0  0  0
    2.2632    3.9627    0.2079 O   0  0  0  0  0  0  0  0  0  0  0  0
    1.5813   -1.0648    0.0983 H   0  0  0  0  0  0  0  0  0  0  0  0
   -0.8137    0.5055    0.4787 H   0  0  0  0  0  0  0  0  0  0  0  0
    0.4584    2.0662   -1.0857 H   0  0  0  0  0  0  0  0  0  0  0  0
    1.6966    0.8175   -1.2537 H   0  0  0  0  0  0  0  0  0  0  0  0
    0.8404    2.1714    1.3694 H   0  0  0  0  0  0  0  0  0  0  0  0
    2.0699    0.9082    1.2507 H   0  0  0  0  0  0  0  0  0  0  0  0
   -2.0803    0.6066   -1.8434 N   0  0  0  0  0  0  0  0  0  0  0  0
   -2.8694    0.4935   -3.0752 C   0  0  2  0  0  0  0  0  0  0  0  0
   -3.6902    1.7669   -3.3640 C   0  0  0  0  0  0  0  0  0  0  0  0
   -4.0493    2.5000   -2.4490 O   0  0  0  0  0  0  0  0  0  0  0  0
   -3.8011   -0.7165   -2.9503 C   0  0  0  0  0  0  0  0  0  0  0  0
   -2.3717    1.3013   -1.1573 H   0  0  0  0  0  0  0  0  0  0  0  0
   -2.1923    0.3416   -3.9222 H   0  0  0  0  0  0  0  0  0  0  0  0
   -4.4855   -0.5851   -2.1061 H   0  0  0  0  0  0  0  0  0  0  0  0
   -4.3908   -0.8418   -3.8630 H   0  0  0  0  0  0  0  0  0  0  0  0
   -3.2197   -1.6296   -2.7871 H   0  0  0  0  0  0  0  0  0  0  0  0
   -4.0421    2.0830   -4.6644 N   0  0  0  0  0  0  0  0  0  0  0  0
   -4.7532    3.3020   -5.0272 C   0  0  0  0  0  0  0  0  0  0  0  0
   -3.6690    1.4935   -5.4024 H   0  0  0  0  0  0  0  0  0  0  0  0
   -5.7171    3.3537   -4.5102 H   0  0  0  0  0  0  0  0  0  0  0  0
   -4.1614    4.1838   -4.7599 H   0  0  0  0  0  0  0  0  0  0  0  0
   -4.9400    3.3225   -6.1051 H   0  0  0  0  0  0  0  0  0  0  0  0
  1  2  2  0  0  0  0
  1  3  1  0  0  0  0
  1  7  1  0  0  0  0
  3  4  1  0  0  0  0
  3  5  1  0  0  0  0
  3  6  1  0  0  0  0
  7  8  1  0  0  0  0
  7 12  1  0  0  0  0
  8  9  1  0  0  0  0
  8 11  1  0  0  0  0
  8 13  1  0  0  0  0
  9 10  2  0  0  0  0
  9 17  1  0  0  0  0
 11 14  1  0  0  0  0
 11 15  1  0  0  0  0
 11 16  1  0  0  0  0
 17 18  1  0  0  0  0
 17 26  1  0  0  0  0
 18 19  1  0  0  0  0
 18 21  1  0  0  0  0
 18 27  1  0  0  0  0
 19 20  2  0  0  0  0
 19 32  1  0  0  0  0
 21 22  1  0  0  0  0
 21 28  1  0  0  0  0
 21 29  1  0  0  0  0
 22 23  1  0  0  0  0
 22 30  1  0  0  0  0
 22 31  1  0  0  0  0
 23 24  1  0  0  0  0
 23 25  2  0  0  0  0
 32 33  1  0  0  0  0
 32 37  1  0  0  0  0
 33 34  1  0  0  0  0
 33 36  1  0  0  0  0
 33 38  1  0  0  0  0
 34 35  2  0  0  0  0
 34 42  1  0  0  0  0
 36 39  1  0  0  0  0
 36 40  1  0  0  0  0
 36 41  1  0  0  0  0
 42 43  1  0  0  0  0
 42 44  1  0  0  0  0
 43 45  1  0  0  0  0
 43 46  1  0  0  0  0
 43 47  1  0  0  0  0
M  CHG  1  24  -1
M  END
$$$$

  -OEChem-05262216243D

 47 46  0     1  0  0  0  0  0999 V2000
    0.4236   -5.8593    1.3390 C   0  0  0  0  0  0  0  0  0  0  0  0
    1.6162   -6.0235    1.5443 O   0  0  0  0  0  0  0  0  0  0  0  0
   -0.5747   -6.9047    1.8017 C   0  0  0  0  0  0  0  0  0  0  0  0
   -1.2142   -7.2055    0.9683 H   0  0  0  0  0  0  0  0  0  0  0  0
   -0.0497   -7.7868    2.1787 H   0  0  0  0  0  0  0  0  0  0  0  0
   -1.1980   -6.4951    2.6005 H   0  0  0  0  0  0  0  0  0  0  0  0
   -0.0291   -4.7262    0.7002 N   0  0  0  0  0  0  0  0  0  0  0  0
    0.8002   -3.5626    0.3635 C   0  0  2  0  0  0  0  0  0  0  0  0
   -0.0453   -2.2714    0.3511 C   0  0  0  0  0  0  0  0  0  0  0  0
   -1.2638   -2.3339    0.5080 O   0  0  0  0  0  0  0  0  0  0  0  0
    1.4368   -3.7931   -1.0108 C   0  0  0  0  0  0  0  0  0  0  0  0
   -1.0372   -4.5745    0.6714 H   0  0  0  0  0  0  0  0  0  0  0  0
    1.5881   -3.4375    1.1138 H   0  0  0  0  0  0  0  0  0  0  0  0
    0.6617   -3.8931   -1.7777 H   0  0  0  0  0  0  0  0  0  0  0  0
    2.0840   -2.9530   -1.2807 H   0  0  0  0  0  0  0  0  0  0  0  0
    2.0418   -4.7050   -1.0027 H   0  0  0  0  0  0  0  0  0  0  0  0
    0.5593   -1.0339    0.2334 N   0  0  0  0  0  0  0  0  0  0  0  0
   -0.1464    0.1436   -0.2992 C   0  0  2  0  0  0  0  0  0  0  0  0
   -0.9698   -0.1233   -1.5856 C   0  0  0  0  0  0  0  0  0  0  0  0
   -0.6674   -1.0301   -2.3586 O   0  0  0  0  0  0  0  0  0  0  0  0
    0.9139    1.2159   -0.5973 C   0  0  0  0  0  0  0  0  0  0  0  0
    1.5753    1.7395    0.6875 C   0  0  0  0  0  0  0  0  0  0  0  0
    2.6363    2.7809    0.3436 C   0  0  0  0  0  0  0  0  0  0  0  0
    3.8229    2.3821    0.2479 O   0  5  0  0  0  0  0  0  0  0  0  0
    2.2491    3.9517    0.1103 O   0  0  0  0  0  0  0  0  0  0  0  0
    1.5652   -1.0489    0.0884 H   0  0  0  0  0  0  0  0  0  0  0  0
   -0.8374    0.5155    0.4637 H   0  0  0  0  0  0  0  0  0  0  0  0
    0.4481    2.0632   -1.1127 H   0  0  0  0  0  0  0  0  0  0  0  0
    1.6790    0.8070   -1.2672 H   0  0  0  0  0  0  0  0  0  0  0  0
    0.8223    2.1918    1.3396 H   0  0  0  0  0  0  0  0  0  0  0  0
    2.0457    0.9212    1.2404 H   0  0  0  0  0  0  0  0  0  0  0  0
   -1.9149    0.7958   -2.0047 N   0  0  0  0  0  0  0  0  0  0  0  0
   -2.6298    0.7321   -3.2851 C   0  0  2  0  0  0  0  0  0  0  0  0
   -3.1638    2.1118   -3.7186 C   0  0  0  0  0  0  0  0  0  0  0  0
   -3.5130    2.9354   -2.8803 O   0  0  0  0  0  0  0  0  0  0  0  0
   -3.7900   -0.2601   -3.1540 C   0  0  0  0  0  0  0  0  0  0  0  0
   -2.0839    1.6068   -1.4104 H   0  0  0  0  0  0  0  0  0  0  0  0
   -1.9441    0.3840   -4.0645 H   0  0  0  0  0  0  0  0  0  0  0  0
   -4.4805    0.0632   -2.3686 H   0  0  0  0  0  0  0  0  0  0  0  0
   -4.3411   -0.3323   -4.0963 H   0  0  0  0  0  0  0  0  0  0  0  0
   -3.4135   -1.2554   -2.8979 H   0  0  0  0  0  0  0  0  0  0  0  0
   -3.2783    2.4204   -5.0624 N   0  0  0  0  0  0  0  0  0  0  0  0
   -3.7094    3.7254   -5.5465 C   0  0  0  0  0  0  0  0  0  0  0  0
   -2.9106    1.7460   -5.7270 H   0  0  0  0  0  0  0  0  0  0  0  0
   -4.7185    3.9531   -5.1869 H   0  0  0  0  0  0  0  0  0  0  0  0
   -3.0255    4.5069   -5.1989 H   0  0  0  0  0  0  0  0  0  0  0  0
   -3.7221    3.7367   -6.6405 H   0  0  0  0  0  0  0  0  0  0  0  0
  1  2  2  0  0  0  0
  1  3  1  0  0  0  0
  1  7  1  0  0  0  0
  3  4  1  0  0  0  0
  3  5  1  0  0  0  0
  3  6  1  0  0  0  0
  7  8  1  0  0  0  0
  7 12  1  0  0  0  0
  8  9  1  0  0  0  0
  8 11  1  0  0  0  0
  8 13  1  0  0  0  0
  9 10  2  0  0  0  0
  9 17  1  0  0  0  0
 11 14  1  0  0  0  0
 11 15  1  0  0  0  0
 11 16  1  0  0  0  0
 17 18  1  0  0  0  0
 17 26  1  0  0  0  0
 18 19  1  0  0  0  0
 18 21  1  0  0  0  0
 18 27  1  0  0  0  0
 19 20  2  0  0  0  0
 19 32  1  0  0  0  0
 21 22  1  0  0  0  0
 21 28  1  0  0  0  0
 21 29  1  0  0  0  0
 22 23  1  0  0  0  0
 22 30  1  0  0  0  0
 22 31  1  0  0  0  0
 23 24  1  0  0  0  0
 23 25  2  0  0  0  0
 32 33  1  0  0  0  0
 32 37  1  0  0  0  0
 33 34  1  0  0  0  0
 33 36  1  0  0  0  0
 33 38  1  0  0  0  0
 34 35  2  0  0  0  0
 34 42  1  0  0  0  0
 36 39  1  0  0  0  0
 36 40  1  0  0  0  0
 36 41  1  0  0  0  0
 42 43  1  0  0  0  0
 42 44  1  0  0  0  0
 43 45  1  0  0  0  0
 43 46  1  0  0  0  0
 43 47  1  0  0  0  0
M  CHG  1  24  -1
M  END
$$$$

  -OEChem-05262216243D

 47 46  0     1  0  0  0  0  0999 V2000
    0.4987   -5.8353    1.3660 C   0  0  0  0  0  0  0  0  0  0  0  0
    1.7038   -5.9884    1.4936 O   0  0  0  0  0  0  0  0  0  0  0  0
   -0.4575   -6.8934    1.8854 C   0  0  0  0  0  0  0  0  0  0  0  0
   -1.1025   -7.2428    1.0753 H   0  0  0  0  0  0  0  0  0  0  0  0
    0.1015   -7.7446    2.2839 H   0  0  0  0  0  0  0  0  0  0  0  0
   -1.0787   -6.4749    2.6812 H   0  0  0  0  0  0  0  0  0  0  0  0
   -0.0054   -4.7068    0.7587 N   0  0  0  0  0  0  0  0  0  0  0  0
    0.7889   -3.5309    0.3818 C   0  0  2  0  0  0  0  0  0  0  0  0
   -0.0557   -2.2431    0.4847 C   0  0  0  0  0  0  0  0  0  0  0  0
   -1.2262   -2.3034    0.8571 O   0  0  0  0  0  0  0  0  0  0  0  0
    1.2976   -3.7229   -1.0504 C   0  0  0  0  0  0  0  0  0  0  0  0
   -1.0129   -4.5580    0.8134 H   0  0  0  0  0  0  0  0  0  0  0  0
    1.6424   -3.4225    1.0595 H   0  0  0  0  0  0  0  0  0  0  0  0
    0.4560   -3.7987   -1.7467 H   0  0  0  0  0  0  0  0  0  0  0  0
    1.9232   -2.8781   -1.3541 H   0  0  0  0  0  0  0  0  0  0  0  0
    1.8954   -4.6367   -1.1219 H   0  0  0  0  0  0  0  0  0  0  0  0
    0.5235   -1.0019    0.2985 N   0  0  0  0  0  0  0  0  0  0  0  0
   -0.1892    0.1500   -0.2888 C   0  0  2  0  0  0  0  0  0  0  0  0
   -1.3028   -0.1549   -1.3332 C   0  0  0  0  0  0  0  0  0  0  0  0
   -1.3512   -1.2268   -1.9316 O   0  0  0  0  0  0  0  0  0  0  0  0
    0.9010    1.0128   -0.9529 C   0  0  0  0  0  0  0  0  0  0  0  0
    1.8520    1.6358    0.0821 C   0  0  0  0  0  0  0  0  0  0  0  0
    2.9249    2.4571   -0.6260 C   0  0  0  0  0  0  0  0  0  0  0  0
    3.9150    1.8303   -1.0773 O   0  5  0  0  0  0  0  0  0  0  0  0
    2.7265    3.6881   -0.7649 O   0  0  0  0  0  0  0  0  0  0  0  0
    1.5160   -1.0341    0.0795 H   0  0  0  0  0  0  0  0  0  0  0  0
   -0.6609    0.7142    0.5212 H   0  0  0  0  0  0  0  0  0  0  0  0
    0.4430    1.8308   -1.5194 H   0  0  0  0  0  0  0  0  0  0  0  0
    1.4724    0.4059   -1.6647 H   0  0  0  0  0  0  0  0  0  0  0  0
    1.2910    2.2784    0.7672 H   0  0  0  0  0  0  0  0  0  0  0  0
    2.3410    0.8598    0.6777 H   0  0  0  0  0  0  0  0  0  0  0  0
   -2.0032    0.8937   -1.9059 N   0  0  0  0  0  0  0  0  0  0  0  0
   -2.8731    0.7838   -3.0845 C   0  0  2  0  0  0  0  0  0  0  0  0
   -3.1266    2.1554   -3.7421 C   0  0  0  0  0  0  0  0  0  0  0  0
   -3.1476    3.1752   -3.0623 O   0  0  0  0  0  0  0  0  0  0  0  0
   -4.2069    0.1537   -2.6670 C   0  0  0  0  0  0  0  0  0  0  0  0
   -1.8611    1.8250   -1.5154 H   0  0  0  0  0  0  0  0  0  0  0  0
   -2.3887    0.1441   -3.8296 H   0  0  0  0  0  0  0  0  0  0  0  0
   -4.6977    0.7692   -1.9065 H   0  0  0  0  0  0  0  0  0  0  0  0
   -4.8741    0.0647   -3.5293 H   0  0  0  0  0  0  0  0  0  0  0  0
   -4.0451   -0.8465   -2.2530 H   0  0  0  0  0  0  0  0  0  0  0  0
   -3.3562    2.2427   -5.1038 N   0  0  0  0  0  0  0  0  0  0  0  0
   -3.5193    3.5103   -5.8043 C   0  0  0  0  0  0  0  0  0  0  0  0
   -3.2504    1.3916   -5.6475 H   0  0  0  0  0  0  0  0  0  0  0  0
   -4.3568    4.0768   -5.3835 H   0  0  0  0  0  0  0  0  0  0  0  0
   -2.6087    4.1131   -5.7219 H   0  0  0  0  0  0  0  0  0  0  0  0
   -3.7226    3.3325   -6.8646 H   0  0  0  0  0  0  0  0  0  0  0  0
  1  2  2  0  0  0  0
  1  3  1  0  0  0  0
  1  7  1  0  0  0  0
  3  4  1  0  0  0  0
  3  5  1  0  0  0  0
  3  6  1  0  0  0  0
  7  8  1  0  0  0  0
  7 12  1  0  0  0  0
  8  9  1  0  0  0  0
  8 11  1  0  0  0  0
  8 13  1  0  0  0  0
  9 10  2  0  0  0  0
  9 17  1  0  0  0  0
 11 14  1  0  0  0  0
 11 15  1  0  0  0  0
 11 16  1  0  0  0  0
 17 18  1  0  0  0  0
 17 26  1  0  0  0  0
 18 19  1  0  0  0  0
 18 21  1  0  0  0  0
 18 27  1  0  0  0  0
 19 20  2  0  0  0  0
 19 32  1  0  0  0  0
 21 22  1  0  0  0  0
 21 28  1  0  0  0  0
 21 29  1  0  0  0  0
 22 23  1  0  0  0  0
 22 30  1  0  0  0  0
 22 31  1  0  0  0  0
 23 24  1  0  0  0  0
 23 25  2  0  0  0  0
 32 33  1  0  0  0  0
 32 37  1  0  0  0  0
 33 34  1  0  0  0  0
 33 36  1  0  0  0  0
 33 38  1  0  0  0  0
 34 35  2  0  0  0  0
 34 42  1  0  0  0  0
 36 39  1  0  0  0  0
 36 40  1  0  0  0  0
 36 41  1  0  0  0  0
 42 43  1  0  0  0  0
 42 44  1  0  0  0  0
 43 45  1  0  0  0  0
 43 46  1  0  0  0  0
 43 47  1  0  0  0  0
M  CHG  1  24  -1
M  END
$$$$

  -OEChem-05262216243D

 47 46  0     1  0  0  0  0  0999 V2000
    0.4850   -5.8250    1.2947 C   0  0  0  0  0  0  0  0  0  0  0  0
    1.6925   -6.0019    1.3459 O   0  0  0  0  0  0  0  0  0  0  0  0
   -0.4565   -6.8702    1.8651 C   0  0  0  0  0  0  0  0  0  0  0  0
   -1.1584   -7.2007    1.0956 H   0  0  0  0  0  0  0  0  0  0  0  0
    0.1103   -7.7352    2.2202 H   0  0  0  0  0  0  0  0  0  0  0  0
   -1.0171   -6.4479    2.7028 H   0  0  0  0  0  0  0  0  0  0  0  0
   -0.0329   -4.6780    0.7348 N   0  0  0  0  0  0  0  0  0  0  0  0
    0.7589   -3.5052    0.3424 C   0  0  2  0  0  0  0  0  0  0  0  0
   -0.0741   -2.2124    0.4801 C   0  0  0  0  0  0  0  0  0  0  0  0
   -1.2237   -2.2665    0.9123 O   0  0  0  0  0  0  0  0  0  0  0  0
    1.2284   -3.6881   -1.1042 C   0  0  0  0  0  0  0  0  0  0  0  0
   -1.0332   -4.5133    0.8490 H   0  0  0  0  0  0  0  0  0  0  0  0
    1.6311   -3.4087    0.9977 H   0  0  0  0  0  0  0  0  0  0  0  0
    0.3687   -3.7449   -1.7797 H   0  0  0  0  0  0  0  0  0  0  0  0
    1.8579   -2.8484   -1.4134 H   0  0  0  0  0  0  0  0  0  0  0  0
    1.8122   -4.6084   -1.2010 H   0  0  0  0  0  0  0  0  0  0  0  0
    0.5074   -0.9724    0.2946 N   0  0  0  0  0  0  0  0  0  0  0  0
   -0.1821    0.1888   -0.3070 C   0  0  2  0  0  0  0  0  0  0  0  0
   -1.2887   -0.0805   -1.3773 C   0  0  0  0  0  0  0  0  0  0  0  0
   -1.5378   -1.2061   -1.7983 O   0  0  0  0  0  0  0  0  0  0  0  0
    0.9556    1.0328   -0.9211 C   0  0  0  0  0  0  0  0  0  0  0  0
    1.8761    1.6295    0.1570 C   0  0  0  0  0  0  0  0  0  0  0  0
    2.9955    2.4305   -0.5000 C   0  0  0  0  0  0  0  0  0  0  0  0
    3.9662    1.7782   -0.9570 O   0  5  0  0  0  0  0  0  0  0  0  0
    2.8528    3.6729   -0.5952 O   0  0  0  0  0  0  0  0  0  0  0  0
    1.5018   -1.0126    0.0859 H   0  0  0  0  0  0  0  0  0  0  0  0
   -0.6625    0.7568    0.4951 H   0  0  0  0  0  0  0  0  0  0  0  0
    0.5469    1.8697   -1.4960 H   0  0  0  0  0  0  0  0  0  0  0  0
    1.5414    0.4187   -1.6149 H   0  0  0  0  0  0  0  0  0  0  0  0
    1.2999    2.2812    0.8206 H   0  0  0  0  0  0  0  0  0  0  0  0
    2.3231    0.8421    0.7698 H   0  0  0  0  0  0  0  0  0  0  0  0
   -1.7418    0.9563   -2.1787 N   0  0  0  0  0  0  0  0  0  0  0  0
   -2.5766    0.7984   -3.3783 C   0  0  2  0  0  0  0  0  0  0  0  0
   -2.5359    2.0476   -4.2809 C   0  0  0  0  0  0  0  0  0  0  0  0
   -2.3807    3.1610   -3.7934 O   0  0  0  0  0  0  0  0  0  0  0  0
   -4.0235    0.5198   -2.9542 C   0  0  0  0  0  0  0  0  0  0  0  0
   -1.4406    1.9017   -1.9419 H   0  0  0  0  0  0  0  0  0  0  0  0
   -2.2025   -0.0457   -3.9666 H   0  0  0  0  0  0  0  0  0  0  0  0
   -4.4112    1.3495   -2.3546 H   0  0  0  0  0  0  0  0  0  0  0  0
   -4.6624    0.3959   -3.8336 H   0  0  0  0  0  0  0  0  0  0  0  0
   -4.0792   -0.3960   -2.3578 H   0  0  0  0  0  0  0  0  0  0  0  0
   -2.7105    1.9234   -5.6477 N   0  0  0  0  0  0  0  0  0  0  0  0
   -2.6359    3.0516   -6.5669 C   0  0  0  0  0  0  0  0  0  0  0  0
   -2.7667    0.9829   -6.0265 H   0  0  0  0  0  0  0  0  0  0  0  0
   -3.3872    3.8055   -6.3098 H   0  0  0  0  0  0  0  0  0  0  0  0
   -1.6438    3.5133   -6.5258 H   0  0  0  0  0  0  0  0  0  0  0  0
   -2.8206    2.7163   -7.5918 H   0  0  0  0  0  0  0  0  0  0  0  0
  1  2  2  0  0  0  0
  1  3  1  0  0  0  0
  1  7  1  0  0  0  0
  3  4  1  0  0  0  0
  3  5  1  0  0  0  0
  3  6  1  0  0  0  0
  7  8  1  0  0  0  0
  7 12  1  0  0  0  0
  8  9  1  0  0  0  0
  8 11  1  0  0  0  0
  8 13  1  0  0  0  0
  9 10  2  0  0  0  0
  9 17  1  0  0  0  0
 11 14  1  0  0  0  0
 11 15  1  0  0  0  0
 11 16  1  0  0  0  0
 17 18  1  0  0  0  0
 17 26  1  0  0  0  0
 18 19  1  0  0  0  0
 18 21  1  0  0  0  0
 18 27  1  0  0  0  0
 19 20  2  0  0  0  0
 19 32  1  0  0  0  0
 21 22  1  0  0  0  0
 21 28  1  0  0  0  0
 21 29  1  0  0  0  0
 22 23  1  0  0  0  0
 22 30  1  0  0  0  0
 22 31  1  0  0  0  0
 23 24  1  0  0  0  0
 23 25  2  0  0  0  0
 32 33  1  0  0  0  0
 32 37  1  0  0  0  0
 33 34  1  0  0  0  0
 33 36  1  0  0  0  0
 33 38  1  0  0  0  0
 34 35  2  0  0  0  0
 34 42  1  0  0  0  0
 36 39  1  0  0  0  0
 36 40  1  0  0  0  0
 36 41  1  0  0  0  0
 42 43  1  0  0  0  0
 42 44  1  0  0  0  0
 43 45  1  0  0  0  0
 43 46  1  0  0  0  0
 43 47  1  0  0  0  0
M  CHG  1  24  -1
M  END
$$$$

  -OEChem-05262216243D

 47 46  0     1  0  0  0  0  0999 V2000
    0.4927   -5.8203    1.1717 C   0  0  0  0  0  0  0  0  0  0  0  0
    1.7005   -6.0023    1.1797 O   0  0  0  0  0  0  0  0  0  0  0  0
   -0.4347   -6.8747    1.7469 C   0  0  0  0  0  0  0  0  0  0  0  0
   -1.1615   -7.1834    0.9917 H   0  0  0  0  0  0  0  0  0  0  0  0
    0.1386   -7.7501    2.0643 H   0  0  0  0  0  0  0  0  0  0  0  0
   -0.9673   -6.4692    2.6106 H   0  0  0  0  0  0  0  0  0  0  0  0
   -0.0391   -4.6594    0.6559 N   0  0  0  0  0  0  0  0  0  0  0  0
    0.7443   -3.4774    0.2773 C   0  0  2  0  0  0  0  0  0  0  0  0
   -0.0892   -2.1907    0.4591 C   0  0  0  0  0  0  0  0  0  0  0  0
   -1.2178   -2.2587    0.9395 O   0  0  0  0  0  0  0  0  0  0  0  0
    1.1920   -3.6279   -1.1801 C   0  0  0  0  0  0  0  0  0  0  0  0
   -1.0334   -4.4926    0.8135 H   0  0  0  0  0  0  0  0  0  0  0  0
    1.6261   -3.3942    0.9213 H   0  0  0  0  0  0  0  0  0  0  0  0
    0.3221   -3.6690   -1.8436 H   0  0  0  0  0  0  0  0  0  0  0  0
    1.8190   -2.7825   -1.4794 H   0  0  0  0  0  0  0  0  0  0  0  0
    1.7720   -4.5473   -1.3064 H   0  0  0  0  0  0  0  0  0  0  0  0
    0.4890   -0.9467    0.2948 N   0  0  0  0  0  0  0  0  0  0  0  0
   -0.1696    0.2243   -0.3246 C   0  0  2  0  0  0  0  0  0  0  0  0
   -1.2413   -0.0185   -1.4413 C   0  0  0  0  0  0  0  0  0  0  0  0
   -1.7853   -1.0996   -1.6322 O   0  0  0  0  0  0  0  0  0  0  0  0
    1.0035    1.0830   -0.8490 C   0  0  0  0  0  0  0  0  0  0  0  0
    1.8526    1.6578    0.2985 C   0  0  0  0  0  0  0  0  0  0  0  0
    3.0109    2.4751   -0.2654 C   0  0  0  0  0  0  0  0  0  0  0  0
    3.9442    1.8338   -0.8082 O   0  5  0  0  0  0  0  0  0  0  0  0
    2.9424    3.7253   -0.1912 O   0  0  0  0  0  0  0  0  0  0  0  0
    1.4897   -0.9859    0.1184 H   0  0  0  0  0  0  0  0  0  0  0  0
   -0.6877    0.7783    0.4645 H   0  0  0  0  0  0  0  0  0  0  0  0
    0.6327    1.9378   -1.4220 H   0  0  0  0  0  0  0  0  0  0  0  0
    1.6313    0.4864   -1.5209 H   0  0  0  0  0  0  0  0  0  0  0  0
    1.2323    2.2916    0.9397 H   0  0  0  0  0  0  0  0  0  0  0  0
    2.2638    0.8566    0.9187 H   0  0  0  0  0  0  0  0  0  0  0  0
   -1.4387    0.9153   -2.4471 N   0  0  0  0  0  0  0  0  0  0  0  0
   -2.2998    0.7271   -3.6237 C   0  0  2  0  0  0  0  0  0  0  0  0
   -1.9089    1.6641   -4.7841 C   0  0  0  0  0  0  0  0  0  0  0  0
   -1.3776    2.7446   -4.5582 O   0  0  0  0  0  0  0  0  0  0  0  0
   -3.7553    0.9830   -3.2178 C   0  0  0  0  0  0  0  0  0  0  0  0
   -0.9217    1.7925   -2.3865 H   0  0  0  0  0  0  0  0  0  0  0  0
   -2.1999   -0.3014   -3.9856 H   0  0  0  0  0  0  0  0  0  0  0  0
   -3.8709    2.0032   -2.8378 H   0  0  0  0  0  0  0  0  0  0  0  0
   -4.4209    0.8522   -4.0762 H   0  0  0  0  0  0  0  0  0  0  0  0
   -4.0619    0.2828   -2.4343 H   0  0  0  0  0  0  0  0  0  0  0  0
   -2.1786    1.3022   -6.0921 N   0  0  0  0  0  0  0  0  0  0  0  0
   -1.7973    2.1152   -7.2401 C   0  0  0  0  0  0  0  0  0  0  0  0
   -2.5759    0.3810   -6.2498 H   0  0  0  0  0  0  0  0  0  0  0  0
   -2.2729    3.1001   -7.1873 H   0  0  0  0  0  0  0  0  0  0  0  0
   -0.7108    2.2495   -7.2698 H   0  0  0  0  0  0  0  0  0  0  0  0
   -2.1122    1.6292   -8.1684 H   0  0  0  0  0  0  0  0  0  0  0  0
  1  2  2  0  0  0  0
  1  3  1  0  0  0  0
  1  7  1  0  0  0  0
  3  4  1  0  0  0  0
  3  5  1  0  0  0  0
  3  6  1  0  0  0  0
  7  8  1  0  0  0  0
  7 12  1  0  0  0  0
  8  9  1  0  0  0  0
  8 11  1  0  0  0  0
  8 13  1  0  0  0  0
  9 10  2  0  0  0  0
  9 17  1  0  0  0  0
 11 14  1  0  0  0  0
 11 15  1  0  0  0  0
 11 16  1  0  0  0  0
 17 18  1  0  0  0  0
 17 26  1  0  0  0  0
 18 19  1  0  0  0  0
 18 21  1  0  0  0  0
 18 27  1  0  0  0  0
 19 20  2  0  0  0  0
 19 32  1  0  0  0  0
 21 22  1  0  0  0  0
 21 28  1  0  0  0  0
 21 29  1  0  0  0  0
 22 23  1  0  0  0  0
 22 30  1  0  0  0  0
 22 31  1  0  0  0  0
 23 24  1  0  0  0  0
 23 25  2  0  0  0  0
 32 33  1  0  0  0  0
 32 37  1  0  0  0  0
 33 34  1  0  0  0  0
 33 36  1  0  0  0  0
 33 38  1  0  0  0  0
 34 35  2  0  0  0  0
 34 42  1  0  0  0  0
 36 39  1  0  0  0  0
 36 40  1  0  0  0  0
 36 41  1  0  0  0  0
 42 43  1  0  0  0  0
 42 44  1  0  0  0  0
 43 45  1  0  0  0  0
 43 46  1  0  0  0  0
 43 47  1  0  0  0  0
M  CHG  1  24  -1
M  END
$$$$

  -OEChem-05262216243D

 47 46  0     1  0  0  0  0  0999 V2000
    0.5973   -5.8268    1.5394 C   0  0  0  0  0  0  0  0  0  0  0  0
    1.6994   -5.7698    2.0625 O   0  0  0  0  0  0  0  0  0  0  0  0
   -0.3434   -6.9682    1.8793 C   0  0  0  0  0  0  0  0  0  0  0  0
   -0.6467   -7.4867    0.9665 H   0  0  0  0  0  0  0  0  0  0  0  0
    0.1530   -7.6825    2.5420 H   0  0  0  0  0  0  0  0  0  0  0  0
   -1.2326   -6.5794    2.3817 H   0  0  0  0  0  0  0  0  0  0  0  0
    0.1912   -4.8543    0.6526 N   0  0  0  0  0  0  0  0  0  0  0  0
    0.8985   -3.5888    0.4182 C   0  0  2  0  0  0  0  0  0  0  0  0
   -0.0942   -2.4655    0.0418 C   0  0  0  0  0  0  0  0  0  0  0  0
   -1.2731   -2.7575   -0.0978 O   0  0  0  0  0  0  0  0  0  0  0  0
    1.9268   -3.7979   -0.6983 C   0  0  0  0  0  0  0  0  0  0  0  0
   -0.7902   -4.8628    0.3720 H   0  0  0  0  0  0  0  0  0  0  0  0
    1.4162   -3.2785    1.3324 H   0  0  0  0  0  0  0  0  0  0  0  0
    1.4283   -4.0919   -1.6275 H   0  0  0  0  0  0  0  0  0  0  0  0
    2.4906   -2.8777   -0.8807 H   0  0  0  0  0  0  0  0  0  0  0  0
    2.6352   -4.5835   -0.4181 H   0  0  0  0  0  0  0  0  0  0  0  0
    0.3660   -1.1619   -0.0239 N   0  0  0  0  0  0  0  0  0  0  0  0
   -0.2610    0.0597   -0.5782 C   0  0  2  0  0  0  0  0  0  0  0  0
   -1.2502   -0.0648   -1.7808 C   0  0  0  0  0  0  0  0  0  0  0  0
   -2.3009   -0.6854   -1.6992 O   0  0  0  0  0  0  0  0  0  0  0  0
    0.9246    0.9983   -0.8933 C   0  0  0  0  0  0  0  0  0  0  0  0
    1.6394    1.4621    0.3879 C   0  0  0  0  0  0  0  0  0  0  0  0
    2.8168    2.3647    0.0338 C   0  0  0  0  0  0  0  0  0  0  0  0
    3.9513    1.8303   -0.0117 O   0  5  0  0  0  0  0  0  0  0  0  0
    2.5690    3.5590   -0.2599 O   0  0  0  0  0  0  0  0  0  0  0  0
    1.3522   -1.0582    0.2035 H   0  0  0  0  0  0  0  0  0  0  0  0
   -0.8546    0.5175    0.2192 H   0  0  0  0  0  0  0  0  0  0  0  0
    0.5702    1.9031   -1.3980 H   0  0  0  0  0  0  0  0  0  0  0  0
    1.6350    0.4990   -1.5625 H   0  0  0  0  0  0  0  0  0  0  0  0
    0.9430    2.0115    1.0283 H   0  0  0  0  0  0  0  0  0  0  0  0
    2.0114    0.6068    0.9588 H   0  0  0  0  0  0  0  0  0  0  0  0
   -1.1643    0.7960   -2.8647 N   0  0  0  0  0  0  0  0  0  0  0  0
   -2.1133    0.8380   -3.9865 C   0  0  2  0  0  0  0  0  0  0  0  0
   -1.4220    1.1194   -5.3370 C   0  0  0  0  0  0  0  0  0  0  0  0
   -0.2512    1.4779   -5.3817 O   0  0  0  0  0  0  0  0  0  0  0  0
   -3.1556    1.9168   -3.6788 C   0  0  0  0  0  0  0  0  0  0  0  0
   -0.2861    1.3004   -2.9856 H   0  0  0  0  0  0  0  0  0  0  0  0
   -2.6158   -0.1300   -4.0843 H   0  0  0  0  0  0  0  0  0  0  0  0
   -2.6761    2.8972   -3.5940 H   0  0  0  0  0  0  0  0  0  0  0  0
   -3.9090    1.9624   -4.4705 H   0  0  0  0  0  0  0  0  0  0  0  0
   -3.6615    1.6937   -2.7339 H   0  0  0  0  0  0  0  0  0  0  0  0
   -2.1216    0.9638   -6.5209 N   0  0  0  0  0  0  0  0  0  0  0  0
   -1.5343    1.1967   -7.8341 C   0  0  0  0  0  0  0  0  0  0  0  0
   -3.0842    0.6470   -6.4572 H   0  0  0  0  0  0  0  0  0  0  0  0
   -1.1513    2.2201   -7.9061 H   0  0  0  0  0  0  0  0  0  0  0  0
   -0.7106    0.4979   -8.0132 H   0  0  0  0  0  0  0  0  0  0  0  0
   -2.2865    1.0542   -8.6159 H   0  0  0  0  0  0  0  0  0  0  0  0
  1  2  2  0  0  0  0
  1  3  1  0  0  0  0
  1  7  1  0  0  0  0
  3  4  1  0  0  0  0
  3  5  1  0  0  0  0
  3  6  1  0  0  0  0
  7  8  1  0  0  0  0
  7 12  1  0  0  0  0
  8  9  1  0  0  0  0
  8 11  1  0  0  0  0
  8 13  1  0  0  0  0
  9 10  2  0  0  0  0
  9 17  1  0  0  0  0
 11 14  1  0  0  0  0
 11 15  1  0  0  0  0
 11 16  1  0  0  0  0
 17 18  1  0  0  0  0
 17 26  1  0  0  0  0
 18 19  1  0  0  0  0
 18 21  1  0  0  0  0
 18 27  1  0  0  0  0
 19 20  2  0  0  0  0
 19 32  1  0  0  0  0
 21 22  1  0  0  0  0
 21 28  1  0  0  0  0
 21 29  1  0  0  0  0
 22 23  1  0  0  0  0
 22 30  1  0  0  0  0
 22 31  1  0  0  0  0
 23 24  1  0  0  0  0
 23 25  2  0  0  0  0
 32 33  1  0  0  0  0
 32 37  1  0  0  0  0
 33 34  1  0  0  0  0
 33 36  1  0  0  0  0
 33 38  1  0  0  0  0
 34 35  2  0  0  0  0
 34 42  1  0  0  0  0
 36 39  1  0  0  0  0
 36 40  1  0  0  0  0
 36 41  1  0  0  0  0
 42 43  1  0  0  0  0
 42 44  1  0  0  0  0
 43 45  1  0  0  0  0
 43 46  1  0  0  0  0
 43 47  1  0  0  0  0
M  CHG  1  24  -1
M  END
$$$$

  -OEChem-05262216243D

 47 46  0     1  0  0  0  0  0999 V2000
    0.2433   -5.8091    0.4820 C   0  0  0  0  0  0  0  0  0  0  0  0
    0.9310   -5.7955    1.4910 O   0  0  0  0  0  0  0  0  0  0  0  0
   -0.6149   -7.0197    0.1645 C   0  0  0  0  0  0  0  0  0  0  0  0
   -0.3198   -7.4429   -0.7988 H   0  0  0  0  0  0  0  0  0  0  0  0
   -0.4927   -7.7832    0.9379 H   0  0  0  0  0  0  0  0  0  0  0  0
   -1.6672   -6.7283    0.1196 H   0  0  0  0  0  0  0  0  0  0  0  0
    0.2357   -4.7286   -0.3725 N   0  0  0  0  0  0  0  0  0  0  0  0
    0.8688   -3.4339   -0.0908 C   0  0  2  0  0  0  0  0  0  0  0  0
    0.0817   -2.2779   -0.7476 C   0  0  0  0  0  0  0  0  0  0  0  0
   -0.7697   -2.5525   -1.5832 O   0  0  0  0  0  0  0  0  0  0  0  0
    2.3090   -3.4741   -0.6118 C   0  0  0  0  0  0  0  0  0  0  0  0
   -0.4600   -4.7287   -1.1186 H   0  0  0  0  0  0  0  0  0  0  0  0
    0.8788   -3.2537    0.9896 H   0  0  0  0  0  0  0  0  0  0  0  0
    2.3184   -3.6354   -1.6945 H   0  0  0  0  0  0  0  0  0  0  0  0
    2.8246   -2.5336   -0.3946 H   0  0  0  0  0  0  0  0  0  0  0  0
    2.8628   -4.2877   -0.1327 H   0  0  0  0  0  0  0  0  0  0  0  0
    0.4077   -0.9715   -0.4222 N   0  0  0  0  0  0  0  0  0  0  0  0
   -0.3078    0.2894   -0.7197 C   0  0  2  0  0  0  0  0  0  0  0  0
   -1.1575    0.3470   -2.0185 C   0  0  0  0  0  0  0  0  0  0  0  0
   -2.2667   -0.1747   -2.0483 O   0  0  0  0  0  0  0  0  0  0  0  0
    0.7609    1.3990   -0.7036 C   0  0  0  0  0  0  0  0  0  0  0  0
    1.3493    1.6229    0.7037 C   0  0  0  0  0  0  0  0  0  0  0  0
    2.4313    2.7077    0.7302 C   0  0  0  0  0  0  0  0  0  0  0  0
    3.0565    2.8458    1.8078 O   0  5  0  0  0  0  0  0  0  0  0  0
    2.6483    3.3712   -0.3154 O   0  0  0  0  0  0  0  0  0  0  0  0
    1.1603   -0.8827    0.2558 H   0  0  0  0  0  0  0  0  0  0  0  0
   -1.0142    0.4799    0.0944 H   0  0  0  0  0  0  0  0  0  0  0  0
    0.3137    2.3477   -1.0210 H   0  0  0  0  0  0  0  0  0  0  0  0
    1.5641    1.1534   -1.4079 H   0  0  0  0  0  0  0  0  0  0  0  0
    0.5495    1.9118    1.3917 H   0  0  0  0  0  0  0  0  0  0  0  0
    1.7940    0.6970    1.0774 H   0  0  0  0  0  0  0  0  0  0  0  0
   -0.8978    1.2608   -3.0274 N   0  0  0  0  0  0  0  0  0  0  0  0
   -1.7237    1.4147   -4.2364 C   0  0  2  0  0  0  0  0  0  0  0  0
   -1.5792    0.2255   -5.2238 C   0  0  0  0  0  0  0  0  0  0  0  0
   -1.3620    0.4046   -6.4184 O   0  0  0  0  0  0  0  0  0  0  0  0
   -1.3463    2.7616   -4.8653 C   0  0  0  0  0  0  0  0  0  0  0  0
    0.0028    1.7332   -2.9929 H   0  0  0  0  0  0  0  0  0  0  0  0
   -2.7788    1.4650   -3.9478 H   0  0  0  0  0  0  0  0  0  0  0  0
   -0.3058    2.7497   -5.2058 H   0  0  0  0  0  0  0  0  0  0  0  0
   -1.9911    2.9732   -5.7239 H   0  0  0  0  0  0  0  0  0  0  0  0
   -1.4672    3.5694   -4.1368 H   0  0  0  0  0  0  0  0  0  0  0  0
   -1.7046   -1.0707   -4.7599 N   0  0  0  0  0  0  0  0  0  0  0  0
   -1.5324   -2.2602   -5.5783 C   0  0  0  0  0  0  0  0  0  0  0  0
   -1.8868   -1.1791   -3.7562 H   0  0  0  0  0  0  0  0  0  0  0  0
   -0.5185   -2.2972   -5.9892 H   0  0  0  0  0  0  0  0  0  0  0  0
   -1.6937   -3.1564   -4.9716 H   0  0  0  0  0  0  0  0  0  0  0  0
   -2.2513   -2.2650   -6.4037 H   0  0  0  0  0  0  0  0  0  0  0  0
  1  2  2  0  0  0  0
  1  3  1  0  0  0  0
  1  7  1  0  0  0  0
  3  4  1  0  0  0  0
  3  5  1  0  0  0  0
  3  6  1  0  0  0  0
  7  8  1  0  0  0  0
  7 12  1  0  0  0  0
  8  9  1  0  0  0  0
  8 11  1  0  0  0  0
  8 13  1  0  0  0  0
  9 10  2  0  0  0  0
  9 17  1  0  0  0  0
 11 14  1  0  0  0  0
 11 15  1  0  0  0  0
 11 16  1  0  0  0  0
 17 18  1  0  0  0  0
 17 26  1  0  0  0  0
 18 19  1  0  0  0  0
 18 21  1  0  0  0  0
 18 27  1  0  0  0  0
 19 20  2  0  0  0  0
 19 32  1  0  0  0  0
 21 22  1  0  0  0  0
 21 28  1  0  0  0  0
 21 29  1  0  0  0  0
 22 23  1  0  0  0  0
 22 30  1  0  0  0  0
 22 31  1  0  0  0  0
 23 24  1  0  0  0  0
 23 25  2  0  0  0  0
 32 33  1  0  0  0  0
 32 37  1  0  0  0  0
 33 34  1  0  0  0  0
 33 36  1  0  0  0  0
 33 38  1  0  0  0  0
 34 35  2  0  0  0  0
 34 42  1  0  0  0  0
 36 39  1  0  0  0  0
 36 40  1  0  0  0  0
 36 41  1  0  0  0  0
 42 43  1  0  0  0  0
 42 44  1  0  0  0  0
 43 45  1  0  0  0  0
 43 46  1  0  0  0  0
 43 47  1  0  0  0  0
M  CHG  1  24  -1
M  END
$$$$

  -OEChem-05262216243D

 47 46  0     1  0  0  0  0  0999 V2000
    0.3483   -5.7855    1.4212 C   0  0  0  0  0  0  0  0  0  0  0  0
    1.1827   -5.6987    2.3088 O   0  0  0  0  0  0  0  0  0  0  0  0
   -0.5771   -6.9871    1.3652 C   0  0  0  0  0  0  0  0  0  0  0  0
   -0.4560   -7.5064    0.4113 H   0  0  0  0  0  0  0  0  0  0  0  0
   -0.3447   -7.6819    2.1770 H   0  0  0  0  0  0  0  0  0  0  0  0
   -1.6156   -6.6618    1.4651 H   0  0  0  0  0  0  0  0  0  0  0  0
    0.2330   -4.7973    0.4684 N   0  0  0  0  0  0  0  0  0  0  0  0
    0.9154   -3.4978    0.5233 C   0  0  2  0  0  0  0  0  0  0  0  0
    0.0587   -2.3973   -0.1438 C   0  0  0  0  0  0  0  0  0  0  0  0
   -0.9916   -2.7173   -0.6851 O   0  0  0  0  0  0  0  0  0  0  0  0
    2.2770   -3.6293   -0.1684 C   0  0  0  0  0  0  0  0  0  0  0  0
   -0.5810   -4.8389   -0.1455 H   0  0  0  0  0  0  0  0  0  0  0  0
    1.0682   -3.2046    1.5674 H   0  0  0  0  0  0  0  0  0  0  0  0
    2.1461   -3.8890   -1.2236 H   0  0  0  0  0  0  0  0  0  0  0  0
    2.8343   -2.6891   -0.1072 H   0  0  0  0  0  0  0  0  0  0  0  0
    2.8724   -4.4119    0.3125 H   0  0  0  0  0  0  0  0  0  0  0  0
    0.4976   -1.0850   -0.1191 N   0  0  0  0  0  0  0  0  0  0  0  0
   -0.1681    0.1334   -0.6245 C   0  0  2  0  0  0  0  0  0  0  0  0
   -1.1183   -0.0208   -1.8438 C   0  0  0  0  0  0  0  0  0  0  0  0
   -2.3184   -0.1947   -1.6584 O   0  0  0  0  0  0  0  0  0  0  0  0
    0.9590    1.1439   -0.9115 C   0  0  0  0  0  0  0  0  0  0  0  0
    1.6589    1.6004    0.3806 C   0  0  0  0  0  0  0  0  0  0  0  0
    2.7829    2.5786    0.0540 C   0  0  0  0  0  0  0  0  0  0  0  0
    2.5625    3.8041    0.2044 O   0  5  0  0  0  0  0  0  0  0  0  0
    3.8470    2.0863   -0.3945 O   0  0  0  0  0  0  0  0  0  0  0  0
    1.3930   -0.9334    0.3396 H   0  0  0  0  0  0  0  0  0  0  0  0
   -0.7924    0.5357    0.1800 H   0  0  0  0  0  0  0  0  0  0  0  0
    0.5417    2.0324   -1.3993 H   0  0  0  0  0  0  0  0  0  0  0  0
    1.6950    0.7025   -1.5936 H   0  0  0  0  0  0  0  0  0  0  0  0
    0.9352    2.0840    1.0434 H   0  0  0  0  0  0  0  0  0  0  0  0
    2.0848    0.7492    0.9182 H   0  0  0  0  0  0  0  0  0  0  0  0
   -0.7306    0.3914   -3.1087 N   0  0  0  0  0  0  0  0  0  0  0  0
   -1.5850    0.3271   -4.3017 C   0  0  2  0  0  0  0  0  0  0  0  0
   -0.8820   -0.3474   -5.4971 C   0  0  0  0  0  0  0  0  0  0  0  0
    0.3412   -0.3945   -5.5658 O   0  0  0  0  0  0  0  0  0  0  0  0
   -1.9961    1.7565   -4.6599 C   0  0  0  0  0  0  0  0  0  0  0  0
    0.2721    0.4853   -3.2644 H   0  0  0  0  0  0  0  0  0  0  0  0
   -2.4852   -0.2587   -4.0903 H   0  0  0  0  0  0  0  0  0  0  0  0
   -1.1141    2.3595   -4.8995 H   0  0  0  0  0  0  0  0  0  0  0  0
   -2.6660    1.7577   -5.5249 H   0  0  0  0  0  0  0  0  0  0  0  0
   -2.5178    2.2206   -3.8167 H   0  0  0  0  0  0  0  0  0  0  0  0
   -1.6373   -0.8861   -6.5236 N   0  0  0  0  0  0  0  0  0  0  0  0
   -1.0568   -1.5626   -7.6759 C   0  0  0  0  0  0  0  0  0  0  0  0
   -2.6468   -0.8773   -6.4122 H   0  0  0  0  0  0  0  0  0  0  0  0
   -0.3805   -0.8905   -8.2144 H   0  0  0  0  0  0  0  0  0  0  0  0
   -0.4960   -2.4474   -7.3573 H   0  0  0  0  0  0  0  0  0  0  0  0
   -1.8466   -1.8806   -8.3631 H   0  0  0  0  0  0  0  0  0  0  0  0
  1  2  2  0  0  0  0
  1  3  1  0  0  0  0
  1  7  1  0  0  0  0
  3  4  1  0  0  0  0
  3  5  1  0  0  0  0
  3  6  1  0  0  0  0
  7  8  1  0  0  0  0
  7 12  1  0  0  0  0
  8  9  1  0  0  0  0
  8 11  1  0  0  0  0
  8 13  1  0  0  0  0
  9 10  2  0  0  0  0
  9 17  1  0  0  0  0
 11 14  1  0  0  0  0
 11 15  1  0  0  0  0
 11 16  1  0  0  0  0
 17 18  1  0  0  0  0
 17 26  1  0  0  0  0
 18 19  1  0  0  0  0
 18 21  1  0  0  0  0
 18 27  1  0  0  0  0
 19 20  2  0  0  0  0
 19 32  1  0  0  0  0
 21 22  1  0  0  0  0
 21 28  1  0  0  0  0
 21 29  1  0  0  0  0
 22 23  1  0  0  0  0
 22 30  1  0  0  0  0
 22 31  1  0  0  0  0
 23 24  1  0  0  0  0
 23 25  2  0  0  0  0
 32 33  1  0  0  0  0
 32 37  1  0  0  0  0
 33 34  1  0  0  0  0
 33 36  1  0  0  0  0
 33 38  1  0  0  0  0
 34 35  2  0  0  0  0
 34 42  1  0  0  0  0
 36 39  1  0  0  0  0
 36 40  1  0  0  0  0
 36 41  1  0  0  0  0
 42 43  1  0  0  0  0
 42 44  1  0  0  0  0
 43 45  1  0  0  0  0
 43 46  1  0  0  0  0
 43 47  1  0  0  0  0
M  CHG  1  24  -1
M  END
$$$$

  -OEChem-05262216243D

 47 46  0     1  0  0  0  0  0999 V2000
    0.3748   -5.7461    1.5058 C   0  0  0  0  0  0  0  0  0  0  0  0
    1.2660   -5.6560    2.3359 O   0  0  0  0  0  0  0  0  0  0  0  0
   -0.5696   -6.9341    1.5326 C   0  0  0  0  0  0  0  0  0  0  0  0
   -0.5092   -7.4781    0.5868 H   0  0  0  0  0  0  0  0  0  0  0  0
   -0.3024   -7.6122    2.3479 H   0  0  0  0  0  0  0  0  0  0  0  0
   -1.5962   -6.5903    1.6819 H   0  0  0  0  0  0  0  0  0  0  0  0
    0.2137   -4.7738    0.5433 N   0  0  0  0  0  0  0  0  0  0  0  0
    0.9245   -3.4889    0.5248 C   0  0  2  0  0  0  0  0  0  0  0  0
    0.0487   -2.3819   -0.1036 C   0  0  0  0  0  0  0  0  0  0  0  0
   -1.0322   -2.6869   -0.5927 O   0  0  0  0  0  0  0  0  0  0  0  0
    2.2289   -3.6634   -0.2605 C   0  0  0  0  0  0  0  0  0  0  0  0
   -0.6329   -4.8177   -0.0242 H   0  0  0  0  0  0  0  0  0  0  0  0
    1.1582   -3.1794    1.5493 H   0  0  0  0  0  0  0  0  0  0  0  0
    2.0170   -3.9517   -1.2951 H   0  0  0  0  0  0  0  0  0  0  0  0
    2.8022   -2.7314   -0.2692 H   0  0  0  0  0  0  0  0  0  0  0  0
    2.8471   -4.4410    0.1991 H   0  0  0  0  0  0  0  0  0  0  0  0
    0.4969   -1.0731   -0.0960 N   0  0  0  0  0  0  0  0  0  0  0  0
   -0.1655    0.1291   -0.6386 C   0  0  2  0  0  0  0  0  0  0  0  0
   -1.0927   -0.0742   -1.8642 C   0  0  0  0  0  0  0  0  0  0  0  0
   -2.3107   -0.0429   -1.7204 O   0  0  0  0  0  0  0  0  0  0  0  0
    0.9544    1.1357   -0.9592 C   0  0  0  0  0  0  0  0  0  0  0  0
    1.6534    1.6361    0.3177 C   0  0  0  0  0  0  0  0  0  0  0  0
    2.7755    2.6121   -0.0280 C   0  0  0  0  0  0  0  0  0  0  0  0
    2.6391    3.8138    0.3047 O   0  5  0  0  0  0  0  0  0  0  0  0
    3.7589    2.1445   -0.6536 O   0  0  0  0  0  0  0  0  0  0  0  0
    1.4106   -0.9206    0.3249 H   0  0  0  0  0  0  0  0  0  0  0  0
   -0.7992    0.5535    0.1469 H   0  0  0  0  0  0  0  0  0  0  0  0
    0.5304    2.0016   -1.4803 H   0  0  0  0  0  0  0  0  0  0  0  0
    1.6928    0.6762   -1.6263 H   0  0  0  0  0  0  0  0  0  0  0  0
    0.9241    2.1328    0.9648 H   0  0  0  0  0  0  0  0  0  0  0  0
    2.0834    0.8031    0.8795 H   0  0  0  0  0  0  0  0  0  0  0  0
   -0.5911    0.0084   -3.1519 N   0  0  0  0  0  0  0  0  0  0  0  0
   -1.3989   -0.1617   -4.3655 C   0  0  2  0  0  0  0  0  0  0  0  0
   -0.7131   -1.0695   -5.4074 C   0  0  0  0  0  0  0  0  0  0  0  0
    0.4924   -1.2884   -5.3566 O   0  0  0  0  0  0  0  0  0  0  0  0
   -1.6621    1.2283   -4.9493 C   0  0  0  0  0  0  0  0  0  0  0  0
    0.4184   -0.0891   -3.2512 H   0  0  0  0  0  0  0  0  0  0  0  0
   -2.3555   -0.6314   -4.1149 H   0  0  0  0  0  0  0  0  0  0  0  0
   -0.7193    1.7148   -5.2188 H   0  0  0  0  0  0  0  0  0  0  0  0
   -2.2877    1.1574   -5.8438 H   0  0  0  0  0  0  0  0  0  0  0  0
   -2.1789    1.8538   -4.2143 H   0  0  0  0  0  0  0  0  0  0  0  0
   -1.4587   -1.6386   -6.4251 N   0  0  0  0  0  0  0  0  0  0  0  0
   -0.8923   -2.5219   -7.4359 C   0  0  0  0  0  0  0  0  0  0  0  0
   -2.4608   -1.4739   -6.4172 H   0  0  0  0  0  0  0  0  0  0  0  0
   -0.1053   -2.0064   -7.9963 H   0  0  0  0  0  0  0  0  0  0  0  0
   -0.4656   -3.4148   -6.9670 H   0  0  0  0  0  0  0  0  0  0  0  0
   -1.6680   -2.8369   -8.1403 H   0  0  0  0  0  0  0  0  0  0  0  0
  1  2  2  0  0  0  0
  1  3  1  0  0  0  0
  1  7  1  0  0  0  0
  3  4  1  0  0  0  0
  3  5  1  0  0  0  0
  3  6  1  0  0  0  0
  7  8  1  0  0  0  0
  7 12  1  0  0  0  0
  8  9  1  0  0  0  0
  8 11  1  0  0  0  0
  8 13  1  0  0  0  0
  9 10  2  0  0  0  0
  9 17  1  0  0  0  0
 11 14  1  0  0  0  0
 11 15  1  0  0  0  0
 11 16  1  0  0  0  0
 17 18  1  0  0  0  0
 17 26  1  0  0  0  0
 18 19  1  0  0  0  0
 18 21  1  0  0  0  0
 18 27  1  0  0  0  0
 19 20  2  0  0  0  0
 19 32  1  0  0  0  0
 21 22  1  0  0  0  0
 21 28  1  0  0  0  0
 21 29  1  0  0  0  0
 22 23  1  0  0  0  0
 22 30  1  0  0  0  0
 22 31  1  0  0  0  0
 23 24  1  0  0  0  0
 23 25  2  0  0  0  0
 32 33  1  0  0  0  0
 32 37  1  0  0  0  0
 33 34  1  0  0  0  0
 33 36  1  0  0  0  0
 33 38  1  0  0  0  0
 34 35  2  0  0  0  0
 34 42  1  0  0  0  0
 36 39  1  0  0  0  0
 36 40  1  0  0  0  0
 36 41  1  0  0  0  0
 42 43  1  0  0  0  0
 42 44  1  0  0  0  0
 43 45  1  0  0  0  0
 43 46  1  0  0  0  0
 43 47  1  0  0  0  0
M  CHG  1  24  -1
M  END
$$$$

  -OEChem-05262216243D

 47 46  0     1  0  0  0  0  0999 V2000
    0.5543   -5.9111    0.5736 C   0  0  0  0  0  0  0  0  0  0  0  0
    1.3717   -5.8804    1.4801 O   0  0  0  0  0  0  0  0  0  0  0  0
   -0.2599   -7.1682    0.3273 C   0  0  0  0  0  0  0  0  0  0  0  0
   -0.1232   -7.5060   -0.7029 H   0  0  0  0  0  0  0  0  0  0  0  0
    0.0613   -7.9650    1.0038 H   0  0  0  0  0  0  0  0  0  0  0  0
   -1.3198   -6.9648    0.4987 H   0  0  0  0  0  0  0  0  0  0  0  0
    0.3579   -4.8065   -0.2264 N   0  0  0  0  0  0  0  0  0  0  0  0
    0.9500   -3.4835    0.0119 C   0  0  2  0  0  0  0  0  0  0  0  0
    0.0416   -2.3621   -0.5385 C   0  0  0  0  0  0  0  0  0  0  0  0
   -0.9612   -2.6648   -1.1751 O   0  0  0  0  0  0  0  0  0  0  0  0
    2.3301   -3.4370   -0.6537 C   0  0  0  0  0  0  0  0  0  0  0  0
   -0.4335   -4.8323   -0.8692 H   0  0  0  0  0  0  0  0  0  0  0  0
    1.0621   -3.3172    1.0887 H   0  0  0  0  0  0  0  0  0  0  0  0
    2.2383   -3.5835   -1.7346 H   0  0  0  0  0  0  0  0  0  0  0  0
    2.8145   -2.4725   -0.4719 H   0  0  0  0  0  0  0  0  0  0  0  0
    2.9739   -4.2240   -0.2484 H   0  0  0  0  0  0  0  0  0  0  0  0
    0.3772   -1.0369   -0.3232 N   0  0  0  0  0  0  0  0  0  0  0  0
   -0.3185    0.1721   -0.8079 C   0  0  2  0  0  0  0  0  0  0  0  0
   -1.0649    0.0314   -2.1558 C   0  0  0  0  0  0  0  0  0  0  0  0
   -2.2883    0.0059   -2.1955 O   0  0  0  0  0  0  0  0  0  0  0  0
    0.7558    1.2663   -0.9211 C   0  0  0  0  0  0  0  0  0  0  0  0
    1.3083    1.6762    0.4543 C   0  0  0  0  0  0  0  0  0  0  0  0
    2.3865    2.7420    0.2829 C   0  0  0  0  0  0  0  0  0  0  0  0
    3.4651    2.3668   -0.2400 O   0  5  0  0  0  0  0  0  0  0  0  0
    2.1267    3.9159    0.6375 O   0  0  0  0  0  0  0  0  0  0  0  0
    1.2251   -0.8745    0.2160 H   0  0  0  0  0  0  0  0  0  0  0  0
   -1.0640    0.4751   -0.0653 H   0  0  0  0  0  0  0  0  0  0  0  0
    0.3221    2.1543   -1.3957 H   0  0  0  0  0  0  0  0  0  0  0  0
    1.5796    0.9216   -1.5559 H   0  0  0  0  0  0  0  0  0  0  0  0
    0.4994    2.0666    1.0796 H   0  0  0  0  0  0  0  0  0  0  0  0
    1.7471    0.8181    0.9699 H   0  0  0  0  0  0  0  0  0  0  0  0
   -0.3637   -0.0073   -3.3478 N   0  0  0  0  0  0  0  0  0  0  0  0
   -0.9878   -0.1575   -4.6713 C   0  0  2  0  0  0  0  0  0  0  0  0
   -1.2711   -1.6343   -5.0487 C   0  0  0  0  0  0  0  0  0  0  0  0
   -1.1998   -2.0137   -6.2139 O   0  0  0  0  0  0  0  0  0  0  0  0
   -0.0668    0.5426   -5.6780 C   0  0  0  0  0  0  0  0  0  0  0  0
    0.6500   -0.0105   -3.2811 H   0  0  0  0  0  0  0  0  0  0  0  0
   -1.9511    0.3634   -4.6809 H   0  0  0  0  0  0  0  0  0  0  0  0
    0.8969    0.0273   -5.7408 H   0  0  0  0  0  0  0  0  0  0  0  0
   -0.5236    0.5477   -6.6728 H   0  0  0  0  0  0  0  0  0  0  0  0
    0.1086    1.5800   -5.3763 H   0  0  0  0  0  0  0  0  0  0  0  0
   -1.5968   -2.5594   -4.0743 N   0  0  0  0  0  0  0  0  0  0  0  0
   -1.8865   -3.9598   -4.3388 C   0  0  0  0  0  0  0  0  0  0  0  0
   -1.6505   -2.2217   -3.1079 H   0  0  0  0  0  0  0  0  0  0  0  0
   -2.7325   -4.0534   -5.0273 H   0  0  0  0  0  0  0  0  0  0  0  0
   -1.0141   -4.4547   -4.7773 H   0  0  0  0  0  0  0  0  0  0  0  0
   -2.1427   -4.4692   -3.4049 H   0  0  0  0  0  0  0  0  0  0  0  0
  1  2  2  0  0  0  0
  1  3  1  0  0  0  0
  1  7  1  0  0  0  0
  3  4  1  0  0  0  0
  3  5  1  0  0  0  0
  3  6  1  0  0  0  0
  7  8  1  0  0  0  0
  7 12  1  0  0  0  0
  8  9  1  0  0  0  0
  8 11  1  0  0  0  0
  8 13  1  0  0  0  0
  9 10  2  0  0  0  0
  9 17  1  0  0  0  0
 11 14  1  0  0  0  0
 11 15  1  0  0  0  0
 11 16  1  0  0  0  0
 17 18  1  0  0  0  0
 17 26  1  0  0  0  0
 18 19  1  0  0  0  0
 18 21  1  0  0  0  0
 18 27  1  0  0  0  0
 19 20  2  0  0  0  0
 19 32  1  0  0  0  0
 21 22  1  0  0  0  0
 21 28  1  0  0  0  0
 21 29  1  0  0  0  0
 22 23  1  0  0  0  0
 22 30  1  0  0  0  0
 22 31  1  0  0  0  0
 23 24  1  0  0  0  0
 23 25  2  0  0  0  0
 32 33  1  0  0  0  0
 32 37  1  0  0  0  0
 33 34  1  0  0  0  0
 33 36  1  0  0  0  0
 33 38  1  0  0  0  0
 34 35  2  0  0  0  0
 34 42  1  0  0  0  0
 36 39  1  0  0  0  0
 36 40  1  0  0  0  0
 36 41  1  0  0  0  0
 42 43  1  0  0  0  0
 42 44  1  0  0  0  0
 43 45  1  0  0  0  0
 43 46  1  0  0  0  0
 43 47  1  0  0  0  0
M  CHG  1  24  -1
M  END
$$$$

  -OEChem-05262216243D

 47 46  0     1  0  0  0  0  0999 V2000
    0.6714   -5.9525    0.7535 C   0  0  0  0  0  0  0  0  0  0  0  0
    1.4520   -5.8766    1.6892 O   0  0  0  0  0  0  0  0  0  0  0  0
   -0.0949   -7.2391    0.5055 C   0  0  0  0  0  0  0  0  0  0  0  0
    0.1027   -7.6025   -0.5061 H   0  0  0  0  0  0  0  0  0  0  0  0
    0.2132   -8.0061    1.2216 H   0  0  0  0  0  0  0  0  0  0  0  0
   -1.1674   -7.0617    0.6176 H   0  0  0  0  0  0  0  0  0  0  0  0
    0.4731   -4.8723   -0.0789 N   0  0  0  0  0  0  0  0  0  0  0  0
    1.0138   -3.5263    0.1549 C   0  0  2  0  0  0  0  0  0  0  0  0
    0.0893   -2.4447   -0.4464 C   0  0  0  0  0  0  0  0  0  0  0  0
   -0.9098   -2.7871   -1.0693 O   0  0  0  0  0  0  0  0  0  0  0  0
    2.4162   -3.4478   -0.4593 C   0  0  0  0  0  0  0  0  0  0  0  0
   -0.2959   -4.9364   -0.7455 H   0  0  0  0  0  0  0  0  0  0  0  0
    1.0813   -3.3370    1.2319 H   0  0  0  0  0  0  0  0  0  0  0  0
    2.3700   -3.6068   -1.5414 H   0  0  0  0  0  0  0  0  0  0  0  0
    2.8681   -2.4693   -0.2687 H   0  0  0  0  0  0  0  0  0  0  0  0
    3.0648   -4.2135   -0.0221 H   0  0  0  0  0  0  0  0  0  0  0  0
    0.3979   -1.1060   -0.2854 N   0  0  0  0  0  0  0  0  0  0  0  0
   -0.3275    0.0660   -0.8156 C   0  0  2  0  0  0  0  0  0  0  0  0
   -1.0781   -0.1381   -2.1526 C   0  0  0  0  0  0  0  0  0  0  0  0
   -2.2804    0.0751   -2.2352 O   0  0  0  0  0  0  0  0  0  0  0  0
    0.7306    1.1647   -1.0031 C   0  0  0  0  0  0  0  0  0  0  0  0
    1.3049    1.6493    0.3392 C   0  0  0  0  0  0  0  0  0  0  0  0
    2.3675    2.7176    0.0972 C   0  0  0  0  0  0  0  0  0  0  0  0
    3.4390    2.3296   -0.4314 O   0  5  0  0  0  0  0  0  0  0  0  0
    2.1087    3.9015    0.4178 O   0  0  0  0  0  0  0  0  0  0  0  0
    1.2405   -0.9025    0.2485 H   0  0  0  0  0  0  0  0  0  0  0  0
   -1.0678    0.3926   -0.0779 H   0  0  0  0  0  0  0  0  0  0  0  0
    0.2758    2.0230   -1.5114 H   0  0  0  0  0  0  0  0  0  0  0  0
    1.5442    0.7990   -1.6398 H   0  0  0  0  0  0  0  0  0  0  0  0
    0.5028    2.0611    0.9591 H   0  0  0  0  0  0  0  0  0  0  0  0
    1.7637    0.8232    0.8887 H   0  0  0  0  0  0  0  0  0  0  0  0
   -0.3833   -0.5107   -3.2896 N   0  0  0  0  0  0  0  0  0  0  0  0
   -0.9857   -0.6685   -4.6223 C   0  0  2  0  0  0  0  0  0  0  0  0
   -1.5424   -2.0887   -4.8928 C   0  0  0  0  0  0  0  0  0  0  0  0
   -1.7274   -2.4768   -6.0425 O   0  0  0  0  0  0  0  0  0  0  0  0
    0.0904   -0.2693   -5.6385 C   0  0  0  0  0  0  0  0  0  0  0  0
    0.6103   -0.6860   -3.1768 H   0  0  0  0  0  0  0  0  0  0  0  0
   -1.8253    0.0267   -4.7281 H   0  0  0  0  0  0  0  0  0  0  0  0
    0.9314   -0.9688   -5.6015 H   0  0  0  0  0  0  0  0  0  0  0  0
   -0.3211   -0.2738   -6.6528 H   0  0  0  0  0  0  0  0  0  0  0  0
    0.4610    0.7383   -5.4245 H   0  0  0  0  0  0  0  0  0  0  0  0
   -1.8075   -2.9607   -3.8529 N   0  0  0  0  0  0  0  0  0  0  0  0
   -2.3789   -4.2866   -4.0277 C   0  0  0  0  0  0  0  0  0  0  0  0
   -1.6679   -2.6071   -2.9011 H   0  0  0  0  0  0  0  0  0  0  0  0
   -3.3577   -4.2202   -4.5136 H   0  0  0  0  0  0  0  0  0  0  0  0
   -1.7197   -4.9097   -4.6403 H   0  0  0  0  0  0  0  0  0  0  0  0
   -2.5069   -4.7685   -3.0540 H   0  0  0  0  0  0  0  0  0  0  0  0
  1  2  2  0  0  0  0
  1  3  1  0  0  0  0
  1  7  1  0  0  0  0
  3  4  1  0  0  0  0
  3  5  1  0  0  0  0
  3  6  1  0  0  0  0
  7  8  1  0  0  0  0
  7 12  1  0  0  0  0
  8  9  1  0  0  0  0
  8 11  1  0  0  0  0
  8 13  1  0  0  0  0
  9 10  2  0  0  0  0
  9 17  1  0  0  0  0
 11 14  1  0  0  0  0
 11 15  1  0  0  0  0
 11 16  1  0  0  0  0
 17 18  1  0  0  0  0
 17 26  1  0  0  0  0
 18 19  1  0  0  0  0
 18 21  1  0  0  0  0
 18 27  1  0  0  0  0
 19 20  2  0  0  0  0
 19 32  1  0  0  0  0
 21 22  1  0  0  0  0
 21 28  1  0  0  0  0
 21 29  1  0  0  0  0
 22 23  1  0  0  0  0
 22 30  1  0  0  0  0
 22 31  1  0  0  0  0
 23 24  1  0  0  0  0
 23 25  2  0  0  0  0
 32 33  1  0  0  0  0
 32 37  1  0  0  0  0
 33 34  1  0  0  0  0
 33 36  1  0  0  0  0
 33 38  1  0  0  0  0
 34 35  2  0  0  0  0
 34 42  1  0  0  0  0
 36 39  1  0  0  0  0
 36 40  1  0  0  0  0
 36 41  1  0  0  0  0
 42 43  1  0  0  0  0
 42 44  1  0  0  0  0
 43 45  1  0  0  0  0
 43 46  1  0  0  0  0
 43 47  1  0  0  0  0
M  CHG  1  24  -1
M  END
$$$$

  -OEChem-05262216243D

 47 46  0     1  0  0  0  0  0999 V2000
    0.8314   -5.8490   -0.5534 C   0  0  0  0  0  0  0  0  0  0  0  0
    1.4909   -6.1822    0.4207 O   0  0  0  0  0  0  0  0  0  0  0  0
    0.2974   -6.9007   -1.5075 C   0  0  0  0  0  0  0  0  0  0  0  0
    0.6751   -6.7125   -2.5157 H   0  0  0  0  0  0  0  0  0  0  0  0
    0.6133   -7.8981   -1.1904 H   0  0  0  0  0  0  0  0  0  0  0  0
   -0.7947   -6.8631   -1.5280 H   0  0  0  0  0  0  0  0  0  0  0  0
    0.5646   -4.5201   -0.7950 N   0  0  0  0  0  0  0  0  0  0  0  0
    0.8602   -3.4266    0.1457 C   0  0  2  0  0  0  0  0  0  0  0  0
   -0.1534   -2.2722   -0.0224 C   0  0  0  0  0  0  0  0  0  0  0  0
   -1.3102   -2.5361   -0.3166 O   0  0  0  0  0  0  0  0  0  0  0  0
    2.3105   -2.9759   -0.0826 C   0  0  0  0  0  0  0  0  0  0  0  0
   -0.1157   -4.3387   -1.5409 H   0  0  0  0  0  0  0  0  0  0  0  0
    0.7602   -3.7879    1.1748 H   0  0  0  0  0  0  0  0  0  0  0  0
    2.4361   -2.5774   -1.0942 H   0  0  0  0  0  0  0  0  0  0  0  0
    2.5961   -2.2046    0.6394 H   0  0  0  0  0  0  0  0  0  0  0  0
    2.9928   -3.8228    0.0422 H   0  0  0  0  0  0  0  0  0  0  0  0
    0.2315   -0.9416    0.0112 N   0  0  0  0  0  0  0  0  0  0  0  0
   -0.3672    0.1192   -0.8293 C   0  0  2  0  0  0  0  0  0  0  0  0
   -0.8881   -0.3668   -2.2046 C   0  0  0  0  0  0  0  0  0  0  0  0
   -2.0151   -0.0987   -2.6076 O   0  0  0  0  0  0  0  0  0  0  0  0
    0.7354    1.1608   -1.0672 C   0  0  0  0  0  0  0  0  0  0  0  0
    1.1293    1.8905    0.2274 C   0  0  0  0  0  0  0  0  0  0  0  0
    2.2438    2.8921   -0.0594 C   0  0  0  0  0  0  0  0  0  0  0  0
    3.3735    2.4089   -0.3216 O   0  5  0  0  0  0  0  0  0  0  0  0
    1.9676    4.1150   -0.0485 O   0  0  0  0  0  0  0  0  0  0  0  0
    1.1876   -0.7686    0.3141 H   0  0  0  0  0  0  0  0  0  0  0  0
   -1.2064    0.5788   -0.2971 H   0  0  0  0  0  0  0  0  0  0  0  0
    0.3792    1.9062   -1.7874 H   0  0  0  0  0  0  0  0  0  0  0  0
    1.6190    0.6810   -1.5026 H   0  0  0  0  0  0  0  0  0  0  0  0
    0.2609    2.4134    0.6397 H   0  0  0  0  0  0  0  0  0  0  0  0
    1.4830    1.1816    0.9811 H   0  0  0  0  0  0  0  0  0  0  0  0
   -0.0935   -1.2158   -2.9572 N   0  0  0  0  0  0  0  0  0  0  0  0
   -0.6081   -2.0404   -4.0534 C   0  0  2  0  0  0  0  0  0  0  0  0
   -1.4538   -3.2189   -3.5171 C   0  0  0  0  0  0  0  0  0  0  0  0
   -0.9663   -4.3376   -3.3629 O   0  0  0  0  0  0  0  0  0  0  0  0
    0.5921   -2.5053   -4.8857 C   0  0  0  0  0  0  0  0  0  0  0  0
    0.7787   -1.4970   -2.5214 H   0  0  0  0  0  0  0  0  0  0  0  0
   -1.2516   -1.4347   -4.7005 H   0  0  0  0  0  0  0  0  0  0  0  0
    1.2807   -3.0986   -4.2755 H   0  0  0  0  0  0  0  0  0  0  0  0
    0.2543   -3.1202   -5.7256 H   0  0  0  0  0  0  0  0  0  0  0  0
    1.1345   -1.6421   -5.2837 H   0  0  0  0  0  0  0  0  0  0  0  0
   -2.7594   -2.9802   -3.1392 N   0  0  0  0  0  0  0  0  0  0  0  0
   -3.5557   -3.9586   -2.4118 C   0  0  0  0  0  0  0  0  0  0  0  0
   -2.9710   -1.9904   -2.9860 H   0  0  0  0  0  0  0  0  0  0  0  0
   -3.6876   -4.8661   -3.0095 H   0  0  0  0  0  0  0  0  0  0  0  0
   -3.0714   -4.2253   -1.4670 H   0  0  0  0  0  0  0  0  0  0  0  0
   -4.5438   -3.5452   -2.1890 H   0  0  0  0  0  0  0  0  0  0  0  0
  1  2  2  0  0  0  0
  1  3  1  0  0  0  0
  1  7  1  0  0  0  0
  3  4  1  0  0  0  0
  3  5  1  0  0  0  0
  3  6  1  0  0  0  0
  7  8  1  0  0  0  0
  7 12  1  0  0  0  0
  8  9  1  0  0  0  0
  8 11  1  0  0  0  0
  8 13  1  0  0  0  0
  9 10  2  0  0  0  0
  9 17  1  0  0  0  0
 11 14  1  0  0  0  0
 11 15  1  0  0  0  0
 11 16  1  0  0  0  0
 17 18  1  0  0  0  0
 17 26  1  0  0  0  0
 18 19  1  0  0  0  0
 18 21  1  0  0  0  0
 18 27  1  0  0  0  0
 19 20  2  0  0  0  0
 19 32  1  0  0  0  0
 21 22  1  0  0  0  0
 21 28  1  0  0  0  0
 21 29  1  0  0  0  0
 22 23  1  0  0  0  0
 22 30  1  0  0  0  0
 22 31  1  0  0  0  0
 23 24  1  0  0  0  0
 23 25  2  0  0  0  0
 32 33  1  0  0  0  0
 32 37  1  0  0  0  0
 33 34  1  0  0  0  0
 33 36  1  0  0  0  0
 33 38  1  0  0  0  0
 34 35  2  0  0  0  0
 34 42  1  0  0  0  0
 36 39  1  0  0  0  0
 36 40  1  0  0  0  0
 36 41  1  0  0  0  0
 42 43  1  0  0  0  0
 42 44  1  0  0  0  0
 43 45  1  0  0  0  0
 43 46  1  0  0  0  0
 43 47  1  0  0  0  0
M  CHG  1  24  -1
M  END
$$$$

  -OEChem-05262216243D

 47 46  0     1  0  0  0  0  0999 V2000
    0.8320   -5.9473   -0.3639 C   0  0  0  0  0  0  0  0  0  0  0  0
    1.6257   -6.2235    0.5239 O   0  0  0  0  0  0  0  0  0  0  0  0
    0.1882   -7.0521   -1.1806 C   0  0  0  0  0  0  0  0  0  0  0  0
    0.4400   -6.9279   -2.2369 H   0  0  0  0  0  0  0  0  0  0  0  0
    0.5417   -8.0303   -0.8439 H   0  0  0  0  0  0  0  0  0  0  0  0
   -0.8984   -7.0104   -1.0709 H   0  0  0  0  0  0  0  0  0  0  0  0
    0.5083   -4.6350   -0.6272 N   0  0  0  0  0  0  0  0  0  0  0  0
    0.8900   -3.4989    0.2290 C   0  0  2  0  0  0  0  0  0  0  0  0
   -0.1433   -2.3587    0.0945 C   0  0  0  0  0  0  0  0  0  0  0  0
   -1.3039   -2.6374   -0.1728 O   0  0  0  0  0  0  0  0  0  0  0  0
    2.3082   -3.0517   -0.1553 C   0  0  0  0  0  0  0  0  0  0  0  0
   -0.2919   -4.5037   -1.2565 H   0  0  0  0  0  0  0  0  0  0  0  0
    0.8892   -3.8102    1.2792 H   0  0  0  0  0  0  0  0  0  0  0  0
    2.3382   -2.7069   -1.1935 H   0  0  0  0  0  0  0  0  0  0  0  0
    2.6491   -2.2406    0.4959 H   0  0  0  0  0  0  0  0  0  0  0  0
    3.0093   -3.8855   -0.0484 H   0  0  0  0  0  0  0  0  0  0  0  0
    0.2128   -1.0207    0.0963 N   0  0  0  0  0  0  0  0  0  0  0  0
   -0.3742   -0.0168   -0.8221 C   0  0  2  0  0  0  0  0  0  0  0  0
   -0.8234   -0.5430   -2.2122 C   0  0  0  0  0  0  0  0  0  0  0  0
   -1.8548   -0.1436   -2.7414 O   0  0  0  0  0  0  0  0  0  0  0  0
    0.7203    1.0355   -1.0497 C   0  0  0  0  0  0  0  0  0  0  0  0
    1.0329    1.8289    0.2298 C   0  0  0  0  0  0  0  0  0  0  0  0
    2.1424    2.8405   -0.0405 C   0  0  0  0  0  0  0  0  0  0  0  0
    3.2921    2.3700   -0.2288 O   0  5  0  0  0  0  0  0  0  0  0  0
    1.8458    4.0580   -0.0827 O   0  0  0  0  0  0  0  0  0  0  0  0
    1.1656   -0.8224    0.3950 H   0  0  0  0  0  0  0  0  0  0  0  0
   -1.2449    0.4458   -0.3457 H   0  0  0  0  0  0  0  0  0  0  0  0
    0.3878    1.7434   -1.8177 H   0  0  0  0  0  0  0  0  0  0  0  0
    1.6325    0.5551   -1.4211 H   0  0  0  0  0  0  0  0  0  0  0  0
    0.1343    2.3507    0.5725 H   0  0  0  0  0  0  0  0  0  0  0  0
    1.3590    1.1615    1.0318 H   0  0  0  0  0  0  0  0  0  0  0  0
   -0.1615   -1.6132   -2.7928 N   0  0  0  0  0  0  0  0  0  0  0  0
   -0.7328   -2.4552   -3.8458 C   0  0  2  0  0  0  0  0  0  0  0  0
   -1.7400   -3.4616   -3.2469 C   0  0  0  0  0  0  0  0  0  0  0  0
   -1.4060   -4.6161   -2.9846 O   0  0  0  0  0  0  0  0  0  0  0  0
    0.4294   -3.1387   -4.5752 C   0  0  0  0  0  0  0  0  0  0  0  0
    0.5913   -2.0063   -2.2387 H   0  0  0  0  0  0  0  0  0  0  0  0
   -1.2678   -1.8354   -4.5732 H   0  0  0  0  0  0  0  0  0  0  0  0
    1.0127   -3.7553   -3.8837 H   0  0  0  0  0  0  0  0  0  0  0  0
    0.0479   -3.7801   -5.3757 H   0  0  0  0  0  0  0  0  0  0  0  0
    1.0926   -2.3890   -5.0178 H   0  0  0  0  0  0  0  0  0  0  0  0
   -3.0037   -3.0126   -2.9203 N   0  0  0  0  0  0  0  0  0  0  0  0
   -3.9228   -3.7923   -2.1034 C   0  0  0  0  0  0  0  0  0  0  0  0
   -3.0886   -1.9937   -2.8887 H   0  0  0  0  0  0  0  0  0  0  0  0
   -4.1316   -4.7577   -2.5751 H   0  0  0  0  0  0  0  0  0  0  0  0
   -3.4992   -3.9686   -1.1094 H   0  0  0  0  0  0  0  0  0  0  0  0
   -4.8680   -3.2540   -1.9868 H   0  0  0  0  0  0  0  0  0  0  0  0
  1  2  2  0  0  0  0
  1  3  1  0  0  0  0
  1  7  1  0  0  0  0
  3  4  1  0  0  0  0
  3  5  1  0  0  0  0
  3  6  1  0  0  0  0
  7  8  1  0  0  0  0
  7 12  1  0  0  0  0
  8  9  1  0  0  0  0
  8 11  1  0  0  0  0
  8 13  1  0  0  0  0
  9 10  2  0  0  0  0
  9 17  1  0  0  0  0
 11 14  1  0  0  0  0
 11 15  1  0  0  0  0
 11 16  1  0  0  0  0
 17 18  1  0  0  0  0
 17 26  1  0  0  0  0
 18 19  1  0  0  0  0
 18 21  1  0  0  0  0
 18 27  1  0  0  0  0
 19 20  2  0  0  0  0
 19 32  1  0  0  0  0
 21 22  1  0  0  0  0
 21 28  1  0  0  0  0
 21 29  1  0  0  0  0
 22 23  1  0  0  0  0
 22 30  1  0  0  0  0
 22 31  1  0  0  0  0
 23 24  1  0  0  0  0
 23 25  2  0  0  0  0
 32 33  1  0  0  0  0
 32 37  1  0  0  0  0
 33 34  1  0  0  0  0
 33 36  1  0  0  0  0
 33 38  1  0  0  0  0
 34 35  2  0  0  0  0
 34 42  1  0  0  0  0
 36 39  1  0  0  0  0
 36 40  1  0  0  0  0
 36 41  1  0  0  0  0
 42 43  1  0  0  0  0
 42 44  1  0  0  0  0
 43 45  1  0  0  0  0
 43 46  1  0  0  0  0
 43 47  1  0  0  0  0
M  CHG  1  24  -1
M  END
$$$$

  -OEChem-05262216243D

 47 46  0     1  0  0  0  0  0999 V2000
    0.2899   -5.7821    0.8100 C   0  0  0  0  0  0  0  0  0  0  0  0
    0.8872   -5.9817    1.8579 O   0  0  0  0  0  0  0  0  0  0  0  0
   -0.4835   -6.9074    0.1476 C   0  0  0  0  0  0  0  0  0  0  0  0
   -0.0809   -7.0973   -0.8503 H   0  0  0  0  0  0  0  0  0  0  0  0
   -0.4078   -7.8220    0.7418 H   0  0  0  0  0  0  0  0  0  0  0  0
   -1.5366   -6.6294    0.0571 H   0  0  0  0  0  0  0  0  0  0  0  0
    0.3028   -4.5396    0.2178 N   0  0  0  0  0  0  0  0  0  0  0  0
    0.8146   -3.3155    0.8550 C   0  0  2  0  0  0  0  0  0  0  0  0
   -0.0699   -2.1006    0.4917 C   0  0  0  0  0  0  0  0  0  0  0  0
   -1.2716   -2.2628    0.3255 O   0  0  0  0  0  0  0  0  0  0  0  0
    2.2756   -3.1352    0.4209 C   0  0  0  0  0  0  0  0  0  0  0  0
   -0.3262   -4.4290   -0.5852 H   0  0  0  0  0  0  0  0  0  0  0  0
    0.7806   -3.4163    1.9452 H   0  0  0  0  0  0  0  0  0  0  0  0
    2.3400   -2.9816   -0.6613 H   0  0  0  0  0  0  0  0  0  0  0  0
    2.7285   -2.2766    0.9260 H   0  0  0  0  0  0  0  0  0  0  0  0
    2.8578   -4.0252    0.6799 H   0  0  0  0  0  0  0  0  0  0  0  0
    0.4726   -0.8579    0.2155 N   0  0  0  0  0  0  0  0  0  0  0  0
   -0.0710    0.1644   -0.7115 C   0  0  2  0  0  0  0  0  0  0  0  0
   -0.8805   -0.3144   -1.9511 C   0  0  0  0  0  0  0  0  0  0  0  0
   -1.5664    0.4773   -2.5873 O   0  0  0  0  0  0  0  0  0  0  0  0
    1.1604    0.9412   -1.2103 C   0  0  0  0  0  0  0  0  0  0  0  0
    1.8260    1.7487   -0.0805 C   0  0  0  0  0  0  0  0  0  0  0  0
    3.0576    2.4844   -0.6015 C   0  0  0  0  0  0  0  0  0  0  0  0
    4.0544    1.7744   -0.8862 O   0  5  0  0  0  0  0  0  0  0  0  0
    3.0087    3.7332   -0.7082 O   0  0  0  0  0  0  0  0  0  0  0  0
    1.4713   -0.7764    0.3955 H   0  0  0  0  0  0  0  0  0  0  0  0
   -0.7273    0.8360   -0.1491 H   0  0  0  0  0  0  0  0  0  0  0  0
    0.8569    1.6422   -1.9966 H   0  0  0  0  0  0  0  0  0  0  0  0
    1.8856    0.2493   -1.6538 H   0  0  0  0  0  0  0  0  0  0  0  0
    1.1122    2.4719    0.3257 H   0  0  0  0  0  0  0  0  0  0  0  0
    2.1370    1.0915    0.7359 H   0  0  0  0  0  0  0  0  0  0  0  0
   -0.8433   -1.6296   -2.3754 N   0  0  0  0  0  0  0  0  0  0  0  0
   -1.7781   -2.2263   -3.3295 C   0  0  2  0  0  0  0  0  0  0  0  0
   -2.0302   -3.7142   -2.9959 C   0  0  0  0  0  0  0  0  0  0  0  0
   -1.2556   -4.3454   -2.2770 O   0  0  0  0  0  0  0  0  0  0  0  0
   -1.1989   -2.0795   -4.7388 C   0  0  0  0  0  0  0  0  0  0  0  0
   -0.4744   -2.2718   -1.6779 H   0  0  0  0  0  0  0  0  0  0  0  0
   -2.7399   -1.7055   -3.2751 H   0  0  0  0  0  0  0  0  0  0  0  0
   -0.2347   -2.5926   -4.8109 H   0  0  0  0  0  0  0  0  0  0  0  0
   -1.8798   -2.5067   -5.4806 H   0  0  0  0  0  0  0  0  0  0  0  0
   -1.0482   -1.0217   -4.9767 H   0  0  0  0  0  0  0  0  0  0  0  0
   -3.1362   -4.3610   -3.5167 N   0  0  0  0  0  0  0  0  0  0  0  0
   -3.4694   -5.7472   -3.2173 C   0  0  0  0  0  0  0  0  0  0  0  0
   -3.7863   -3.8040   -4.0637 H   0  0  0  0  0  0  0  0  0  0  0  0
   -2.6510   -6.4107   -3.5160 H   0  0  0  0  0  0  0  0  0  0  0  0
   -3.6539   -5.8734   -2.1453 H   0  0  0  0  0  0  0  0  0  0  0  0
   -4.3706   -6.0450   -3.7617 H   0  0  0  0  0  0  0  0  0  0  0  0
  1  2  2  0  0  0  0
  1  3  1  0  0  0  0
  1  7  1  0  0  0  0
  3  4  1  0  0  0  0
  3  5  1  0  0  0  0
  3  6  1  0  0  0  0
  7  8  1  0  0  0  0
  7 12  1  0  0  0  0
  8  9  1  0  0  0  0
  8 11  1  0  0  0  0
  8 13  1  0  0  0  0
  9 10  2  0  0  0  0
  9 17  1  0  0  0  0
 11 14  1  0  0  0  0
 11 15  1  0  0  0  0
 11 16  1  0  0  0  0
 17 18  1  0  0  0  0
 17 26  1  0  0  0  0
 18 19  1  0  0  0  0
 18 21  1  0  0  0  0
 18 27  1  0  0  0  0
 19 20  2  0  0  0  0
 19 32  1  0  0  0  0
 21 22  1  0  0  0  0
 21 28  1  0  0  0  0
 21 29  1  0  0  0  0
 22 23  1  0  0  0  0
 22 30  1  0  0  0  0
 22 31  1  0  0  0  0
 23 24  1  0  0  0  0
 23 25  2  0  0  0  0
 32 33  1  0  0  0  0
 32 37  1  0  0  0  0
 33 34  1  0  0  0  0
 33 36  1  0  0  0  0
 33 38  1  0  0  0  0
 34 35  2  0  0  0  0
 34 42  1  0  0  0  0
 36 39  1  0  0  0  0
 36 40  1  0  0  0  0
 36 41  1  0  0  0  0
 42 43  1  0  0  0  0
 42 44  1  0  0  0  0
 43 45  1  0  0  0  0
 43 46  1  0  0  0  0
 43 47  1  0  0  0  0
M  CHG  1  24  -1
M  END
$$$$

  -OEChem-05262216243D

 47 46  0     1  0  0  0  0  0999 V2000
    0.1494   -5.7230    1.0735 C   0  0  0  0  0  0  0  0  0  0  0  0
    0.7786   -5.8883    2.1085 O   0  0  0  0  0  0  0  0  0  0  0  0
   -0.8529   -6.7686    0.6212 C   0  0  0  0  0  0  0  0  0  0  0  0
   -0.5462   -7.1855   -0.3411 H   0  0  0  0  0  0  0  0  0  0  0  0
   -0.9171   -7.5766    1.3548 H   0  0  0  0  0  0  0  0  0  0  0  0
   -1.8394   -6.3108    0.5111 H   0  0  0  0  0  0  0  0  0  0  0  0
    0.3411   -4.6016    0.2975 N   0  0  0  0  0  0  0  0  0  0  0  0
    1.0405   -3.3886    0.7583 C   0  0  2  0  0  0  0  0  0  0  0  0
    0.1202   -2.1491    0.6664 C   0  0  0  0  0  0  0  0  0  0  0  0
   -1.0928   -2.2877    0.7663 O   0  0  0  0  0  0  0  0  0  0  0  0
    2.3068   -3.2447   -0.0947 C   0  0  0  0  0  0  0  0  0  0  0  0
   -0.3393   -4.4923   -0.4615 H   0  0  0  0  0  0  0  0  0  0  0  0
    1.3372   -3.4862    1.8079 H   0  0  0  0  0  0  0  0  0  0  0  0
    2.0467   -3.0801   -1.1455 H   0  0  0  0  0  0  0  0  0  0  0  0
    2.9166   -2.4049    0.2524 H   0  0  0  0  0  0  0  0  0  0  0  0
    2.9111   -4.1547   -0.0251 H   0  0  0  0  0  0  0  0  0  0  0  0
    0.6036   -0.9032    0.3115 N   0  0  0  0  0  0  0  0  0  0  0  0
   -0.0648    0.0975   -0.5590 C   0  0  2  0  0  0  0  0  0  0  0  0
   -1.0126   -0.4007   -1.6961 C   0  0  0  0  0  0  0  0  0  0  0  0
   -1.5637    0.3981   -2.4443 O   0  0  0  0  0  0  0  0  0  0  0  0
    1.1028    0.8810   -1.1907 C   0  0  0  0  0  0  0  0  0  0  0  0
    1.8760    1.7070   -0.1454 C   0  0  0  0  0  0  0  0  0  0  0  0
    3.0383    2.4455   -0.8032 C   0  0  0  0  0  0  0  0  0  0  0  0
    4.0137    1.7414   -1.1667 O   0  5  0  0  0  0  0  0  0  0  0  0
    2.9585    3.6900   -0.9383 O   0  0  0  0  0  0  0  0  0  0  0  0
    1.6193   -0.8345    0.3090 H   0  0  0  0  0  0  0  0  0  0  0  0
   -0.6611    0.7670    0.0689 H   0  0  0  0  0  0  0  0  0  0  0  0
    0.7167    1.5751   -1.9459 H   0  0  0  0  0  0  0  0  0  0  0  0
    1.7840    0.1916   -1.7025 H   0  0  0  0  0  0  0  0  0  0  0  0
    1.2027    2.4291    0.3262 H   0  0  0  0  0  0  0  0  0  0  0  0
    2.2784    1.0635    0.6414 H   0  0  0  0  0  0  0  0  0  0  0  0
   -1.2477   -1.7430   -1.9214 N   0  0  0  0  0  0  0  0  0  0  0  0
   -2.1460   -2.3223   -2.9203 C   0  0  2  0  0  0  0  0  0  0  0  0
   -2.4636   -3.7938   -2.5688 C   0  0  0  0  0  0  0  0  0  0  0  0
   -1.7129   -4.4484   -1.8455 O   0  0  0  0  0  0  0  0  0  0  0  0
   -1.4888   -2.2497   -4.3041 C   0  0  0  0  0  0  0  0  0  0  0  0
   -1.0530   -2.3330   -1.1118 H   0  0  0  0  0  0  0  0  0  0  0  0
   -3.0852   -1.7599   -2.9291 H   0  0  0  0  0  0  0  0  0  0  0  0
   -0.5371   -2.7906   -4.3030 H   0  0  0  0  0  0  0  0  0  0  0  0
   -2.1417   -2.6919   -5.0624 H   0  0  0  0  0  0  0  0  0  0  0  0
   -1.2952   -1.2095   -4.5841 H   0  0  0  0  0  0  0  0  0  0  0  0
   -3.5971   -4.3996   -3.0798 N   0  0  0  0  0  0  0  0  0  0  0  0
   -3.9796   -5.7730   -2.7783 C   0  0  0  0  0  0  0  0  0  0  0  0
   -4.2137   -3.8293   -3.6515 H   0  0  0  0  0  0  0  0  0  0  0  0
   -3.2022   -6.4687   -3.1110 H   0  0  0  0  0  0  0  0  0  0  0  0
   -4.1319   -5.9004   -1.7013 H   0  0  0  0  0  0  0  0  0  0  0  0
   -4.9121   -6.0265   -3.2916 H   0  0  0  0  0  0  0  0  0  0  0  0
  1  2  2  0  0  0  0
  1  3  1  0  0  0  0
  1  7  1  0  0  0  0
  3  4  1  0  0  0  0
  3  5  1  0  0  0  0
  3  6  1  0  0  0  0
  7  8  1  0  0  0  0
  7 12  1  0  0  0  0
  8  9  1  0  0  0  0
  8 11  1  0  0  0  0
  8 13  1  0  0  0  0
  9 10  2  0  0  0  0
  9 17  1  0  0  0  0
 11 14  1  0  0  0  0
 11 15  1  0  0  0  0
 11 16  1  0  0  0  0
 17 18  1  0  0  0  0
 17 26  1  0  0  0  0
 18 19  1  0  0  0  0
 18 21  1  0  0  0  0
 18 27  1  0  0  0  0
 19 20  2  0  0  0  0
 19 32  1  0  0  0  0
 21 22  1  0  0  0  0
 21 28  1  0  0  0  0
 21 29  1  0  0  0  0
 22 23  1  0  0  0  0
 22 30  1  0  0  0  0
 22 31  1  0  0  0  0
 23 24  1  0  0  0  0
 23 25  2  0  0  0  0
 32 33  1  0  0  0  0
 32 37  1  0  0  0  0
 33 34  1  0  0  0  0
 33 36  1  0  0  0  0
 33 38  1  0  0  0  0
 34 35  2  0  0  0  0
 34 42  1  0  0  0  0
 36 39  1  0  0  0  0
 36 40  1  0  0  0  0
 36 41  1  0  0  0  0
 42 43  1  0  0  0  0
 42 44  1  0  0  0  0
 43 45  1  0  0  0  0
 43 46  1  0  0  0  0
 43 47  1  0  0  0  0
M  CHG  1  24  -1
M  END
$$$$

  -OEChem-05262216243D

 47 46  0     1  0  0  0  0  0999 V2000
    0.0279   -5.7413    1.1574 C   0  0  0  0  0  0  0  0  0  0  0  0
    0.8272   -5.9535    2.0580 O   0  0  0  0  0  0  0  0  0  0  0  0
   -1.0979   -6.7246    0.8954 C   0  0  0  0  0  0  0  0  0  0  0  0
   -1.0405   -7.0907   -0.1327 H   0  0  0  0  0  0  0  0  0  0  0  0
   -1.0282   -7.5739    1.5803 H   0  0  0  0  0  0  0  0  0  0  0  0
   -2.0614   -6.2291    1.0411 H   0  0  0  0  0  0  0  0  0  0  0  0
    0.1312   -4.6180    0.3675 N   0  0  0  0  0  0  0  0  0  0  0  0
    0.9609   -3.4465    0.7015 C   0  0  2  0  0  0  0  0  0  0  0  0
    0.1061   -2.1595    0.7641 C   0  0  0  0  0  0  0  0  0  0  0  0
   -1.0889   -2.2334    1.0280 O   0  0  0  0  0  0  0  0  0  0  0  0
    2.0671   -3.3570   -0.3566 C   0  0  0  0  0  0  0  0  0  0  0  0
   -0.6649   -4.4662   -0.2606 H   0  0  0  0  0  0  0  0  0  0  0  0
    1.4263   -3.5686    1.6853 H   0  0  0  0  0  0  0  0  0  0  0  0
    1.6381   -3.1689   -1.3463 H   0  0  0  0  0  0  0  0  0  0  0  0
    2.7685   -2.5513   -0.1192 H   0  0  0  0  0  0  0  0  0  0  0  0
    2.6286   -4.2959   -0.3936 H   0  0  0  0  0  0  0  0  0  0  0  0
    0.6096   -0.9252    0.3987 N   0  0  0  0  0  0  0  0  0  0  0  0
   -0.0654    0.0890   -0.4512 C   0  0  2  0  0  0  0  0  0  0  0  0
   -1.0588   -0.3920   -1.5612 C   0  0  0  0  0  0  0  0  0  0  0  0
   -1.4102    0.3620   -2.4605 O   0  0  0  0  0  0  0  0  0  0  0  0
    1.1017    0.8674   -1.0950 C   0  0  0  0  0  0  0  0  0  0  0  0
    1.9008    1.6764   -0.0559 C   0  0  0  0  0  0  0  0  0  0  0  0
    3.0599    2.4091   -0.7265 C   0  0  0  0  0  0  0  0  0  0  0  0
    4.0080    1.6957   -1.1405 O   0  5  0  0  0  0  0  0  0  0  0  0
    3.0059    3.6591   -0.8184 O   0  0  0  0  0  0  0  0  0  0  0  0
    1.6242   -0.9042    0.3177 H   0  0  0  0  0  0  0  0  0  0  0  0
   -0.6364    0.7606    0.1971 H   0  0  0  0  0  0  0  0  0  0  0  0
    0.7154    1.5760   -1.8361 H   0  0  0  0  0  0  0  0  0  0  0  0
    1.7658    0.1753   -1.6249 H   0  0  0  0  0  0  0  0  0  0  0  0
    1.2429    2.4009    0.4335 H   0  0  0  0  0  0  0  0  0  0  0  0
    2.3103    1.0212    0.7176 H   0  0  0  0  0  0  0  0  0  0  0  0
   -1.5700   -1.6738   -1.6042 N   0  0  0  0  0  0  0  0  0  0  0  0
   -2.3661   -2.2867   -2.6699 C   0  0  2  0  0  0  0  0  0  0  0  0
   -2.8623   -3.6829   -2.2344 C   0  0  0  0  0  0  0  0  0  0  0  0
   -2.1935   -4.3788   -1.4717 O   0  0  0  0  0  0  0  0  0  0  0  0
   -1.5188   -2.4364   -3.9412 C   0  0  0  0  0  0  0  0  0  0  0  0
   -1.4779   -2.2039   -0.7349 H   0  0  0  0  0  0  0  0  0  0  0  0
   -3.2344   -1.6540   -2.8789 H   0  0  0  0  0  0  0  0  0  0  0  0
   -0.6205   -3.0264   -3.7333 H   0  0  0  0  0  0  0  0  0  0  0  0
   -2.0925   -2.9388   -4.7257 H   0  0  0  0  0  0  0  0  0  0  0  0
   -1.2098   -1.4578   -4.3203 H   0  0  0  0  0  0  0  0  0  0  0  0
   -4.0540   -4.1815   -2.7281 N   0  0  0  0  0  0  0  0  0  0  0  0
   -4.5973   -5.4801   -2.3513 C   0  0  0  0  0  0  0  0  0  0  0  0
   -4.6003   -3.5738   -3.3320 H   0  0  0  0  0  0  0  0  0  0  0  0
   -3.9009   -6.2800   -2.6240 H   0  0  0  0  0  0  0  0  0  0  0  0
   -4.7776   -5.5211   -1.2719 H   0  0  0  0  0  0  0  0  0  0  0  0
   -5.5456   -5.6569   -2.8679 H   0  0  0  0  0  0  0  0  0  0  0  0
  1  2  2  0  0  0  0
  1  3  1  0  0  0  0
  1  7  1  0  0  0  0
  3  4  1  0  0  0  0
  3  5  1  0  0  0  0
  3  6  1  0  0  0  0
  7  8  1  0  0  0  0
  7 12  1  0  0  0  0
  8  9  1  0  0  0  0
  8 11  1  0  0  0  0
  8 13  1  0  0  0  0
  9 10  2  0  0  0  0
  9 17  1  0  0  0  0
 11 14  1  0  0  0  0
 11 15  1  0  0  0  0
 11 16  1  0  0  0  0
 17 18  1  0  0  0  0
 17 26  1  0  0  0  0
 18 19  1  0  0  0  0
 18 21  1  0  0  0  0
 18 27  1  0  0  0  0
 19 20  2  0  0  0  0
 19 32  1  0  0  0  0
 21 22  1  0  0  0  0
 21 28  1  0  0  0  0
 21 29  1  0  0  0  0
 22 23  1  0  0  0  0
 22 30  1  0  0  0  0
 22 31  1  0  0  0  0
 23 24  1  0  0  0  0
 23 25  2  0  0  0  0
 32 33  1  0  0  0  0
 32 37  1  0  0  0  0
 33 34  1  0  0  0  0
 33 36  1  0  0  0  0
 33 38  1  0  0  0  0
 34 35  2  0  0  0  0
 34 42  1  0  0  0  0
 36 39  1  0  0  0  0
 36 40  1  0  0  0  0
 36 41  1  0  0  0  0
 42 43  1  0  0  0  0
 42 44  1  0  0  0  0
 43 45  1  0  0  0  0
 43 46  1  0  0  0  0
 43 47  1  0  0  0  0
M  CHG  1  24  -1
M  END
$$$$

  -OEChem-05262216243D

 47 46  0     1  0  0  0  0  0999 V2000
    0.5365   -5.8995    1.8256 C   0  0  0  0  0  0  0  0  0  0  0  0
    1.6169   -5.7833    2.3808 O   0  0  0  0  0  0  0  0  0  0  0  0
   -0.3926   -7.0391    2.2020 C   0  0  0  0  0  0  0  0  0  0  0  0
   -0.5904   -7.6636    1.3274 H   0  0  0  0  0  0  0  0  0  0  0  0
    0.0637   -7.6567    2.9805 H   0  0  0  0  0  0  0  0  0  0  0  0
   -1.3382   -6.6407    2.5778 H   0  0  0  0  0  0  0  0  0  0  0  0
    0.1445   -4.9928    0.8641 N   0  0  0  0  0  0  0  0  0  0  0  0
    0.8701   -3.7568    0.5368 C   0  0  2  0  0  0  0  0  0  0  0  0
   -0.0889   -2.6480    0.0508 C   0  0  0  0  0  0  0  0  0  0  0  0
   -1.2807   -2.9116   -0.0999 O   0  0  0  0  0  0  0  0  0  0  0  0
    1.9121   -4.0720   -0.5416 C   0  0  0  0  0  0  0  0  0  0  0  0
   -0.8185   -5.0533    0.5379 H   0  0  0  0  0  0  0  0  0  0  0  0
    1.3803   -3.3807    1.4306 H   0  0  0  0  0  0  0  0  0  0  0  0
    1.4251   -4.4398   -1.4503 H   0  0  0  0  0  0  0  0  0  0  0  0
    2.4894   -3.1765   -0.7930 H   0  0  0  0  0  0  0  0  0  0  0  0
    2.6082   -4.8378   -0.1846 H   0  0  0  0  0  0  0  0  0  0  0  0
    0.3838   -1.3561   -0.0980 N   0  0  0  0  0  0  0  0  0  0  0  0
   -0.1668   -0.1787   -0.8170 C   0  0  2  0  0  0  0  0  0  0  0  0
   -1.0441   -0.3581   -2.0984 C   0  0  0  0  0  0  0  0  0  0  0  0
   -1.1696    0.5554   -2.9025 O   0  0  0  0  0  0  0  0  0  0  0  0
    1.0938    0.6601   -1.1266 C   0  0  0  0  0  0  0  0  0  0  0  0
    1.7381    1.2173    0.1593 C   0  0  0  0  0  0  0  0  0  0  0  0
    2.9949    2.0183   -0.1697 C   0  0  0  0  0  0  0  0  0  0  0  0
    3.9850    1.3608   -0.5771 O   0  5  0  0  0  0  0  0  0  0  0  0
    2.9769    3.2597    0.0070 O   0  0  0  0  0  0  0  0  0  0  0  0
    1.3657   -1.2471    0.1542 H   0  0  0  0  0  0  0  0  0  0  0  0
   -0.7971    0.3779   -0.1167 H   0  0  0  0  0  0  0  0  0  0  0  0
    0.8331    1.5168   -1.7582 H   0  0  0  0  0  0  0  0  0  0  0  0
    1.8196    0.0574   -1.6843 H   0  0  0  0  0  0  0  0  0  0  0  0
    1.0222    1.8597    0.6813 H   0  0  0  0  0  0  0  0  0  0  0  0
    2.0187    0.4094    0.8397 H   0  0  0  0  0  0  0  0  0  0  0  0
   -1.8401   -1.4639   -2.3066 N   0  0  0  0  0  0  0  0  0  0  0  0
   -2.9096   -1.6045   -3.3047 C   0  0  2  0  0  0  0  0  0  0  0  0
   -4.0922   -2.4471   -2.7714 C   0  0  0  0  0  0  0  0  0  0  0  0
   -5.0626   -2.6740   -3.4849 O   0  0  0  0  0  0  0  0  0  0  0  0
   -2.3049   -2.2330   -4.5643 C   0  0  0  0  0  0  0  0  0  0  0  0
   -1.7329   -2.2026   -1.6166 H   0  0  0  0  0  0  0  0  0  0  0  0
   -3.3136   -0.6179   -3.5557 H   0  0  0  0  0  0  0  0  0  0  0  0
   -1.9121   -3.2304   -4.3451 H   0  0  0  0  0  0  0  0  0  0  0  0
   -3.0633   -2.3206   -5.3486 H   0  0  0  0  0  0  0  0  0  0  0  0
   -1.4889   -1.6103   -4.9441 H   0  0  0  0  0  0  0  0  0  0  0  0
   -4.0570   -3.0063   -1.5025 N   0  0  0  0  0  0  0  0  0  0  0  0
   -5.1319   -3.8171   -0.9487 C   0  0  0  0  0  0  0  0  0  0  0  0
   -3.2418   -2.8100   -0.9205 H   0  0  0  0  0  0  0  0  0  0  0  0
   -5.2844   -4.7165   -1.5538 H   0  0  0  0  0  0  0  0  0  0  0  0
   -4.8829   -4.1240    0.0715 H   0  0  0  0  0  0  0  0  0  0  0  0
   -6.0660   -3.2467   -0.9206 H   0  0  0  0  0  0  0  0  0  0  0  0
  1  2  2  0  0  0  0
  1  3  1  0  0  0  0
  1  7  1  0  0  0  0
  3  4  1  0  0  0  0
  3  5  1  0  0  0  0
  3  6  1  0  0  0  0
  7  8  1  0  0  0  0
  7 12  1  0  0  0  0
  8  9  1  0  0  0  0
  8 11  1  0  0  0  0
  8 13  1  0  0  0  0
  9 10  2  0  0  0  0
  9 17  1  0  0  0  0
 11 14  1  0  0  0  0
 11 15  1  0  0  0  0
 11 16  1  0  0  0  0
 17 18  1  0  0  0  0
 17 26  1  0  0  0  0
 18 19  1  0  0  0  0
 18 21  1  0  0  0  0
 18 27  1  0  0  0  0
 19 20  2  0  0  0  0
 19 32  1  0  0  0  0
 21 22  1  0  0  0  0
 21 28  1  0  0  0  0
 21 29  1  0  0  0  0
 22 23  1  0  0  0  0
 22 30  1  0  0  0  0
 22 31  1  0  0  0  0
 23 24  1  0  0  0  0
 23 25  2  0  0  0  0
 32 33  1  0  0  0  0
 32 37  1  0  0  0  0
 33 34  1  0  0  0  0
 33 36  1  0  0  0  0
 33 38  1  0  0  0  0
 34 35  2  0  0  0  0
 34 42  1  0  0  0  0
 36 39  1  0  0  0  0
 36 40  1  0  0  0  0
 36 41  1  0  0  0  0
 42 43  1  0  0  0  0
 42 44  1  0  0  0  0
 43 45  1  0  0  0  0
 43 46  1  0  0  0  0
 43 47  1  0  0  0  0
M  CHG  1  24  -1
M  END
$$$$

  -OEChem-05262216243D

 47 46  0     1  0  0  0  0  0999 V2000
    1.3330   -5.8102    1.8609 C   0  0  0  0  0  0  0  0  0  0  0  0
    2.5035   -5.6680    2.1776 O   0  0  0  0  0  0  0  0  0  0  0  0
    0.5307   -6.9698    2.4220 C   0  0  0  0  0  0  0  0  0  0  0  0
    0.1429   -7.5843    1.6059 H   0  0  0  0  0  0  0  0  0  0  0  0
    1.1619   -7.5914    3.0633 H   0  0  0  0  0  0  0  0  0  0  0  0
   -0.3073   -6.5907    3.0123 H   0  0  0  0  0  0  0  0  0  0  0  0
    0.7245   -4.9150    1.0088 N   0  0  0  0  0  0  0  0  0  0  0  0
    1.3103   -3.6351    0.5858 C   0  0  2  0  0  0  0  0  0  0  0  0
    0.2072   -2.5840    0.3317 C   0  0  0  0  0  0  0  0  0  0  0  0
   -0.9662   -2.9095    0.4650 O   0  0  0  0  0  0  0  0  0  0  0  0
    2.1393   -3.8661   -0.6820 C   0  0  0  0  0  0  0  0  0  0  0  0
   -0.2877   -4.9943    0.9064 H   0  0  0  0  0  0  0  0  0  0  0  0
    1.9618   -3.2455    1.3758 H   0  0  0  0  0  0  0  0  0  0  0  0
    1.5040   -4.2395   -1.4915 H   0  0  0  0  0  0  0  0  0  0  0  0
    2.6115   -2.9345   -1.0100 H   0  0  0  0  0  0  0  0  0  0  0  0
    2.9286   -4.5997   -0.4900 H   0  0  0  0  0  0  0  0  0  0  0  0
    0.5459   -1.2676    0.0851 N   0  0  0  0  0  0  0  0  0  0  0  0
   -0.2463   -0.1710   -0.5204 C   0  0  2  0  0  0  0  0  0  0  0  0
   -1.3406   -0.4991   -1.5909 C   0  0  0  0  0  0  0  0  0  0  0  0
   -1.4332    0.1703   -2.6143 O   0  0  0  0  0  0  0  0  0  0  0  0
    0.8248    0.8008   -1.0672 C   0  0  0  0  0  0  0  0  0  0  0  0
    1.6333    1.4596    0.0679 C   0  0  0  0  0  0  0  0  0  0  0  0
    2.6993    2.3922   -0.5014 C   0  0  0  0  0  0  0  0  0  0  0  0
    3.7049    1.8459   -1.0196 O   0  5  0  0  0  0  0  0  0  0  0  0
    2.5177    3.6305   -0.4117 O   0  0  0  0  0  0  0  0  0  0  0  0
    1.5485   -1.0882    0.0938 H   0  0  0  0  0  0  0  0  0  0  0  0
   -0.7869    0.3326    0.2867 H   0  0  0  0  0  0  0  0  0  0  0  0
    0.3465    1.6078   -1.6340 H   0  0  0  0  0  0  0  0  0  0  0  0
    1.4953    0.2727   -1.7546 H   0  0  0  0  0  0  0  0  0  0  0  0
    0.9617    2.0273    0.7189 H   0  0  0  0  0  0  0  0  0  0  0  0
    2.1315    0.7046    0.6814 H   0  0  0  0  0  0  0  0  0  0  0  0
   -2.2598   -1.5244   -1.4654 N   0  0  0  0  0  0  0  0  0  0  0  0
   -3.2289   -1.9247   -2.4956 C   0  0  2  0  0  0  0  0  0  0  0  0
   -4.5189   -2.5379   -1.9122 C   0  0  0  0  0  0  0  0  0  0  0  0
   -4.4851   -3.3127   -0.9632 O   0  0  0  0  0  0  0  0  0  0  0  0
   -2.5454   -2.9240   -3.4330 C   0  0  0  0  0  0  0  0  0  0  0  0
   -2.1500   -2.1332   -0.6476 H   0  0  0  0  0  0  0  0  0  0  0  0
   -3.5287   -1.0453   -3.0743 H   0  0  0  0  0  0  0  0  0  0  0  0
   -2.2240   -3.8103   -2.8764 H   0  0  0  0  0  0  0  0  0  0  0  0
   -3.2329   -3.2375   -4.2243 H   0  0  0  0  0  0  0  0  0  0  0  0
   -1.6670   -2.4668   -3.8996 H   0  0  0  0  0  0  0  0  0  0  0  0
   -5.7383   -2.2608   -2.5058 N   0  0  0  0  0  0  0  0  0  0  0  0
   -7.0067   -2.7805   -2.0116 C   0  0  0  0  0  0  0  0  0  0  0  0
   -5.7438   -1.5812   -3.2608 H   0  0  0  0  0  0  0  0  0  0  0  0
   -7.0022   -3.8753   -2.0235 H   0  0  0  0  0  0  0  0  0  0  0  0
   -7.1867   -2.4391   -0.9868 H   0  0  0  0  0  0  0  0  0  0  0  0
   -7.8293   -2.4319   -2.6431 H   0  0  0  0  0  0  0  0  0  0  0  0
  1  2  2  0  0  0  0
  1  3  1  0  0  0  0
  1  7  1  0  0  0  0
  3  4  1  0  0  0  0
  3  5  1  0  0  0  0
  3  6  1  0  0  0  0
  7  8  1  0  0  0  0
  7 12  1  0  0  0  0
  8  9  1  0  0  0  0
  8 11  1  0  0  0  0
  8 13  1  0  0  0  0
  9 10  2  0  0  0  0
  9 17  1  0  0  0  0
 11 14  1  0  0  0  0
 11 15  1  0  0  0  0
 11 16  1  0  0  0  0
 17 18  1  0  0  0  0
 17 26  1  0  0  0  0
 18 19  1  0  0  0  0
 18 21  1  0  0  0  0
 18 27  1  0  0  0  0
 19 20  2  0  0  0  0
 19 32  1  0  0  0  0
 21 22  1  0  0  0  0
 21 28  1  0  0  0  0
 21 29  1  0  0  0  0
 22 23  1  0  0  0  0
 22 30  1  0  0  0  0
 22 31  1  0  0  0  0
 23 24  1  0  0  0  0
 23 25  2  0  0  0  0
 32 33  1  0  0  0  0
 32 37  1  0  0  0  0
 33 34  1  0  0  0  0
 33 36  1  0  0  0  0
 33 38  1  0  0  0  0
 34 35  2  0  0  0  0
 34 42  1  0  0  0  0
 36 39  1  0  0  0  0
 36 40  1  0  0  0  0
 36 41  1  0  0  0  0
 42 43  1  0  0  0  0
 42 44  1  0  0  0  0
 43 45  1  0  0  0  0
 43 46  1  0  0  0  0
 43 47  1  0  0  0  0
M  CHG  1  24  -1
M  END
$$$$

  -OEChem-05262216243D

 47 46  0     1  0  0  0  0  0999 V2000
    1.1754   -5.8595    1.7069 C   0  0  0  0  0  0  0  0  0  0  0  0
    2.3582   -5.7777    1.9977 O   0  0  0  0  0  0  0  0  0  0  0  0
    0.3408   -7.0103    2.2381 C   0  0  0  0  0  0  0  0  0  0  0  0
   -0.1323   -7.5423    1.4090 H   0  0  0  0  0  0  0  0  0  0  0  0
    0.9717   -7.7107    2.7926 H   0  0  0  0  0  0  0  0  0  0  0  0
   -0.4352   -6.6285    2.9062 H   0  0  0  0  0  0  0  0  0  0  0  0
    0.5833   -4.9062    0.9081 N   0  0  0  0  0  0  0  0  0  0  0  0
    1.2168   -3.6435    0.5043 C   0  0  2  0  0  0  0  0  0  0  0  0
    0.1569   -2.5402    0.2916 C   0  0  0  0  0  0  0  0  0  0  0  0
   -1.0289   -2.8195    0.4268 O   0  0  0  0  0  0  0  0  0  0  0  0
    2.0148   -3.8796   -0.7826 C   0  0  0  0  0  0  0  0  0  0  0  0
   -0.4334   -4.9368    0.8305 H   0  0  0  0  0  0  0  0  0  0  0  0
    1.8960   -3.3012    1.2929 H   0  0  0  0  0  0  0  0  0  0  0  0
    1.3516   -4.2027   -1.5914 H   0  0  0  0  0  0  0  0  0  0  0  0
    2.5238   -2.9621   -1.0944 H   0  0  0  0  0  0  0  0  0  0  0  0
    2.7727   -4.6529   -0.6228 H   0  0  0  0  0  0  0  0  0  0  0  0
    0.5501   -1.2347    0.0658 N   0  0  0  0  0  0  0  0  0  0  0  0
   -0.2224   -0.1021   -0.4932 C   0  0  2  0  0  0  0  0  0  0  0  0
   -1.3513   -0.4031   -1.5286 C   0  0  0  0  0  0  0  0  0  0  0  0
   -1.3201    0.0725   -2.6588 O   0  0  0  0  0  0  0  0  0  0  0  0
    0.8432    0.8607   -1.0599 C   0  0  0  0  0  0  0  0  0  0  0  0
    1.7011    1.4778    0.0614 C   0  0  0  0  0  0  0  0  0  0  0  0
    2.7642    2.4052   -0.5198 C   0  0  0  0  0  0  0  0  0  0  0  0
    3.7759    1.8573   -1.0239 O   0  5  0  0  0  0  0  0  0  0  0  0
    2.5704    3.6434   -0.4576 O   0  0  0  0  0  0  0  0  0  0  0  0
    1.5590   -1.0958    0.0476 H   0  0  0  0  0  0  0  0  0  0  0  0
   -0.7269    0.4005    0.3375 H   0  0  0  0  0  0  0  0  0  0  0  0
    0.3545    1.6825   -1.5952 H   0  0  0  0  0  0  0  0  0  0  0  0
    1.4810    0.3356   -1.7802 H   0  0  0  0  0  0  0  0  0  0  0  0
    1.0624    2.0420    0.7477 H   0  0  0  0  0  0  0  0  0  0  0  0
    2.2040    0.6983    0.6400 H   0  0  0  0  0  0  0  0  0  0  0  0
   -2.4387   -1.1994   -1.2233 N   0  0  0  0  0  0  0  0  0  0  0  0
   -3.4601   -1.6271   -2.1880 C   0  0  2  0  0  0  0  0  0  0  0  0
   -4.8329   -1.8972   -1.5375 C   0  0  0  0  0  0  0  0  0  0  0  0
   -4.9262   -2.3871   -0.4176 O   0  0  0  0  0  0  0  0  0  0  0  0
   -2.9528   -2.8900   -2.8901 C   0  0  0  0  0  0  0  0  0  0  0  0
   -2.3481   -1.7482   -0.3618 H   0  0  0  0  0  0  0  0  0  0  0  0
   -3.6086   -0.8394   -2.9335 H   0  0  0  0  0  0  0  0  0  0  0  0
   -2.7907   -3.6914   -2.1620 H   0  0  0  0  0  0  0  0  0  0  0  0
   -3.6795   -3.2331   -3.6325 H   0  0  0  0  0  0  0  0  0  0  0  0
   -2.0063   -2.6866   -3.4008 H   0  0  0  0  0  0  0  0  0  0  0  0
   -5.9893   -1.6370   -2.2519 N   0  0  0  0  0  0  0  0  0  0  0  0
   -7.3280   -1.8581   -1.7215 C   0  0  0  0  0  0  0  0  0  0  0  0
   -5.8844   -1.1988   -3.1622 H   0  0  0  0  0  0  0  0  0  0  0  0
   -7.4799   -2.9189   -1.4970 H   0  0  0  0  0  0  0  0  0  0  0  0
   -7.4780   -1.2778   -0.8050 H   0  0  0  0  0  0  0  0  0  0  0  0
   -8.0793   -1.5485   -2.4541 H   0  0  0  0  0  0  0  0  0  0  0  0
  1  2  2  0  0  0  0
  1  3  1  0  0  0  0
  1  7  1  0  0  0  0
  3  4  1  0  0  0  0
  3  5  1  0  0  0  0
  3  6  1  0  0  0  0
  7  8  1  0  0  0  0
  7 12  1  0  0  0  0
  8  9  1  0  0  0  0
  8 11  1  0  0  0  0
  8 13  1  0  0  0  0
  9 10  2  0  0  0  0
  9 17  1  0  0  0  0
 11 14  1  0  0  0  0
 11 15  1  0  0  0  0
 11 16  1  0  0  0  0
 17 18  1  0  0  0  0
 17 26  1  0  0  0  0
 18 19  1  0  0  0  0
 18 21  1  0  0  0  0
 18 27  1  0  0  0  0
 19 20  2  0  0  0  0
 19 32  1  0  0  0  0
 21 22  1  0  0  0  0
 21 28  1  0  0  0  0
 21 29  1  0  0  0  0
 22 23  1  0  0  0  0
 22 30  1  0  0  0  0
 22 31  1  0  0  0  0
 23 24  1  0  0  0  0
 23 25  2  0  0  0  0
 32 33  1  0  0  0  0
 32 37  1  0  0  0  0
 33 34  1  0  0  0  0
 33 36  1  0  0  0  0
 33 38  1  0  0  0  0
 34 35  2  0  0  0  0
 34 42  1  0  0  0  0
 36 39  1  0  0  0  0
 36 40  1  0  0  0  0
 36 41  1  0  0  0  0
 42 43  1  0  0  0  0
 42 44  1  0  0  0  0
 43 45  1  0  0  0  0
 43 46  1  0  0  0  0
 43 47  1  0  0  0  0
M  CHG  1  24  -1
M  END
$$$$

  -OEChem-05262216243D

 47 46  0     1  0  0  0  0  0999 V2000
    0.9554   -5.8701    1.6186 C   0  0  0  0  0  0  0  0  0  0  0  0
    2.1423   -5.8466    1.9036 O   0  0  0  0  0  0  0  0  0  0  0  0
    0.0746   -6.9949    2.1310 C   0  0  0  0  0  0  0  0  0  0  0  0
   -0.3862   -7.5214    1.2914 H   0  0  0  0  0  0  0  0  0  0  0  0
    0.6698   -7.7069    2.7095 H   0  0  0  0  0  0  0  0  0  0  0  0
   -0.7115   -6.5885    2.7724 H   0  0  0  0  0  0  0  0  0  0  0  0
    0.4017   -4.8753    0.8426 N   0  0  0  0  0  0  0  0  0  0  0  0
    1.0927   -3.6401    0.4485 C   0  0  2  0  0  0  0  0  0  0  0  0
    0.0902   -2.4812    0.2597 C   0  0  0  0  0  0  0  0  0  0  0  0
   -1.1117   -2.6998    0.3723 O   0  0  0  0  0  0  0  0  0  0  0  0
    1.8646   -3.8972   -0.8499 C   0  0  0  0  0  0  0  0  0  0  0  0
   -0.6149   -4.8618    0.7626 H   0  0  0  0  0  0  0  0  0  0  0  0
    1.7962   -3.3422    1.2338 H   0  0  0  0  0  0  0  0  0  0  0  0
    1.1771   -4.1764   -1.6546 H   0  0  0  0  0  0  0  0  0  0  0  0
    2.4133   -3.0008   -1.1559 H   0  0  0  0  0  0  0  0  0  0  0  0
    2.5860   -4.7082   -0.7094 H   0  0  0  0  0  0  0  0  0  0  0  0
    0.5509   -1.1926    0.0699 N   0  0  0  0  0  0  0  0  0  0  0  0
   -0.1886   -0.0316   -0.4665 C   0  0  2  0  0  0  0  0  0  0  0  0
   -1.3151   -0.3227   -1.5007 C   0  0  0  0  0  0  0  0  0  0  0  0
   -1.1792   -0.0509   -2.6894 O   0  0  0  0  0  0  0  0  0  0  0  0
    0.8884    0.9093   -1.0440 C   0  0  0  0  0  0  0  0  0  0  0  0
    1.7812    1.4930    0.0666 C   0  0  0  0  0  0  0  0  0  0  0  0
    2.8549    2.3994   -0.5276 C   0  0  0  0  0  0  0  0  0  0  0  0
    3.8693    1.8352   -1.0073 O   0  5  0  0  0  0  0  0  0  0  0  0
    2.6614    3.6389   -0.5065 O   0  0  0  0  0  0  0  0  0  0  0  0
    1.5645   -1.0991    0.0368 H   0  0  0  0  0  0  0  0  0  0  0  0
   -0.6778    0.4804    0.3680 H   0  0  0  0  0  0  0  0  0  0  0  0
    0.4067    1.7427   -1.5683 H   0  0  0  0  0  0  0  0  0  0  0  0
    1.5025    0.3741   -1.7774 H   0  0  0  0  0  0  0  0  0  0  0  0
    1.1703    2.0662    0.7704 H   0  0  0  0  0  0  0  0  0  0  0  0
    2.2741    0.6948    0.6281 H   0  0  0  0  0  0  0  0  0  0  0  0
   -2.5304   -0.8455   -1.1000 N   0  0  0  0  0  0  0  0  0  0  0  0
   -3.6049   -1.2311   -2.0237 C   0  0  2  0  0  0  0  0  0  0  0  0
   -4.9955   -1.2573   -1.3551 C   0  0  0  0  0  0  0  0  0  0  0  0
   -5.1316   -1.5528   -0.1729 O   0  0  0  0  0  0  0  0  0  0  0  0
   -3.2769   -2.6121   -2.6012 C   0  0  0  0  0  0  0  0  0  0  0  0
   -2.5088   -1.3182   -0.1922 H   0  0  0  0  0  0  0  0  0  0  0  0
   -3.6531   -0.5038   -2.8404 H   0  0  0  0  0  0  0  0  0  0  0  0
   -3.2205   -3.3562   -1.8001 H   0  0  0  0  0  0  0  0  0  0  0  0
   -4.0470   -2.9217   -3.3139 H   0  0  0  0  0  0  0  0  0  0  0  0
   -2.3146   -2.5889   -3.1221 H   0  0  0  0  0  0  0  0  0  0  0  0
   -6.1229   -0.9838   -2.1100 N   0  0  0  0  0  0  0  0  0  0  0  0
   -7.4708   -0.9590   -1.5575 C   0  0  0  0  0  0  0  0  0  0  0  0
   -5.9791   -0.6989   -3.0743 H   0  0  0  0  0  0  0  0  0  0  0  0
   -7.7328   -1.9383   -1.1436 H   0  0  0  0  0  0  0  0  0  0  0  0
   -7.5451   -0.2083   -0.7639 H   0  0  0  0  0  0  0  0  0  0  0  0
   -8.1944   -0.7093   -2.3391 H   0  0  0  0  0  0  0  0  0  0  0  0
  1  2  2  0  0  0  0
  1  3  1  0  0  0  0
  1  7  1  0  0  0  0
  3  4  1  0  0  0  0
  3  5  1  0  0  0  0
  3  6  1  0  0  0  0
  7  8  1  0  0  0  0
  7 12  1  0  0  0  0
  8  9  1  0  0  0  0
  8 11  1  0  0  0  0
  8 13  1  0  0  0  0
  9 10  2  0  0  0  0
  9 17  1  0  0  0  0
 11 14  1  0  0  0  0
 11 15  1  0  0  0  0
 11 16  1  0  0  0  0
 17 18  1  0  0  0  0
 17 26  1  0  0  0  0
 18 19  1  0  0  0  0
 18 21  1  0  0  0  0
 18 27  1  0  0  0  0
 19 20  2  0  0  0  0
 19 32  1  0  0  0  0
 21 22  1  0  0  0  0
 21 28  1  0  0  0  0
 21 29  1  0  0  0  0
 22 23  1  0  0  0  0
 22 30  1  0  0  0  0
 22 31  1  0  0  0  0
 23 24  1  0  0  0  0
 23 25  2  0  0  0  0
 32 33  1  0  0  0  0
 32 37  1  0  0  0  0
 33 34  1  0  0  0  0
 33 36  1  0  0  0  0
 33 38  1  0  0  0  0
 34 35  2  0  0  0  0
 34 42  1  0  0  0  0
 36 39  1  0  0  0  0
 36 40  1  0  0  0  0
 36 41  1  0  0  0  0
 42 43  1  0  0  0  0
 42 44  1  0  0  0  0
 43 45  1  0  0  0  0
 43 46  1  0  0  0  0
 43 47  1  0  0  0  0
M  CHG  1  24  -1
M  END
$$$$

  -OEChem-05262216243D

 47 46  0     1  0  0  0  0  0999 V2000
    0.7622   -5.8787    1.5135 C   0  0  0  0  0  0  0  0  0  0  0  0
    1.9536   -5.9235    1.7768 O   0  0  0  0  0  0  0  0  0  0  0  0
   -0.1615   -6.9843    1.9916 C   0  0  0  0  0  0  0  0  0  0  0  0
   -0.6480   -7.4586    1.1361 H   0  0  0  0  0  0  0  0  0  0  0  0
    0.4063   -7.7423    2.5384 H   0  0  0  0  0  0  0  0  0  0  0  0
   -0.9268   -6.5713    2.6534 H   0  0  0  0  0  0  0  0  0  0  0  0
    0.2445   -4.8278    0.7878 N   0  0  0  0  0  0  0  0  0  0  0  0
    0.9909   -3.6194    0.4128 C   0  0  2  0  0  0  0  0  0  0  0  0
    0.0485   -2.4035    0.2814 C   0  0  0  0  0  0  0  0  0  0  0  0
   -1.1628   -2.5594    0.4065 O   0  0  0  0  0  0  0  0  0  0  0  0
    1.7140   -3.8800   -0.9127 C   0  0  0  0  0  0  0  0  0  0  0  0
   -0.7708   -4.7638    0.7188 H   0  0  0  0  0  0  0  0  0  0  0  0
    1.7280   -3.3842    1.1882 H   0  0  0  0  0  0  0  0  0  0  0  0
    0.9915   -4.1005   -1.7052 H   0  0  0  0  0  0  0  0  0  0  0  0
    2.3013   -3.0056   -1.2105 H   0  0  0  0  0  0  0  0  0  0  0  0
    2.3944   -4.7314   -0.8123 H   0  0  0  0  0  0  0  0  0  0  0  0
    0.5685   -1.1347    0.1100 N   0  0  0  0  0  0  0  0  0  0  0  0
   -0.1494    0.0372   -0.4257 C   0  0  2  0  0  0  0  0  0  0  0  0
   -1.2686   -0.2699   -1.4581 C   0  0  0  0  0  0  0  0  0  0  0  0
   -1.0391   -0.2829   -2.6636 O   0  0  0  0  0  0  0  0  0  0  0  0
    0.9237    0.9636   -1.0277 C   0  0  0  0  0  0  0  0  0  0  0  0
    1.8418    1.5465    0.0615 C   0  0  0  0  0  0  0  0  0  0  0  0
    2.9115    2.4392   -0.5604 C   0  0  0  0  0  0  0  0  0  0  0  0
    3.9714    1.8792   -0.9351 O   0  5  0  0  0  0  0  0  0  0  0  0
    2.6619    3.6633   -0.6793 O   0  0  0  0  0  0  0  0  0  0  0  0
    1.5829   -1.0851    0.0388 H   0  0  0  0  0  0  0  0  0  0  0  0
   -0.6288    0.5624    0.4060 H   0  0  0  0  0  0  0  0  0  0  0  0
    0.4381    1.7945   -1.5520 H   0  0  0  0  0  0  0  0  0  0  0  0
    1.5213    0.4168   -1.7660 H   0  0  0  0  0  0  0  0  0  0  0  0
    1.2508    2.1327    0.7718 H   0  0  0  0  0  0  0  0  0  0  0  0
    2.3354    0.7472    0.6207 H   0  0  0  0  0  0  0  0  0  0  0  0
   -2.5672   -0.4903   -1.0377 N   0  0  0  0  0  0  0  0  0  0  0  0
   -3.6636   -0.8791   -1.9333 C   0  0  2  0  0  0  0  0  0  0  0  0
   -5.0538   -0.5596   -1.3466 C   0  0  0  0  0  0  0  0  0  0  0  0
   -5.2598   -0.6078   -0.1387 O   0  0  0  0  0  0  0  0  0  0  0  0
   -3.5535   -2.3806   -2.2209 C   0  0  0  0  0  0  0  0  0  0  0  0
   -2.6674   -0.7342   -0.0521 H   0  0  0  0  0  0  0  0  0  0  0  0
   -3.5709   -0.3261   -2.8737 H   0  0  0  0  0  0  0  0  0  0  0  0
   -3.6308   -2.9531   -1.2911 H   0  0  0  0  0  0  0  0  0  0  0  0
   -4.3522   -2.7002   -2.8964 H   0  0  0  0  0  0  0  0  0  0  0  0
   -2.5920   -2.6104   -2.6904 H   0  0  0  0  0  0  0  0  0  0  0  0
   -6.1037   -0.2562   -2.1956 N   0  0  0  0  0  0  0  0  0  0  0  0
   -7.4469    0.0607   -1.7288 C   0  0  0  0  0  0  0  0  0  0  0  0
   -5.8936   -0.1776   -3.1862 H   0  0  0  0  0  0  0  0  0  0  0  0
   -7.8632   -0.7797   -1.1634 H   0  0  0  0  0  0  0  0  0  0  0  0
   -7.4298    0.9463   -1.0849 H   0  0  0  0  0  0  0  0  0  0  0  0
   -8.1042    0.2635   -2.5798 H   0  0  0  0  0  0  0  0  0  0  0  0
  1  2  2  0  0  0  0
  1  3  1  0  0  0  0
  1  7  1  0  0  0  0
  3  4  1  0  0  0  0
  3  5  1  0  0  0  0
  3  6  1  0  0  0  0
  7  8  1  0  0  0  0
  7 12  1  0  0  0  0
  8  9  1  0  0  0  0
  8 11  1  0  0  0  0
  8 13  1  0  0  0  0
  9 10  2  0  0  0  0
  9 17  1  0  0  0  0
 11 14  1  0  0  0  0
 11 15  1  0  0  0  0
 11 16  1  0  0  0  0
 17 18  1  0  0  0  0
 17 26  1  0  0  0  0
 18 19  1  0  0  0  0
 18 21  1  0  0  0  0
 18 27  1  0  0  0  0
 19 20  2  0  0  0  0
 19 32  1  0  0  0  0
 21 22  1  0  0  0  0
 21 28  1  0  0  0  0
 21 29  1  0  0  0  0
 22 23  1  0  0  0  0
 22 30  1  0  0  0  0
 22 31  1  0  0  0  0
 23 24  1  0  0  0  0
 23 25  2  0  0  0  0
 32 33  1  0  0  0  0
 32 37  1  0  0  0  0
 33 34  1  0  0  0  0
 33 36  1  0  0  0  0
 33 38  1  0  0  0  0
 34 35  2  0  0  0  0
 34 42  1  0  0  0  0
 36 39  1  0  0  0  0
 36 40  1  0  0  0  0
 36 41  1  0  0  0  0
 42 43  1  0  0  0  0
 42 44  1  0  0  0  0
 43 45  1  0  0  0  0
 43 46  1  0  0  0  0
 43 47  1  0  0  0  0
M  CHG  1  24  -1
M  END
$$$$

  -OEChem-05262216243D

 47 46  0     1  0  0  0  0  0999 V2000
    0.6197   -5.8834    1.3998 C   0  0  0  0  0  0  0  0  0  0  0  0
    1.8166   -5.9914    1.6149 O   0  0  0  0  0  0  0  0  0  0  0  0
   -0.3383   -6.9529    1.8918 C   0  0  0  0  0  0  0  0  0  0  0  0
   -0.9026   -7.3631    1.0509 H   0  0  0  0  0  0  0  0  0  0  0  0
    0.2153   -7.7636    2.3733 H   0  0  0  0  0  0  0  0  0  0  0  0
   -1.0362   -6.5242    2.6152 H   0  0  0  0  0  0  0  0  0  0  0  0
    0.1263   -4.7913    0.7203 N   0  0  0  0  0  0  0  0  0  0  0  0
    0.9130   -3.6075    0.3502 C   0  0  2  0  0  0  0  0  0  0  0  0
    0.0224   -2.3474    0.3021 C   0  0  0  0  0  0  0  0  0  0  0  0
   -1.1910   -2.4551    0.4630 O   0  0  0  0  0  0  0  0  0  0  0  0
    1.5605   -3.8531   -1.0167 C   0  0  0  0  0  0  0  0  0  0  0  0
   -0.8867   -4.6776    0.6925 H   0  0  0  0  0  0  0  0  0  0  0  0
    1.6950   -3.4326    1.0970 H   0  0  0  0  0  0  0  0  0  0  0  0
    0.7925   -4.0107   -1.7807 H   0  0  0  0  0  0  0  0  0  0  0  0
    2.1732   -2.9959   -1.3125 H   0  0  0  0  0  0  0  0  0  0  0  0
    2.2033   -4.7378   -0.9793 H   0  0  0  0  0  0  0  0  0  0  0  0
    0.5904   -1.0959    0.1535 N   0  0  0  0  0  0  0  0  0  0  0  0
   -0.1080    0.0894   -0.3753 C   0  0  2  0  0  0  0  0  0  0  0  0
   -1.2212   -0.2180   -1.4090 C   0  0  0  0  0  0  0  0  0  0  0  0
   -0.9411   -0.5468   -2.5581 O   0  0  0  0  0  0  0  0  0  0  0  0
    0.9593    1.0116   -0.9902 C   0  0  0  0  0  0  0  0  0  0  0  0
    1.8942    1.5852    0.0889 C   0  0  0  0  0  0  0  0  0  0  0  0
    2.9619    2.4768   -0.5390 C   0  0  0  0  0  0  0  0  0  0  0  0
    4.0923    1.9663   -0.7334 O   0  5  0  0  0  0  0  0  0  0  0  0
    2.6362    3.6473   -0.8539 O   0  0  0  0  0  0  0  0  0  0  0  0
    1.6012   -1.0875    0.0356 H   0  0  0  0  0  0  0  0  0  0  0  0
   -0.5808    0.6163    0.4585 H   0  0  0  0  0  0  0  0  0  0  0  0
    0.4696    1.8449   -1.5065 H   0  0  0  0  0  0  0  0  0  0  0  0
    1.5453    0.4642   -1.7373 H   0  0  0  0  0  0  0  0  0  0  0  0
    1.3160    2.1725    0.8082 H   0  0  0  0  0  0  0  0  0  0  0  0
    2.3866    0.7783    0.6391 H   0  0  0  0  0  0  0  0  0  0  0  0
   -2.5535   -0.1287   -1.0505 N   0  0  0  0  0  0  0  0  0  0  0  0
   -3.6680   -0.5281   -1.9166 C   0  0  2  0  0  0  0  0  0  0  0  0
   -4.9947    0.1514   -1.5210 C   0  0  0  0  0  0  0  0  0  0  0  0
   -5.2199    0.4690   -0.3580 O   0  0  0  0  0  0  0  0  0  0  0  0
   -3.8188   -2.0514   -1.8462 C   0  0  0  0  0  0  0  0  0  0  0  0
   -2.7513   -0.0171   -0.0580 H   0  0  0  0  0  0  0  0  0  0  0  0
   -3.4439   -0.2363   -2.9477 H   0  0  0  0  0  0  0  0  0  0  0  0
   -4.0271   -2.3673   -0.8188 H   0  0  0  0  0  0  0  0  0  0  0  0
   -4.6382   -2.3863   -2.4888 H   0  0  0  0  0  0  0  0  0  0  0  0
   -2.8977   -2.5409   -2.1781 H   0  0  0  0  0  0  0  0  0  0  0  0
   -5.9625    0.3839   -2.4820 N   0  0  0  0  0  0  0  0  0  0  0  0
   -7.2243    1.0559   -2.2008 C   0  0  0  0  0  0  0  0  0  0  0  0
   -5.7258    0.1601   -3.4441 H   0  0  0  0  0  0  0  0  0  0  0  0
   -7.7977    0.4972   -1.4538 H   0  0  0  0  0  0  0  0  0  0  0  0
   -7.0431    2.0673   -1.8225 H   0  0  0  0  0  0  0  0  0  0  0  0
   -7.8244    1.1292   -3.1126 H   0  0  0  0  0  0  0  0  0  0  0  0
  1  2  2  0  0  0  0
  1  3  1  0  0  0  0
  1  7  1  0  0  0  0
  3  4  1  0  0  0  0
  3  5  1  0  0  0  0
  3  6  1  0  0  0  0
  7  8  1  0  0  0  0
  7 12  1  0  0  0  0
  8  9  1  0  0  0  0
  8 11  1  0  0  0  0
  8 13  1  0  0  0  0
  9 10  2  0  0  0  0
  9 17  1  0  0  0  0
 11 14  1  0  0  0  0
 11 15  1  0  0  0  0
 11 16  1  0  0  0  0
 17 18  1  0  0  0  0
 17 26  1  0  0  0  0
 18 19  1  0  0  0  0
 18 21  1  0  0  0  0
 18 27  1  0  0  0  0
 19 20  2  0  0  0  0
 19 32  1  0  0  0  0
 21 22  1  0  0  0  0
 21 28  1  0  0  0  0
 21 29  1  0  0  0  0
 22 23  1  0  0  0  0
 22 30  1  0  0  0  0
 22 31  1  0  0  0  0
 23 24  1  0  0  0  0
 23 25  2  0  0  0  0
 32 33  1  0  0  0  0
 32 37  1  0  0  0  0
 33 34  1  0  0  0  0
 33 36  1  0  0  0  0
 33 38  1  0  0  0  0
 34 35  2  0  0  0  0
 34 42  1  0  0  0  0
 36 39  1  0  0  0  0
 36 40  1  0  0  0  0
 36 41  1  0  0  0  0
 42 43  1  0  0  0  0
 42 44  1  0  0  0  0
 43 45  1  0  0  0  0
 43 46  1  0  0  0  0
 43 47  1  0  0  0  0
M  CHG  1  24  -1
M  END
$$$$

  -OEChem-05262216243D

 47 46  0     1  0  0  0  0  0999 V2000
    0.5355   -5.8557    1.4150 C   0  0  0  0  0  0  0  0  0  0  0  0
    1.7177   -5.9646    1.7008 O   0  0  0  0  0  0  0  0  0  0  0  0
   -0.4522   -6.9198    1.8582 C   0  0  0  0  0  0  0  0  0  0  0  0
   -0.8939   -7.4041    0.9838 H   0  0  0  0  0  0  0  0  0  0  0  0
    0.0540   -7.6768    2.4639 H   0  0  0  0  0  0  0  0  0  0  0  0
   -1.2474   -6.4656    2.4548 H   0  0  0  0  0  0  0  0  0  0  0  0
    0.0841   -4.7711    0.6954 N   0  0  0  0  0  0  0  0  0  0  0  0
    0.8882   -3.5835    0.3786 C   0  0  2  0  0  0  0  0  0  0  0  0
    0.0113   -2.3132    0.3575 C   0  0  0  0  0  0  0  0  0  0  0  0
   -1.2016   -2.4073    0.5353 O   0  0  0  0  0  0  0  0  0  0  0  0
    1.5548   -3.7949   -0.9845 C   0  0  0  0  0  0  0  0  0  0  0  0
   -0.9260   -4.6527    0.6217 H   0  0  0  0  0  0  0  0  0  0  0  0
    1.6605   -3.4394    1.1419 H   0  0  0  0  0  0  0  0  0  0  0  0
    0.7969   -3.9064   -1.7669 H   0  0  0  0  0  0  0  0  0  0  0  0
    2.1922   -2.9422   -1.2388 H   0  0  0  0  0  0  0  0  0  0  0  0
    2.1766   -4.6954   -0.9677 H   0  0  0  0  0  0  0  0  0  0  0  0
    0.5911   -1.0668    0.2091 N   0  0  0  0  0  0  0  0  0  0  0  0
   -0.1081    0.1100   -0.3354 C   0  0  2  0  0  0  0  0  0  0  0  0
   -1.2103   -0.2152   -1.3739 C   0  0  0  0  0  0  0  0  0  0  0  0
   -0.9325   -0.7891   -2.4236 O   0  0  0  0  0  0  0  0  0  0  0  0
    0.9507    1.0254   -0.9703 C   0  0  0  0  0  0  0  0  0  0  0  0
    1.8919    1.6206    0.0906 C   0  0  0  0  0  0  0  0  0  0  0  0
    2.9476    2.5040   -0.5675 C   0  0  0  0  0  0  0  0  0  0  0  0
    2.7152    3.7346   -0.6493 O   0  5  0  0  0  0  0  0  0  0  0  0
    3.9696    1.9315   -1.0195 O   0  0  0  0  0  0  0  0  0  0  0  0
    1.5980   -1.0727    0.0635 H   0  0  0  0  0  0  0  0  0  0  0  0
   -0.5850    0.6440    0.4918 H   0  0  0  0  0  0  0  0  0  0  0  0
    0.4544    1.8485   -1.4965 H   0  0  0  0  0  0  0  0  0  0  0  0
    1.5325    0.4661   -1.7122 H   0  0  0  0  0  0  0  0  0  0  0  0
    1.3165    2.2158    0.8058 H   0  0  0  0  0  0  0  0  0  0  0  0
    2.3967    0.8272    0.6489 H   0  0  0  0  0  0  0  0  0  0  0  0
   -2.5222    0.1557   -1.1456 N   0  0  0  0  0  0  0  0  0  0  0  0
   -3.6449   -0.1990   -2.0197 C   0  0  2  0  0  0  0  0  0  0  0  0
   -4.8296    0.7767   -1.8740 C   0  0  0  0  0  0  0  0  0  0  0  0
   -5.0479    1.3451   -0.8092 O   0  0  0  0  0  0  0  0  0  0  0  0
   -4.0903   -1.6253   -1.6809 C   0  0  0  0  0  0  0  0  0  0  0  0
   -2.7415    0.5717   -0.2429 H   0  0  0  0  0  0  0  0  0  0  0  0
   -3.3158   -0.1629   -3.0633 H   0  0  0  0  0  0  0  0  0  0  0  0
   -4.4111   -1.6865   -0.6360 H   0  0  0  0  0  0  0  0  0  0  0  0
   -4.9229   -1.9297   -2.3215 H   0  0  0  0  0  0  0  0  0  0  0  0
   -3.2638   -2.3274   -1.8306 H   0  0  0  0  0  0  0  0  0  0  0  0
   -5.6729    1.0038   -2.9470 N   0  0  0  0  0  0  0  0  0  0  0  0
   -6.7716    1.9597   -2.9104 C   0  0  0  0  0  0  0  0  0  0  0  0
   -5.4261    0.5699   -3.8317 H   0  0  0  0  0  0  0  0  0  0  0  0
   -7.4767    1.7024   -2.1132 H   0  0  0  0  0  0  0  0  0  0  0  0
   -6.3923    2.9715   -2.7330 H   0  0  0  0  0  0  0  0  0  0  0  0
   -7.3102    1.9526   -3.8626 H   0  0  0  0  0  0  0  0  0  0  0  0
  1  2  2  0  0  0  0
  1  3  1  0  0  0  0
  1  7  1  0  0  0  0
  3  4  1  0  0  0  0
  3  5  1  0  0  0  0
  3  6  1  0  0  0  0
  7  8  1  0  0  0  0
  7 12  1  0  0  0  0
  8  9  1  0  0  0  0
  8 11  1  0  0  0  0
  8 13  1  0  0  0  0
  9 10  2  0  0  0  0
  9 17  1  0  0  0  0
 11 14  1  0  0  0  0
 11 15  1  0  0  0  0
 11 16  1  0  0  0  0
 17 18  1  0  0  0  0
 17 26  1  0  0  0  0
 18 19  1  0  0  0  0
 18 21  1  0  0  0  0
 18 27  1  0  0  0  0
 19 20  2  0  0  0  0
 19 32  1  0  0  0  0
 21 22  1  0  0  0  0
 21 28  1  0  0  0  0
 21 29  1  0  0  0  0
 22 23  1  0  0  0  0
 22 30  1  0  0  0  0
 22 31  1  0  0  0  0
 23 24  1  0  0  0  0
 23 25  2  0  0  0  0
 32 33  1  0  0  0  0
 32 37  1  0  0  0  0
 33 34  1  0  0  0  0
 33 36  1  0  0  0  0
 33 38  1  0  0  0  0
 34 35  2  0  0  0  0
 34 42  1  0  0  0  0
 36 39  1  0  0  0  0
 36 40  1  0  0  0  0
 36 41  1  0  0  0  0
 42 43  1  0  0  0  0
 42 44  1  0  0  0  0
 43 45  1  0  0  0  0
 43 46  1  0  0  0  0
 43 47  1  0  0  0  0
M  CHG  1  24  -1
M  END
$$$$

  -OEChem-05262216243D

 47 46  0     1  0  0  0  0  0999 V2000
    0.5223   -5.8727    1.3784 C   0  0  0  0  0  0  0  0  0  0  0  0
    1.7209   -6.0261    1.5546 O   0  0  0  0  0  0  0  0  0  0  0  0
   -0.4573   -6.9223    1.8703 C   0  0  0  0  0  0  0  0  0  0  0  0
   -1.0865   -7.2610    1.0434 H   0  0  0  0  0  0  0  0  0  0  0  0
    0.0823   -7.7814    2.2785 H   0  0  0  0  0  0  0  0  0  0  0  0
   -1.0928   -6.4998    2.6526 H   0  0  0  0  0  0  0  0  0  0  0  0
    0.0442   -4.7466    0.7461 N   0  0  0  0  0  0  0  0  0  0  0  0
    0.8525   -3.5740    0.3898 C   0  0  2  0  0  0  0  0  0  0  0  0
   -0.0018   -2.2888    0.4298 C   0  0  0  0  0  0  0  0  0  0  0  0
   -1.2074   -2.3630    0.6613 O   0  0  0  0  0  0  0  0  0  0  0  0
    1.4322   -3.7837   -1.0130 C   0  0  0  0  0  0  0  0  0  0  0  0
   -0.9652   -4.6018    0.7512 H   0  0  0  0  0  0  0  0  0  0  0  0
    1.6713   -3.4528    1.1070 H   0  0  0  0  0  0  0  0  0  0  0  0
    0.6268   -3.8832   -1.7480 H   0  0  0  0  0  0  0  0  0  0  0  0
    2.0599   -2.9347   -1.3011 H   0  0  0  0  0  0  0  0  0  0  0  0
    2.0453   -4.6899   -1.0400 H   0  0  0  0  0  0  0  0  0  0  0  0
    0.5885   -1.0472    0.2809 N   0  0  0  0  0  0  0  0  0  0  0  0
   -0.1135    0.1192   -0.2839 C   0  0  2  0  0  0  0  0  0  0  0  0
   -1.2045   -0.2170   -1.3313 C   0  0  0  0  0  0  0  0  0  0  0  0
   -0.9565   -0.9639   -2.2749 O   0  0  0  0  0  0  0  0  0  0  0  0
    0.9412    1.0328   -0.9269 C   0  0  0  0  0  0  0  0  0  0  0  0
    1.8761    1.6510    0.1262 C   0  0  0  0  0  0  0  0  0  0  0  0
    2.9263    2.5313   -0.5449 C   0  0  0  0  0  0  0  0  0  0  0  0
    2.7183    3.7683   -0.5838 O   0  5  0  0  0  0  0  0  0  0  0  0
    3.9151    1.9502   -1.0561 O   0  0  0  0  0  0  0  0  0  0  0  0
    1.5898   -1.0686    0.1026 H   0  0  0  0  0  0  0  0  0  0  0  0
   -0.6004    0.6580    0.5343 H   0  0  0  0  0  0  0  0  0  0  0  0
    0.4418    1.8447   -1.4676 H   0  0  0  0  0  0  0  0  0  0  0  0
    1.5286    0.4658   -1.6583 H   0  0  0  0  0  0  0  0  0  0  0  0
    1.2943    2.2525    0.8307 H   0  0  0  0  0  0  0  0  0  0  0  0
    2.3865    0.8708    0.6976 H   0  0  0  0  0  0  0  0  0  0  0  0
   -2.4401    0.4016   -1.2837 N   0  0  0  0  0  0  0  0  0  0  0  0
   -3.5248    0.1631   -2.2421 C   0  0  2  0  0  0  0  0  0  0  0  0
   -4.5234    1.3365   -2.2982 C   0  0  0  0  0  0  0  0  0  0  0  0
   -4.6946    2.0606   -1.3231 O   0  0  0  0  0  0  0  0  0  0  0  0
   -4.2502   -1.1278   -1.8479 C   0  0  0  0  0  0  0  0  0  0  0  0
   -2.6232    1.0387   -0.5105 H   0  0  0  0  0  0  0  0  0  0  0  0
   -3.0992    0.0467   -3.2440 H   0  0  0  0  0  0  0  0  0  0  0  0
   -4.6777   -1.0339   -0.8446 H   0  0  0  0  0  0  0  0  0  0  0  0
   -5.0572   -1.3446   -2.5538 H   0  0  0  0  0  0  0  0  0  0  0  0
   -3.5537   -1.9724   -1.8501 H   0  0  0  0  0  0  0  0  0  0  0  0
   -5.2486    1.5720   -3.4527 N   0  0  0  0  0  0  0  0  0  0  0  0
   -6.1565    2.7007   -3.6093 C   0  0  0  0  0  0  0  0  0  0  0  0
   -5.0338    0.9964   -4.2616 H   0  0  0  0  0  0  0  0  0  0  0  0
   -6.9434    2.6689   -2.8487 H   0  0  0  0  0  0  0  0  0  0  0  0
   -5.6113    3.6454   -3.5138 H   0  0  0  0  0  0  0  0  0  0  0  0
   -6.6294    2.6706   -4.5954 H   0  0  0  0  0  0  0  0  0  0  0  0
  1  2  2  0  0  0  0
  1  3  1  0  0  0  0
  1  7  1  0  0  0  0
  3  4  1  0  0  0  0
  3  5  1  0  0  0  0
  3  6  1  0  0  0  0
  7  8  1  0  0  0  0
  7 12  1  0  0  0  0
  8  9  1  0  0  0  0
  8 11  1  0  0  0  0
  8 13  1  0  0  0  0
  9 10  2  0  0  0  0
  9 17  1  0  0  0  0
 11 14  1  0  0  0  0
 11 15  1  0  0  0  0
 11 16  1  0  0  0  0
 17 18  1  0  0  0  0
 17 26  1  0  0  0  0
 18 19  1  0  0  0  0
 18 21  1  0  0  0  0
 18 27  1  0  0  0  0
 19 20  2  0  0  0  0
 19 32  1  0  0  0  0
 21 22  1  0  0  0  0
 21 28  1  0  0  0  0
 21 29  1  0  0  0  0
 22 23  1  0  0  0  0
 22 30  1  0  0  0  0
 22 31  1  0  0  0  0
 23 24  1  0  0  0  0
 23 25  2  0  0  0  0
 32 33  1  0  0  0  0
 32 37  1  0  0  0  0
 33 34  1  0  0  0  0
 33 36  1  0  0  0  0
 33 38  1  0  0  0  0
 34 35  2  0  0  0  0
 34 42  1  0  0  0  0
 36 39  1  0  0  0  0
 36 40  1  0  0  0  0
 36 41  1  0  0  0  0
 42 43  1  0  0  0  0
 42 44  1  0  0  0  0
 43 45  1  0  0  0  0
 43 46  1  0  0  0  0
 43 47  1  0  0  0  0
M  CHG  1  24  -1
M  END
$$$$

  -OEChem-05262216243D

 47 46  0     1  0  0  0  0  0999 V2000
    0.5473   -5.8696    1.3918 C   0  0  0  0  0  0  0  0  0  0  0  0
    1.7488   -6.0094    1.5597 O   0  0  0  0  0  0  0  0  0  0  0  0
   -0.4150   -6.9342    1.8858 C   0  0  0  0  0  0  0  0  0  0  0  0
   -1.0170   -7.3075    1.0536 H   0  0  0  0  0  0  0  0  0  0  0  0
    0.1380   -7.7698    2.3240 H   0  0  0  0  0  0  0  0  0  0  0  0
   -1.0782   -6.5130    2.6455 H   0  0  0  0  0  0  0  0  0  0  0  0
    0.0518   -4.7483    0.7642 N   0  0  0  0  0  0  0  0  0  0  0  0
    0.8460   -3.5656    0.4080 C   0  0  2  0  0  0  0  0  0  0  0  0
   -0.0137   -2.2856    0.4803 C   0  0  0  0  0  0  0  0  0  0  0  0
   -1.2069   -2.3641    0.7687 O   0  0  0  0  0  0  0  0  0  0  0  0
    1.4006   -3.7549   -1.0076 C   0  0  0  0  0  0  0  0  0  0  0  0
   -0.9586   -4.6114    0.7841 H   0  0  0  0  0  0  0  0  0  0  0  0
    1.6771   -3.4470    1.1113 H   0  0  0  0  0  0  0  0  0  0  0  0
    0.5822   -3.8416   -1.7299 H   0  0  0  0  0  0  0  0  0  0  0  0
    2.0252   -2.9030   -1.2938 H   0  0  0  0  0  0  0  0  0  0  0  0
    2.0111   -4.6616   -1.0588 H   0  0  0  0  0  0  0  0  0  0  0  0
    0.5607   -1.0392    0.3097 N   0  0  0  0  0  0  0  0  0  0  0  0
   -0.1677    0.1070   -0.2635 C   0  0  2  0  0  0  0  0  0  0  0  0
   -1.2682   -0.2456   -1.2960 C   0  0  0  0  0  0  0  0  0  0  0  0
   -1.0864   -1.1230   -2.1371 O   0  0  0  0  0  0  0  0  0  0  0  0
    0.8664    1.0246   -0.9341 C   0  0  0  0  0  0  0  0  0  0  0  0
    1.8056    1.6725    0.0973 C   0  0  0  0  0  0  0  0  0  0  0  0
    2.8376    2.5579   -0.5968 C   0  0  0  0  0  0  0  0  0  0  0  0
    2.7232    3.8014   -0.4736 O   0  5  0  0  0  0  0  0  0  0  0  0
    3.7162    1.9800   -1.2832 O   0  0  0  0  0  0  0  0  0  0  0  0
    1.5551   -1.0568    0.0967 H   0  0  0  0  0  0  0  0  0  0  0  0
   -0.6524    0.6477    0.5548 H   0  0  0  0  0  0  0  0  0  0  0  0
    0.3517    1.8225   -1.4805 H   0  0  0  0  0  0  0  0  0  0  0  0
    1.4509    0.4532   -1.6647 H   0  0  0  0  0  0  0  0  0  0  0  0
    1.2211    2.2752    0.7990 H   0  0  0  0  0  0  0  0  0  0  0  0
    2.3341    0.9091    0.6746 H   0  0  0  0  0  0  0  0  0  0  0  0
   -2.3780    0.5683   -1.4299 N   0  0  0  0  0  0  0  0  0  0  0  0
   -3.3900    0.4279   -2.4826 C   0  0  2  0  0  0  0  0  0  0  0  0
   -4.1245    1.7551   -2.7591 C   0  0  0  0  0  0  0  0  0  0  0  0
   -4.2838    2.5766   -1.8627 O   0  0  0  0  0  0  0  0  0  0  0  0
   -4.3920   -0.6511   -2.0595 C   0  0  0  0  0  0  0  0  0  0  0  0
   -2.4698    1.3553   -0.7896 H   0  0  0  0  0  0  0  0  0  0  0  0
   -2.9021    0.1214   -3.4136 H   0  0  0  0  0  0  0  0  0  0  0  0
   -4.8863   -0.3671   -1.1249 H   0  0  0  0  0  0  0  0  0  0  0  0
   -5.1552   -0.7886   -2.8313 H   0  0  0  0  0  0  0  0  0  0  0  0
   -3.8804   -1.6066   -1.9055 H   0  0  0  0  0  0  0  0  0  0  0  0
   -4.6219    2.0234   -4.0219 N   0  0  0  0  0  0  0  0  0  0  0  0
   -5.2491    3.2893   -4.3790 C   0  0  0  0  0  0  0  0  0  0  0  0
   -4.3968    1.3616   -4.7589 H   0  0  0  0  0  0  0  0  0  0  0  0
   -6.1176    3.4808   -3.7403 H   0  0  0  0  0  0  0  0  0  0  0  0
   -4.5379    4.1139   -4.2645 H   0  0  0  0  0  0  0  0  0  0  0  0
   -5.5860    3.2633   -5.4195 H   0  0  0  0  0  0  0  0  0  0  0  0
  1  2  2  0  0  0  0
  1  3  1  0  0  0  0
  1  7  1  0  0  0  0
  3  4  1  0  0  0  0
  3  5  1  0  0  0  0
  3  6  1  0  0  0  0
  7  8  1  0  0  0  0
  7 12  1  0  0  0  0
  8  9  1  0  0  0  0
  8 11  1  0  0  0  0
  8 13  1  0  0  0  0
  9 10  2  0  0  0  0
  9 17  1  0  0  0  0
 11 14  1  0  0  0  0
 11 15  1  0  0  0  0
 11 16  1  0  0  0  0
 17 18  1  0  0  0  0
 17 26  1  0  0  0  0
 18 19  1  0  0  0  0
 18 21  1  0  0  0  0
 18 27  1  0  0  0  0
 19 20  2  0  0  0  0
 19 32  1  0  0  0  0
 21 22  1  0  0  0  0
 21 28  1  0  0  0  0
 21 29  1  0  0  0  0
 22 23  1  0  0  0  0
 22 30  1  0  0  0  0
 22 31  1  0  0  0  0
 23 24  1  0  0  0  0
 23 25  2  0  0  0  0
 32 33  1  0  0  0  0
 32 37  1  0  0  0  0
 33 34  1  0  0  0  0
 33 36  1  0  0  0  0
 33 38  1  0  0  0  0
 34 35  2  0  0  0  0
 34 42  1  0  0  0  0
 36 39  1  0  0  0  0
 36 40  1  0  0  0  0
 36 41  1  0  0  0  0
 42 43  1  0  0  0  0
 42 44  1  0  0  0  0
 43 45  1  0  0  0  0
 43 46  1  0  0  0  0
 43 47  1  0  0  0  0
M  CHG  1  24  -1
M  END
$$$$

  -OEChem-05262216243D

 47 46  0     1  0  0  0  0  0999 V2000
    0.5403   -5.8732    1.3484 C   0  0  0  0  0  0  0  0  0  0  0  0
    1.7474   -6.0222    1.4589 O   0  0  0  0  0  0  0  0  0  0  0  0
   -0.4037   -6.9377    1.8756 C   0  0  0  0  0  0  0  0  0  0  0  0
   -1.0813   -7.2610    1.0816 H   0  0  0  0  0  0  0  0  0  0  0  0
    0.1633   -7.8027    2.2305 H   0  0  0  0  0  0  0  0  0  0  0  0
   -0.9908   -6.5358    2.7049 H   0  0  0  0  0  0  0  0  0  0  0  0
    0.0243   -4.7399    0.7600 N   0  0  0  0  0  0  0  0  0  0  0  0
    0.8111   -3.5600    0.3801 C   0  0  2  0  0  0  0  0  0  0  0  0
   -0.0399   -2.2765    0.4801 C   0  0  0  0  0  0  0  0  0  0  0  0
   -1.2207   -2.3457    0.8174 O   0  0  0  0  0  0  0  0  0  0  0  0
    1.3229   -3.7496   -1.0516 C   0  0  0  0  0  0  0  0  0  0  0  0
   -0.9839   -4.5980    0.8208 H   0  0  0  0  0  0  0  0  0  0  0  0
    1.6631   -3.4457    1.0587 H   0  0  0  0  0  0  0  0  0  0  0  0
    0.4827   -3.8378   -1.7482 H   0  0  0  0  0  0  0  0  0  0  0  0
    1.9375   -2.8975   -1.3573 H   0  0  0  0  0  0  0  0  0  0  0  0
    1.9329   -4.6554   -1.1212 H   0  0  0  0  0  0  0  0  0  0  0  0
    0.5373   -1.0325    0.3050 N   0  0  0  0  0  0  0  0  0  0  0  0
   -0.1883    0.1192   -0.2634 C   0  0  2  0  0  0  0  0  0  0  0  0
   -1.3023   -0.2069   -1.2940 C   0  0  0  0  0  0  0  0  0  0  0  0
   -1.2217   -1.1886   -2.0291 O   0  0  0  0  0  0  0  0  0  0  0  0
    0.8616    1.0143   -0.9423 C   0  0  0  0  0  0  0  0  0  0  0  0
    1.8184    1.6476    0.0800 C   0  0  0  0  0  0  0  0  0  0  0  0
    2.8562    2.5052   -0.6375 C   0  0  0  0  0  0  0  0  0  0  0  0
    3.9365    1.9503   -0.9555 O   0  5  0  0  0  0  0  0  0  0  0  0
    2.5416    3.6863   -0.9216 O   0  0  0  0  0  0  0  0  0  0  0  0
    1.5295   -1.0561    0.0831 H   0  0  0  0  0  0  0  0  0  0  0  0
   -0.6596    0.6680    0.5574 H   0  0  0  0  0  0  0  0  0  0  0  0
    0.3637    1.8222   -1.4907 H   0  0  0  0  0  0  0  0  0  0  0  0
    1.4331    0.4289   -1.6718 H   0  0  0  0  0  0  0  0  0  0  0  0
    1.2581    2.2679    0.7857 H   0  0  0  0  0  0  0  0  0  0  0  0
    2.3351    0.8740    0.6548 H   0  0  0  0  0  0  0  0  0  0  0  0
   -2.2277    0.7652   -1.6305 N   0  0  0  0  0  0  0  0  0  0  0  0
   -3.1676    0.6720   -2.7540 C   0  0  2  0  0  0  0  0  0  0  0  0
   -3.6491    2.0608   -3.2192 C   0  0  0  0  0  0  0  0  0  0  0  0
   -3.7400    2.9870   -2.4210 O   0  0  0  0  0  0  0  0  0  0  0  0
   -4.3642   -0.1850   -2.3288 C   0  0  0  0  0  0  0  0  0  0  0  0
   -2.2007    1.6433   -1.1133 H   0  0  0  0  0  0  0  0  0  0  0  0
   -2.6681    0.1961   -3.6041 H   0  0  0  0  0  0  0  0  0  0  0  0
   -4.8758    0.2708   -1.4751 H   0  0  0  0  0  0  0  0  0  0  0  0
   -5.0769   -0.2825   -3.1529 H   0  0  0  0  0  0  0  0  0  0  0  0
   -4.0314   -1.1871   -2.0403 H   0  0  0  0  0  0  0  0  0  0  0  0
   -3.9974    2.2673   -4.5421 N   0  0  0  0  0  0  0  0  0  0  0  0
   -4.3645    3.5733   -5.0740 C   0  0  0  0  0  0  0  0  0  0  0  0
   -3.8272    1.5041   -5.1901 H   0  0  0  0  0  0  0  0  0  0  0  0
   -5.2199    3.9836   -4.5273 H   0  0  0  0  0  0  0  0  0  0  0  0
   -3.5243    4.2705   -4.9900 H   0  0  0  0  0  0  0  0  0  0  0  0
   -4.6398    3.4870   -6.1293 H   0  0  0  0  0  0  0  0  0  0  0  0
  1  2  2  0  0  0  0
  1  3  1  0  0  0  0
  1  7  1  0  0  0  0
  3  4  1  0  0  0  0
  3  5  1  0  0  0  0
  3  6  1  0  0  0  0
  7  8  1  0  0  0  0
  7 12  1  0  0  0  0
  8  9  1  0  0  0  0
  8 11  1  0  0  0  0
  8 13  1  0  0  0  0
  9 10  2  0  0  0  0
  9 17  1  0  0  0  0
 11 14  1  0  0  0  0
 11 15  1  0  0  0  0
 11 16  1  0  0  0  0
 17 18  1  0  0  0  0
 17 26  1  0  0  0  0
 18 19  1  0  0  0  0
 18 21  1  0  0  0  0
 18 27  1  0  0  0  0
 19 20  2  0  0  0  0
 19 32  1  0  0  0  0
 21 22  1  0  0  0  0
 21 28  1  0  0  0  0
 21 29  1  0  0  0  0
 22 23  1  0  0  0  0
 22 30  1  0  0  0  0
 22 31  1  0  0  0  0
 23 24  1  0  0  0  0
 23 25  2  0  0  0  0
 32 33  1  0  0  0  0
 32 37  1  0  0  0  0
 33 34  1  0  0  0  0
 33 36  1  0  0  0  0
 33 38  1  0  0  0  0
 34 35  2  0  0  0  0
 34 42  1  0  0  0  0
 36 39  1  0  0  0  0
 36 40  1  0  0  0  0
 36 41  1  0  0  0  0
 42 43  1  0  0  0  0
 42 44  1  0  0  0  0
 43 45  1  0  0  0  0
 43 46  1  0  0  0  0
 43 47  1  0  0  0  0
M  CHG  1  24  -1
M  END
$$$$

  -OEChem-05262216243D

 47 46  0     1  0  0  0  0  0999 V2000
    0.6575   -5.8563    1.2577 C   0  0  0  0  0  0  0  0  0  0  0  0
    1.8673   -6.0107    1.1911 O   0  0  0  0  0  0  0  0  0  0  0  0
   -0.2073   -6.9302    1.8920 C   0  0  0  0  0  0  0  0  0  0  0  0
   -0.9896   -7.2389    1.1943 H   0  0  0  0  0  0  0  0  0  0  0  0
    0.4005   -7.8021    2.1489 H   0  0  0  0  0  0  0  0  0  0  0  0
   -0.6721   -6.5432    2.8021 H   0  0  0  0  0  0  0  0  0  0  0  0
    0.0672   -4.7088    0.7761 N   0  0  0  0  0  0  0  0  0  0  0  0
    0.7973   -3.5124    0.3386 C   0  0  2  0  0  0  0  0  0  0  0  0
   -0.0195   -2.2358    0.6309 C   0  0  0  0  0  0  0  0  0  0  0  0
   -1.0879   -2.3119    1.2338 O   0  0  0  0  0  0  0  0  0  0  0  0
    1.0853   -3.6316   -1.1615 C   0  0  0  0  0  0  0  0  0  0  0  0
   -0.9169   -4.5637    1.0018 H   0  0  0  0  0  0  0  0  0  0  0  0
    1.7436   -3.4313    0.8835 H   0  0  0  0  0  0  0  0  0  0  0  0
    0.1487   -3.6817   -1.7267 H   0  0  0  0  0  0  0  0  0  0  0  0
    1.6576   -2.7680   -1.5141 H   0  0  0  0  0  0  0  0  0  0  0  0
    1.6678   -4.5352   -1.3665 H   0  0  0  0  0  0  0  0  0  0  0  0
    0.5130   -0.9846    0.3869 N   0  0  0  0  0  0  0  0  0  0  0  0
   -0.2425    0.1366   -0.2116 C   0  0  2  0  0  0  0  0  0  0  0  0
   -1.5941   -0.1524   -0.9309 C   0  0  0  0  0  0  0  0  0  0  0  0
   -1.8722   -1.2617   -1.3776 O   0  0  0  0  0  0  0  0  0  0  0  0
    0.7324    0.7759   -1.2199 C   0  0  0  0  0  0  0  0  0  0  0  0
    1.9302    1.4386   -0.5199 C   0  0  0  0  0  0  0  0  0  0  0  0
    2.8739    2.0314   -1.5609 C   0  0  0  0  0  0  0  0  0  0  0  0
    3.7643    1.2735   -2.0177 O   0  5  0  0  0  0  0  0  0  0  0  0
    2.6610    3.2071   -1.9432 O   0  0  0  0  0  0  0  0  0  0  0  0
    1.4784   -1.0213    0.0683 H   0  0  0  0  0  0  0  0  0  0  0  0
   -0.4675    0.8537    0.5835 H   0  0  0  0  0  0  0  0  0  0  0  0
    0.2224    1.5473   -1.8066 H   0  0  0  0  0  0  0  0  0  0  0  0
    1.0868    0.0160   -1.9261 H   0  0  0  0  0  0  0  0  0  0  0  0
    1.5820    2.2308    0.1497 H   0  0  0  0  0  0  0  0  0  0  0  0
    2.4828    0.7123    0.0825 H   0  0  0  0  0  0  0  0  0  0  0  0
   -2.2980    0.9062   -1.4817 N   0  0  0  0  0  0  0  0  0  0  0  0
   -3.3925    0.7789   -2.4528 C   0  0  2  0  0  0  0  0  0  0  0  0
   -3.6024    2.0811   -3.2503 C   0  0  0  0  0  0  0  0  0  0  0  0
   -3.4194    3.1695   -2.7170 O   0  0  0  0  0  0  0  0  0  0  0  0
   -4.6794    0.4092   -1.7077 C   0  0  0  0  0  0  0  0  0  0  0  0
   -1.9751    1.8492   -1.2657 H   0  0  0  0  0  0  0  0  0  0  0  0
   -3.1500   -0.0120   -3.1700 H   0  0  0  0  0  0  0  0  0  0  0  0
   -4.9386    1.1888   -0.9842 H   0  0  0  0  0  0  0  0  0  0  0  0
   -5.5089    0.2956   -2.4117 H   0  0  0  0  0  0  0  0  0  0  0  0
   -4.5514   -0.5358   -1.1702 H   0  0  0  0  0  0  0  0  0  0  0  0
   -4.0180    2.0312   -4.5688 N   0  0  0  0  0  0  0  0  0  0  0  0
   -4.1344    3.2166   -5.4083 C   0  0  0  0  0  0  0  0  0  0  0  0
   -4.0647    1.1152   -5.0049 H   0  0  0  0  0  0  0  0  0  0  0  0
   -4.8205    3.9407   -4.9567 H   0  0  0  0  0  0  0  0  0  0  0  0
   -3.1559    3.6912   -5.5371 H   0  0  0  0  0  0  0  0  0  0  0  0
   -4.5217    2.9445   -6.3947 H   0  0  0  0  0  0  0  0  0  0  0  0
  1  2  2  0  0  0  0
  1  3  1  0  0  0  0
  1  7  1  0  0  0  0
  3  4  1  0  0  0  0
  3  5  1  0  0  0  0
  3  6  1  0  0  0  0
  7  8  1  0  0  0  0
  7 12  1  0  0  0  0
  8  9  1  0  0  0  0
  8 11  1  0  0  0  0
  8 13  1  0  0  0  0
  9 10  2  0  0  0  0
  9 17  1  0  0  0  0
 11 14  1  0  0  0  0
 11 15  1  0  0  0  0
 11 16  1  0  0  0  0
 17 18  1  0  0  0  0
 17 26  1  0  0  0  0
 18 19  1  0  0  0  0
 18 21  1  0  0  0  0
 18 27  1  0  0  0  0
 19 20  2  0  0  0  0
 19 32  1  0  0  0  0
 21 22  1  0  0  0  0
 21 28  1  0  0  0  0
 21 29  1  0  0  0  0
 22 23  1  0  0  0  0
 22 30  1  0  0  0  0
 22 31  1  0  0  0  0
 23 24  1  0  0  0  0
 23 25  2  0  0  0  0
 32 33  1  0  0  0  0
 32 37  1  0  0  0  0
 33 34  1  0  0  0  0
 33 36  1  0  0  0  0
 33 38  1  0  0  0  0
 34 35  2  0  0  0  0
 34 42  1  0  0  0  0
 36 39  1  0  0  0  0
 36 40  1  0  0  0  0
 36 41  1  0  0  0  0
 42 43  1  0  0  0  0
 42 44  1  0  0  0  0
 43 45  1  0  0  0  0
 43 46  1  0  0  0  0
 43 47  1  0  0  0  0
M  CHG  1  24  -1
M  END
$$$$

  -OEChem-05262216243D

 47 46  0     1  0  0  0  0  0999 V2000
    0.6008   -5.8373    1.2202 C   0  0  0  0  0  0  0  0  0  0  0  0
    1.8083   -6.0074    1.1504 O   0  0  0  0  0  0  0  0  0  0  0  0
   -0.2763   -6.8974    1.8606 C   0  0  0  0  0  0  0  0  0  0  0  0
   -1.0553   -7.2087    1.1604 H   0  0  0  0  0  0  0  0  0  0  0  0
    0.3231   -7.7706    2.1324 H   0  0  0  0  0  0  0  0  0  0  0  0
   -0.7459   -6.4960    2.7620 H   0  0  0  0  0  0  0  0  0  0  0  0
    0.0234   -4.6853    0.7341 N   0  0  0  0  0  0  0  0  0  0  0  0
    0.7678   -3.4943    0.3058 C   0  0  2  0  0  0  0  0  0  0  0  0
   -0.0448   -2.2130    0.5924 C   0  0  0  0  0  0  0  0  0  0  0  0
   -1.0903   -2.2862    1.2334 O   0  0  0  0  0  0  0  0  0  0  0  0
    1.0752   -3.6154   -1.1901 C   0  0  0  0  0  0  0  0  0  0  0  0
   -0.9554   -4.5241    0.9724 H   0  0  0  0  0  0  0  0  0  0  0  0
    1.7073   -3.4203    0.8637 H   0  0  0  0  0  0  0  0  0  0  0  0
    0.1467   -3.6533   -1.7688 H   0  0  0  0  0  0  0  0  0  0  0  0
    1.6636   -2.7588   -1.5329 H   0  0  0  0  0  0  0  0  0  0  0  0
    1.6487   -4.5264   -1.3872 H   0  0  0  0  0  0  0  0  0  0  0  0
    0.4954   -0.9636    0.3564 N   0  0  0  0  0  0  0  0  0  0  0  0
   -0.2206    0.1714   -0.2697 C   0  0  2  0  0  0  0  0  0  0  0  0
   -1.5577   -0.0713   -1.0444 C   0  0  0  0  0  0  0  0  0  0  0  0
   -2.0318   -1.1850   -1.2375 O   0  0  0  0  0  0  0  0  0  0  0  0
    0.8331    0.7990   -1.2100 C   0  0  0  0  0  0  0  0  0  0  0  0
    1.9959    1.4344   -0.4274 C   0  0  0  0  0  0  0  0  0  0  0  0
    3.0206    2.0165   -1.3959 C   0  0  0  0  0  0  0  0  0  0  0  0
    3.7642    1.1978   -1.9901 O   0  5  0  0  0  0  0  0  0  0  0  0
    3.0281    3.2580   -1.5724 O   0  0  0  0  0  0  0  0  0  0  0  0
    1.4701   -1.0106    0.0686 H   0  0  0  0  0  0  0  0  0  0  0  0
   -0.4672    0.8870    0.5203 H   0  0  0  0  0  0  0  0  0  0  0  0
    0.3873    1.5903   -1.8204 H   0  0  0  0  0  0  0  0  0  0  0  0
    1.2167    0.0379   -1.8995 H   0  0  0  0  0  0  0  0  0  0  0  0
    1.6165    2.2264    0.2254 H   0  0  0  0  0  0  0  0  0  0  0  0
    2.4959    0.6940    0.2029 H   0  0  0  0  0  0  0  0  0  0  0  0
   -2.0567    0.9209   -1.8742 N   0  0  0  0  0  0  0  0  0  0  0  0
   -3.1623    0.7554   -2.8284 C   0  0  2  0  0  0  0  0  0  0  0  0
   -3.1627    1.8596   -3.9045 C   0  0  0  0  0  0  0  0  0  0  0  0
   -2.7842    2.9923   -3.6296 O   0  0  0  0  0  0  0  0  0  0  0  0
   -4.4912    0.7759   -2.0649 C   0  0  0  0  0  0  0  0  0  0  0  0
   -1.6041    1.8342   -1.8412 H   0  0  0  0  0  0  0  0  0  0  0  0
   -3.0554   -0.2058   -3.3413 H   0  0  0  0  0  0  0  0  0  0  0  0
   -4.6129    1.7269   -1.5367 H   0  0  0  0  0  0  0  0  0  0  0  0
   -5.3303    0.6494   -2.7554 H   0  0  0  0  0  0  0  0  0  0  0  0
   -4.5234   -0.0360   -1.3318 H   0  0  0  0  0  0  0  0  0  0  0  0
   -3.6154    1.5875   -5.1834 N   0  0  0  0  0  0  0  0  0  0  0  0
   -3.5801    2.5642   -6.2644 C   0  0  0  0  0  0  0  0  0  0  0  0
   -3.8498    0.6231   -5.3990 H   0  0  0  0  0  0  0  0  0  0  0  0
   -4.1804    3.4430   -6.0069 H   0  0  0  0  0  0  0  0  0  0  0  0
   -2.5506    2.8839   -6.4573 H   0  0  0  0  0  0  0  0  0  0  0  0
   -3.9852    2.1266   -7.1815 H   0  0  0  0  0  0  0  0  0  0  0  0
  1  2  2  0  0  0  0
  1  3  1  0  0  0  0
  1  7  1  0  0  0  0
  3  4  1  0  0  0  0
  3  5  1  0  0  0  0
  3  6  1  0  0  0  0
  7  8  1  0  0  0  0
  7 12  1  0  0  0  0
  8  9  1  0  0  0  0
  8 11  1  0  0  0  0
  8 13  1  0  0  0  0
  9 10  2  0  0  0  0
  9 17  1  0  0  0  0
 11 14  1  0  0  0  0
 11 15  1  0  0  0  0
 11 16  1  0  0  0  0
 17 18  1  0  0  0  0
 17 26  1  0  0  0  0
 18 19  1  0  0  0  0
 18 21  1  0  0  0  0
 18 27  1  0  0  0  0
 19 20  2  0  0  0  0
 19 32  1  0  0  0  0
 21 22  1  0  0  0  0
 21 28  1  0  0  0  0
 21 29  1  0  0  0  0
 22 23  1  0  0  0  0
 22 30  1  0  0  0  0
 22 31  1  0  0  0  0
 23 24  1  0  0  0  0
 23 25  2  0  0  0  0
 32 33  1  0  0  0  0
 32 37  1  0  0  0  0
 33 34  1  0  0  0  0
 33 36  1  0  0  0  0
 33 38  1  0  0  0  0
 34 35  2  0  0  0  0
 34 42  1  0  0  0  0
 36 39  1  0  0  0  0
 36 40  1  0  0  0  0
 36 41  1  0  0  0  0
 42 43  1  0  0  0  0
 42 44  1  0  0  0  0
 43 45  1  0  0  0  0
 43 46  1  0  0  0  0
 43 47  1  0  0  0  0
M  CHG  1  24  -1
M  END
$$$$

  -OEChem-05262216243D

 47 46  0     1  0  0  0  0  0999 V2000
    0.2007   -5.8381    1.4236 C   0  0  0  0  0  0  0  0  0  0  0  0
    0.8801   -5.6767    2.4260 O   0  0  0  0  0  0  0  0  0  0  0  0
   -0.7116   -7.0463    1.3129 C   0  0  0  0  0  0  0  0  0  0  0  0
   -0.3984   -7.6739    0.4750 H   0  0  0  0  0  0  0  0  0  0  0  0
   -0.6689   -7.6374    2.2318 H   0  0  0  0  0  0  0  0  0  0  0  0
   -1.7425   -6.7216    1.1501 H   0  0  0  0  0  0  0  0  0  0  0  0
    0.2530   -4.9301    0.3891 N   0  0  0  0  0  0  0  0  0  0  0  0
    0.9366   -3.6318    0.4473 C   0  0  2  0  0  0  0  0  0  0  0  0
    0.1979   -2.5802   -0.4111 C   0  0  0  0  0  0  0  0  0  0  0  0
   -0.6555   -2.9687   -1.1987 O   0  0  0  0  0  0  0  0  0  0  0  0
    2.3781   -3.8194   -0.0379 C   0  0  0  0  0  0  0  0  0  0  0  0
   -0.4410   -5.0278   -0.3527 H   0  0  0  0  0  0  0  0  0  0  0  0
    0.9462   -3.2639    1.4788 H   0  0  0  0  0  0  0  0  0  0  0  0
    2.3891   -4.1660   -1.0762 H   0  0  0  0  0  0  0  0  0  0  0  0
    2.9317   -2.8772    0.0204 H   0  0  0  0  0  0  0  0  0  0  0  0
    2.8937   -4.5591    0.5825 H   0  0  0  0  0  0  0  0  0  0  0  0
    0.6267   -1.2638   -0.3784 N   0  0  0  0  0  0  0  0  0  0  0  0
   -0.0905   -0.0134   -0.7228 C   0  0  2  0  0  0  0  0  0  0  0  0
   -1.4238   -0.0833   -1.5263 C   0  0  0  0  0  0  0  0  0  0  0  0
   -2.3633   -0.7211   -1.0620 O   0  0  0  0  0  0  0  0  0  0  0  0
    0.9674    0.8822   -1.4056 C   0  0  0  0  0  0  0  0  0  0  0  0
    2.0662    1.3146   -0.4090 C   0  0  0  0  0  0  0  0  0  0  0  0
    3.1562    2.1865   -1.0395 C   0  0  0  0  0  0  0  0  0  0  0  0
    4.1956    2.3557   -0.3574 O   0  5  0  0  0  0  0  0  0  0  0  0
    2.9624    2.6710   -2.1817 O   0  0  0  0  0  0  0  0  0  0  0  0
    1.4559   -1.1188    0.1904 H   0  0  0  0  0  0  0  0  0  0  0  0
   -0.3775    0.4666    0.2175 H   0  0  0  0  0  0  0  0  0  0  0  0
    0.5067    1.7966   -1.7914 H   0  0  0  0  0  0  0  0  0  0  0  0
    1.4147    0.3523   -2.2543 H   0  0  0  0  0  0  0  0  0  0  0  0
    1.6120    1.8736    0.4139 H   0  0  0  0  0  0  0  0  0  0  0  0
    2.5537    0.4332    0.0151 H   0  0  0  0  0  0  0  0  0  0  0  0
   -1.7964    0.9433   -2.3813 N   0  0  0  0  0  0  0  0  0  0  0  0
   -3.1096    1.0515   -3.0357 C   0  0  2  0  0  0  0  0  0  0  0  0
   -2.9983    1.3660   -4.5412 C   0  0  0  0  0  0  0  0  0  0  0  0
   -2.0158    1.9432   -4.9905 O   0  0  0  0  0  0  0  0  0  0  0  0
   -3.9004    2.1485   -2.3199 C   0  0  0  0  0  0  0  0  0  0  0  0
   -1.0365    1.4880   -2.7898 H   0  0  0  0  0  0  0  0  0  0  0  0
   -3.6540    0.1057   -2.9493 H   0  0  0  0  0  0  0  0  0  0  0  0
   -3.3823    3.1093   -2.4035 H   0  0  0  0  0  0  0  0  0  0  0  0
   -4.8980    2.2498   -2.7572 H   0  0  0  0  0  0  0  0  0  0  0  0
   -4.0097    1.9019   -1.2590 H   0  0  0  0  0  0  0  0  0  0  0  0
   -4.0278    1.0198   -5.3988 N   0  0  0  0  0  0  0  0  0  0  0  0
   -3.9745    1.2382   -6.8386 C   0  0  0  0  0  0  0  0  0  0  0  0
   -4.7985    0.4860   -5.0085 H   0  0  0  0  0  0  0  0  0  0  0  0
   -3.8056    2.2972   -7.0598 H   0  0  0  0  0  0  0  0  0  0  0  0
   -3.1648    0.6510   -7.2841 H   0  0  0  0  0  0  0  0  0  0  0  0
   -4.9184    0.9362   -7.3018 H   0  0  0  0  0  0  0  0  0  0  0  0
  1  2  2  0  0  0  0
  1  3  1  0  0  0  0
  1  7  1  0  0  0  0
  3  4  1  0  0  0  0
  3  5  1  0  0  0  0
  3  6  1  0  0  0  0
  7  8  1  0  0  0  0
  7 12  1  0  0  0  0
  8  9  1  0  0  0  0
  8 11  1  0  0  0  0
  8 13  1  0  0  0  0
  9 10  2  0  0  0  0
  9 17  1  0  0  0  0
 11 14  1  0  0  0  0
 11 15  1  0  0  0  0
 11 16  1  0  0  0  0
 17 18  1  0  0  0  0
 17 26  1  0  0  0  0
 18 19  1  0  0  0  0
 18 21  1  0  0  0  0
 18 27  1  0  0  0  0
 19 20  2  0  0  0  0
 19 32  1  0  0  0  0
 21 22  1  0  0  0  0
 21 28  1  0  0  0  0
 21 29  1  0  0  0  0
 22 23  1  0  0  0  0
 22 30  1  0  0  0  0
 22 31  1  0  0  0  0
 23 24  1  0  0  0  0
 23 25  2  0  0  0  0
 32 33  1  0  0  0  0
 32 37  1  0  0  0  0
 33 34  1  0  0  0  0
 33 36  1  0  0  0  0
 33 38  1  0  0  0  0
 34 35  2  0  0  0  0
 34 42  1  0  0  0  0
 36 39  1  0  0  0  0
 36 40  1  0  0  0  0
 36 41  1  0  0  0  0
 42 43  1  0  0  0  0
 42 44  1  0  0  0  0
 43 45  1  0  0  0  0
 43 46  1  0  0  0  0
 43 47  1  0  0  0  0
M  CHG  1  24  -1
M  END
$$$$

  -OEChem-05262216243D

 47 46  0     1  0  0  0  0  0999 V2000
    0.2508   -5.8308    1.3960 C   0  0  0  0  0  0  0  0  0  0  0  0
    1.0119   -5.7025    2.3428 O   0  0  0  0  0  0  0  0  0  0  0  0
   -0.6896   -7.0205    1.3350 C   0  0  0  0  0  0  0  0  0  0  0  0
   -0.4638   -7.6283    0.4553 H   0  0  0  0  0  0  0  0  0  0  0  0
   -0.5760   -7.6384    2.2301 H   0  0  0  0  0  0  0  0  0  0  0  0
   -1.7246   -6.6749    1.2742 H   0  0  0  0  0  0  0  0  0  0  0  0
    0.2355   -4.9013    0.3795 N   0  0  0  0  0  0  0  0  0  0  0  0
    0.9467   -3.6171    0.4096 C   0  0  2  0  0  0  0  0  0  0  0  0
    0.1694   -2.5354   -0.3736 C   0  0  0  0  0  0  0  0  0  0  0  0
   -0.7558   -2.8896   -1.0936 O   0  0  0  0  0  0  0  0  0  0  0  0
    2.3456   -3.8196   -0.1824 C   0  0  0  0  0  0  0  0  0  0  0  0
   -0.5164   -4.9723   -0.3067 H   0  0  0  0  0  0  0  0  0  0  0  0
    1.0384   -3.2695    1.4441 H   0  0  0  0  0  0  0  0  0  0  0  0
    2.2759   -4.1565   -1.2217 H   0  0  0  0  0  0  0  0  0  0  0  0
    2.9148   -2.8852   -0.1563 H   0  0  0  0  0  0  0  0  0  0  0  0
    2.8946   -4.5717    0.3927 H   0  0  0  0  0  0  0  0  0  0  0  0
    0.6082   -1.2227   -0.3191 N   0  0  0  0  0  0  0  0  0  0  0  0
   -0.0889    0.0313   -0.6844 C   0  0  2  0  0  0  0  0  0  0  0  0
   -1.3880   -0.0565   -1.5362 C   0  0  0  0  0  0  0  0  0  0  0  0
   -2.3983   -0.5219   -1.0171 O   0  0  0  0  0  0  0  0  0  0  0  0
    0.9844    0.9356   -1.3275 C   0  0  0  0  0  0  0  0  0  0  0  0
    2.0491    1.3677   -0.2954 C   0  0  0  0  0  0  0  0  0  0  0  0
    3.1529    2.2488   -0.8886 C   0  0  0  0  0  0  0  0  0  0  0  0
    4.1688    2.4228   -0.1734 O   0  5  0  0  0  0  0  0  0  0  0  0
    2.9938    2.7325   -2.0368 O   0  0  0  0  0  0  0  0  0  0  0  0
    1.4555   -1.0883    0.2254 H   0  0  0  0  0  0  0  0  0  0  0  0
   -0.4124    0.5092    0.2455 H   0  0  0  0  0  0  0  0  0  0  0  0
    0.5242    1.8485   -1.7194 H   0  0  0  0  0  0  0  0  0  0  0  0
    1.4613    0.4153   -2.1659 H   0  0  0  0  0  0  0  0  0  0  0  0
    1.5661    1.9202    0.5157 H   0  0  0  0  0  0  0  0  0  0  0  0
    2.5270    0.4861    0.1393 H   0  0  0  0  0  0  0  0  0  0  0  0
   -1.6043    0.7791   -2.6212 N   0  0  0  0  0  0  0  0  0  0  0  0
   -2.8572    0.8388   -3.3878 C   0  0  2  0  0  0  0  0  0  0  0  0
   -2.6282    0.7588   -4.9106 C   0  0  0  0  0  0  0  0  0  0  0  0
   -1.5680    1.1195   -5.4073 O   0  0  0  0  0  0  0  0  0  0  0  0
   -3.5678    2.1432   -3.0216 C   0  0  0  0  0  0  0  0  0  0  0  0
   -0.7720    1.1627   -3.0693 H   0  0  0  0  0  0  0  0  0  0  0  0
   -3.5028   -0.0040   -3.1216 H   0  0  0  0  0  0  0  0  0  0  0  0
   -2.9500    3.0044   -3.2955 H   0  0  0  0  0  0  0  0  0  0  0  0
   -4.5253    2.2187   -3.5452 H   0  0  0  0  0  0  0  0  0  0  0  0
   -3.7585    2.1785   -1.9444 H   0  0  0  0  0  0  0  0  0  0  0  0
   -3.6383    0.2989   -5.7372 N   0  0  0  0  0  0  0  0  0  0  0  0
   -3.4832    0.1428   -7.1776 C   0  0  0  0  0  0  0  0  0  0  0  0
   -4.4767   -0.0590   -5.2898 H   0  0  0  0  0  0  0  0  0  0  0  0
   -3.1786    1.0894   -7.6362 H   0  0  0  0  0  0  0  0  0  0  0  0
   -2.7261   -0.6164   -7.3998 H   0  0  0  0  0  0  0  0  0  0  0  0
   -4.4305   -0.1679   -7.6281 H   0  0  0  0  0  0  0  0  0  0  0  0
  1  2  2  0  0  0  0
  1  3  1  0  0  0  0
  1  7  1  0  0  0  0
  3  4  1  0  0  0  0
  3  5  1  0  0  0  0
  3  6  1  0  0  0  0
  7  8  1  0  0  0  0
  7 12  1  0  0  0  0
  8  9  1  0  0  0  0
  8 11  1  0  0  0  0
  8 13  1  0  0  0  0
  9 10  2  0  0  0  0
  9 17  1  0  0  0  0
 11 14  1  0  0  0  0
 11 15  1  0  0  0  0
 11 16  1  0  0  0  0
 17 18  1  0  0  0  0
 17 26  1  0  0  0  0
 18 19  1  0  0  0  0
 18 21  1  0  0  0  0
 18 27  1  0  0  0  0
 19 20  2  0  0  0  0
 19 32  1  0  0  0  0
 21 22  1  0  0  0  0
 21 28  1  0  0  0  0
 21 29  1  0  0  0  0
 22 23  1  0  0  0  0
 22 30  1  0  0  0  0
 22 31  1  0  0  0  0
 23 24  1  0  0  0  0
 23 25  2  0  0  0  0
 32 33  1  0  0  0  0
 32 37  1  0  0  0  0
 33 34  1  0  0  0  0
 33 36  1  0  0  0  0
 33 38  1  0  0  0  0
 34 35  2  0  0  0  0
 34 42  1  0  0  0  0
 36 39  1  0  0  0  0
 36 40  1  0  0  0  0
 36 41  1  0  0  0  0
 42 43  1  0  0  0  0
 42 44  1  0  0  0  0
 43 45  1  0  0  0  0
 43 46  1  0  0  0  0
 43 47  1  0  0  0  0
M  CHG  1  24  -1
M  END
$$$$

  -OEChem-05262216243D

 47 46  0     1  0  0  0  0  0999 V2000
    0.3508   -5.8126    1.4676 C   0  0  0  0  0  0  0  0  0  0  0  0
    1.1734   -5.6827    2.3611 O   0  0  0  0  0  0  0  0  0  0  0  0
   -0.5756   -7.0147    1.4601 C   0  0  0  0  0  0  0  0  0  0  0  0
   -0.3785   -7.6310    0.5797 H   0  0  0  0  0  0  0  0  0  0  0  0
   -0.4175   -7.6191    2.3576 H   0  0  0  0  0  0  0  0  0  0  0  0
   -1.6164   -6.6828    1.4381 H   0  0  0  0  0  0  0  0  0  0  0  0
    0.2508   -4.8717    0.4663 N   0  0  0  0  0  0  0  0  0  0  0  0
    0.9460   -3.5783    0.4622 C   0  0  2  0  0  0  0  0  0  0  0  0
    0.1067   -2.4981   -0.2570 C   0  0  0  0  0  0  0  0  0  0  0  0
   -0.8874   -2.8473   -0.8811 O   0  0  0  0  0  0  0  0  0  0  0  0
    2.3050   -3.7578   -0.2232 C   0  0  0  0  0  0  0  0  0  0  0  0
   -0.5470   -4.9455   -0.1653 H   0  0  0  0  0  0  0  0  0  0  0  0
    1.1018   -3.2394    1.4921 H   0  0  0  0  0  0  0  0  0  0  0  0
    2.1697   -4.0786   -1.2610 H   0  0  0  0  0  0  0  0  0  0  0  0
    2.8670   -2.8187   -0.2194 H   0  0  0  0  0  0  0  0  0  0  0  0
    2.8976   -4.5136    0.3017 H   0  0  0  0  0  0  0  0  0  0  0  0
    0.5400   -1.1832   -0.2253 N   0  0  0  0  0  0  0  0  0  0  0  0
   -0.1415    0.0541   -0.6642 C   0  0  2  0  0  0  0  0  0  0  0  0
   -1.3957   -0.0781   -1.5730 C   0  0  0  0  0  0  0  0  0  0  0  0
   -2.4765   -0.3366   -1.0515 O   0  0  0  0  0  0  0  0  0  0  0  0
    0.9481    0.9389   -1.3036 C   0  0  0  0  0  0  0  0  0  0  0  0
    1.9774    1.4185   -0.2570 C   0  0  0  0  0  0  0  0  0  0  0  0
    3.0915    2.2827   -0.8561 C   0  0  0  0  0  0  0  0  0  0  0  0
    3.2781    2.2546   -2.0979 O   0  5  0  0  0  0  0  0  0  0  0  0
    3.7777    2.9497   -0.0452 O   0  0  0  0  0  0  0  0  0  0  0  0
    1.4181   -1.0365    0.2647 H   0  0  0  0  0  0  0  0  0  0  0  0
   -0.5054    0.5660    0.2322 H   0  0  0  0  0  0  0  0  0  0  0  0
    0.4955    1.8306   -1.7509 H   0  0  0  0  0  0  0  0  0  0  0  0
    1.4529    0.3834   -2.1024 H   0  0  0  0  0  0  0  0  0  0  0  0
    1.4607    1.9967    0.5150 H   0  0  0  0  0  0  0  0  0  0  0  0
    2.4510    0.5587    0.2231 H   0  0  0  0  0  0  0  0  0  0  0  0
   -1.4354    0.4775   -2.8419 N   0  0  0  0  0  0  0  0  0  0  0  0
   -2.6173    0.4715   -3.7145 C   0  0  2  0  0  0  0  0  0  0  0  0
   -2.2869    0.0322   -5.1558 C   0  0  0  0  0  0  0  0  0  0  0  0
   -1.1436    0.1055   -5.5908 O   0  0  0  0  0  0  0  0  0  0  0  0
   -3.2101    1.8824   -3.7064 C   0  0  0  0  0  0  0  0  0  0  0  0
   -0.5341    0.6477   -3.2883 H   0  0  0  0  0  0  0  0  0  0  0  0
   -3.3640   -0.2320   -3.3321 H   0  0  0  0  0  0  0  0  0  0  0  0
   -2.4826    2.6044   -4.0912 H   0  0  0  0  0  0  0  0  0  0  0  0
   -4.1088    1.9259   -4.3285 H   0  0  0  0  0  0  0  0  0  0  0  0
   -3.4811    2.1708   -2.6858 H   0  0  0  0  0  0  0  0  0  0  0  0
   -3.2934   -0.4324   -5.9842 N   0  0  0  0  0  0  0  0  0  0  0  0
   -3.0546   -0.9088   -7.3401 C   0  0  0  0  0  0  0  0  0  0  0  0
   -4.2184   -0.5374   -5.5786 H   0  0  0  0  0  0  0  0  0  0  0  0
   -2.5741   -0.1296   -7.9411 H   0  0  0  0  0  0  0  0  0  0  0  0
   -2.4080   -1.7922   -7.3254 H   0  0  0  0  0  0  0  0  0  0  0  0
   -4.0008   -1.1781   -7.8183 H   0  0  0  0  0  0  0  0  0  0  0  0
  1  2  2  0  0  0  0
  1  3  1  0  0  0  0
  1  7  1  0  0  0  0
  3  4  1  0  0  0  0
  3  5  1  0  0  0  0
  3  6  1  0  0  0  0
  7  8  1  0  0  0  0
  7 12  1  0  0  0  0
  8  9  1  0  0  0  0
  8 11  1  0  0  0  0
  8 13  1  0  0  0  0
  9 10  2  0  0  0  0
  9 17  1  0  0  0  0
 11 14  1  0  0  0  0
 11 15  1  0  0  0  0
 11 16  1  0  0  0  0
 17 18  1  0  0  0  0
 17 26  1  0  0  0  0
 18 19  1  0  0  0  0
 18 21  1  0  0  0  0
 18 27  1  0  0  0  0
 19 20  2  0  0  0  0
 19 32  1  0  0  0  0
 21 22  1  0  0  0  0
 21 28  1  0  0  0  0
 21 29  1  0  0  0  0
 22 23  1  0  0  0  0
 22 30  1  0  0  0  0
 22 31  1  0  0  0  0
 23 24  1  0  0  0  0
 23 25  2  0  0  0  0
 32 33  1  0  0  0  0
 32 37  1  0  0  0  0
 33 34  1  0  0  0  0
 33 36  1  0  0  0  0
 33 38  1  0  0  0  0
 34 35  2  0  0  0  0
 34 42  1  0  0  0  0
 36 39  1  0  0  0  0
 36 40  1  0  0  0  0
 36 41  1  0  0  0  0
 42 43  1  0  0  0  0
 42 44  1  0  0  0  0
 43 45  1  0  0  0  0
 43 46  1  0  0  0  0
 43 47  1  0  0  0  0
M  CHG  1  24  -1
M  END
$$$$

  -OEChem-05262216243D

 47 46  0     1  0  0  0  0  0999 V2000
    0.4165   -5.7603    1.5682 C   0  0  0  0  0  0  0  0  0  0  0  0
    1.2799   -5.6123    2.4193 O   0  0  0  0  0  0  0  0  0  0  0  0
   -0.5281   -6.9456    1.6457 C   0  0  0  0  0  0  0  0  0  0  0  0
   -0.4092   -7.5750    0.7604 H   0  0  0  0  0  0  0  0  0  0  0  0
   -0.3122   -7.5432    2.5357 H   0  0  0  0  0  0  0  0  0  0  0  0
   -1.5619   -6.5952    1.6992 H   0  0  0  0  0  0  0  0  0  0  0  0
    0.2843   -4.8535    0.5396 N   0  0  0  0  0  0  0  0  0  0  0  0
    0.9817   -3.5630    0.4705 C   0  0  2  0  0  0  0  0  0  0  0  0
    0.0927   -2.4869   -0.1919 C   0  0  0  0  0  0  0  0  0  0  0  0
   -0.9452   -2.8372   -0.7403 O   0  0  0  0  0  0  0  0  0  0  0  0
    2.2822   -3.7528   -0.3169 C   0  0  0  0  0  0  0  0  0  0  0  0
   -0.5463   -4.9361   -0.0467 H   0  0  0  0  0  0  0  0  0  0  0  0
    1.2192   -3.2142    1.4813 H   0  0  0  0  0  0  0  0  0  0  0  0
    2.0668   -4.0799   -1.3392 H   0  0  0  0  0  0  0  0  0  0  0  0
    2.8450   -2.8153   -0.3635 H   0  0  0  0  0  0  0  0  0  0  0  0
    2.9112   -4.5069    0.1664 H   0  0  0  0  0  0  0  0  0  0  0  0
    0.5058   -1.1657   -0.1676 N   0  0  0  0  0  0  0  0  0  0  0  0
   -0.1829    0.0458   -0.6594 C   0  0  2  0  0  0  0  0  0  0  0  0
   -1.3934   -0.1384   -1.6126 C   0  0  0  0  0  0  0  0  0  0  0  0
   -2.5226   -0.2166   -1.1379 O   0  0  0  0  0  0  0  0  0  0  0  0
    0.9074    0.9344   -1.2882 C   0  0  0  0  0  0  0  0  0  0  0  0
    1.8904    1.4602   -0.2268 C   0  0  0  0  0  0  0  0  0  0  0  0
    2.9703    2.3142   -0.8842 C   0  0  0  0  0  0  0  0  0  0  0  0
    2.7864    3.5538   -0.9423 O   0  5  0  0  0  0  0  0  0  0  0  0
    3.9567    1.7074   -1.3682 O   0  0  0  0  0  0  0  0  0  0  0  0
    1.4167   -1.0048    0.2548 H   0  0  0  0  0  0  0  0  0  0  0  0
   -0.5876    0.5727    0.2104 H   0  0  0  0  0  0  0  0  0  0  0  0
    0.4440    1.7999   -1.7758 H   0  0  0  0  0  0  0  0  0  0  0  0
    1.4548    0.3728   -2.0542 H   0  0  0  0  0  0  0  0  0  0  0  0
    1.3528    2.0604    0.5137 H   0  0  0  0  0  0  0  0  0  0  0  0
    2.3733    0.6343    0.3023 H   0  0  0  0  0  0  0  0  0  0  0  0
   -1.2829    0.1106   -2.9706 N   0  0  0  0  0  0  0  0  0  0  0  0
   -2.3982    0.0404   -3.9220 C   0  0  2  0  0  0  0  0  0  0  0  0
   -2.0242   -0.6998   -5.2224 C   0  0  0  0  0  0  0  0  0  0  0  0
   -0.8563   -0.7875   -5.5850 O   0  0  0  0  0  0  0  0  0  0  0  0
   -2.8351    1.4745   -4.2289 C   0  0  0  0  0  0  0  0  0  0  0  0
   -0.3405    0.1125   -3.3584 H   0  0  0  0  0  0  0  0  0  0  0  0
   -3.2374   -0.5022   -3.4752 H   0  0  0  0  0  0  0  0  0  0  0  0
   -2.0131    2.0349   -4.6863 H   0  0  0  0  0  0  0  0  0  0  0  0
   -3.6863    1.4787   -4.9159 H   0  0  0  0  0  0  0  0  0  0  0  0
   -3.1316    1.9835   -3.3061 H   0  0  0  0  0  0  0  0  0  0  0  0
   -3.0185   -1.2466   -6.0146 N   0  0  0  0  0  0  0  0  0  0  0  0
   -2.7507   -1.9755   -7.2475 C   0  0  0  0  0  0  0  0  0  0  0  0
   -3.9706   -1.2003   -5.6643 H   0  0  0  0  0  0  0  0  0  0  0  0
   -2.1957   -1.3467   -7.9515 H   0  0  0  0  0  0  0  0  0  0  0  0
   -2.1632   -2.8755   -7.0390 H   0  0  0  0  0  0  0  0  0  0  0  0
   -3.6905   -2.2755   -7.7206 H   0  0  0  0  0  0  0  0  0  0  0  0
  1  2  2  0  0  0  0
  1  3  1  0  0  0  0
  1  7  1  0  0  0  0
  3  4  1  0  0  0  0
  3  5  1  0  0  0  0
  3  6  1  0  0  0  0
  7  8  1  0  0  0  0
  7 12  1  0  0  0  0
  8  9  1  0  0  0  0
  8 11  1  0  0  0  0
  8 13  1  0  0  0  0
  9 10  2  0  0  0  0
  9 17  1  0  0  0  0
 11 14  1  0  0  0  0
 11 15  1  0  0  0  0
 11 16  1  0  0  0  0
 17 18  1  0  0  0  0
 17 26  1  0  0  0  0
 18 19  1  0  0  0  0
 18 21  1  0  0  0  0
 18 27  1  0  0  0  0
 19 20  2  0  0  0  0
 19 32  1  0  0  0  0
 21 22  1  0  0  0  0
 21 28  1  0  0  0  0
 21 29  1  0  0  0  0
 22 23  1  0  0  0  0
 22 30  1  0  0  0  0
 22 31  1  0  0  0  0
 23 24  1  0  0  0  0
 23 25  2  0  0  0  0
 32 33  1  0  0  0  0
 32 37  1  0  0  0  0
 33 34  1  0  0  0  0
 33 36  1  0  0  0  0
 33 38  1  0  0  0  0
 34 35  2  0  0  0  0
 34 42  1  0  0  0  0
 36 39  1  0  0  0  0
 36 40  1  0  0  0  0
 36 41  1  0  0  0  0
 42 43  1  0  0  0  0
 42 44  1  0  0  0  0
 43 45  1  0  0  0  0
 43 46  1  0  0  0  0
 43 47  1  0  0  0  0
M  CHG  1  24  -1
M  END
$$$$

  -OEChem-05262216243D

 47 46  0     1  0  0  0  0  0999 V2000
    0.4618   -5.7368    1.5712 C   0  0  0  0  0  0  0  0  0  0  0  0
    1.3803   -5.6044    2.3653 O   0  0  0  0  0  0  0  0  0  0  0  0
   -0.4873   -6.9139    1.7000 C   0  0  0  0  0  0  0  0  0  0  0  0
   -0.4551   -7.5200    0.7913 H   0  0  0  0  0  0  0  0  0  0  0  0
   -0.2024   -7.5381    2.5516 H   0  0  0  0  0  0  0  0  0  0  0  0
   -1.5076   -6.5536    1.8530 H   0  0  0  0  0  0  0  0  0  0  0  0
    0.2684   -4.8172    0.5638 N   0  0  0  0  0  0  0  0  0  0  0  0
    0.9733   -3.5331    0.4599 C   0  0  2  0  0  0  0  0  0  0  0  0
    0.0562   -2.4437   -0.1392 C   0  0  0  0  0  0  0  0  0  0  0  0
   -1.0254   -2.7743   -0.6107 O   0  0  0  0  0  0  0  0  0  0  0  0
    2.2209   -3.7292   -0.4074 C   0  0  0  0  0  0  0  0  0  0  0  0
   -0.5995   -4.8877    0.0322 H   0  0  0  0  0  0  0  0  0  0  0  0
    1.2765   -3.1936    1.4563 H   0  0  0  0  0  0  0  0  0  0  0  0
    1.9402   -4.0600   -1.4125 H   0  0  0  0  0  0  0  0  0  0  0  0
    2.7824   -2.7936   -0.4934 H   0  0  0  0  0  0  0  0  0  0  0  0
    2.8772   -4.4833    0.0382 H   0  0  0  0  0  0  0  0  0  0  0  0
    0.4780   -1.1253   -0.1258 N   0  0  0  0  0  0  0  0  0  0  0  0
   -0.1990    0.0776   -0.6526 C   0  0  2  0  0  0  0  0  0  0  0  0
   -1.3872   -0.1305   -1.6256 C   0  0  0  0  0  0  0  0  0  0  0  0
   -2.5368    0.0006   -1.2163 O   0  0  0  0  0  0  0  0  0  0  0  0
    0.8977    0.9424   -1.3000 C   0  0  0  0  0  0  0  0  0  0  0  0
    1.8803    1.4907   -0.2504 C   0  0  0  0  0  0  0  0  0  0  0  0
    2.9669    2.3205   -0.9271 C   0  0  0  0  0  0  0  0  0  0  0  0
    2.8367    3.5679   -0.9393 O   0  5  0  0  0  0  0  0  0  0  0  0
    3.9053    1.6875   -1.4700 O   0  0  0  0  0  0  0  0  0  0  0  0
    1.4138   -0.9719    0.2422 H   0  0  0  0  0  0  0  0  0  0  0  0
   -0.6140    0.6285    0.1978 H   0  0  0  0  0  0  0  0  0  0  0  0
    0.4380    1.7931   -1.8165 H   0  0  0  0  0  0  0  0  0  0  0  0
    1.4471    0.3578   -2.0467 H   0  0  0  0  0  0  0  0  0  0  0  0
    1.3428    2.1130    0.4715 H   0  0  0  0  0  0  0  0  0  0  0  0
    2.3578    0.6770    0.3019 H   0  0  0  0  0  0  0  0  0  0  0  0
   -1.1812   -0.2105   -2.9921 N   0  0  0  0  0  0  0  0  0  0  0  0
   -2.2500   -0.4106   -3.9769 C   0  0  2  0  0  0  0  0  0  0  0  0
   -1.8725   -1.4443   -5.0578 C   0  0  0  0  0  0  0  0  0  0  0  0
   -0.6987   -1.6952   -5.3090 O   0  0  0  0  0  0  0  0  0  0  0  0
   -2.5550    0.9464   -4.6149 C   0  0  0  0  0  0  0  0  0  0  0  0
   -0.2286   -0.4072   -3.2956 H   0  0  0  0  0  0  0  0  0  0  0  0
   -3.1503   -0.7845   -3.4789 H   0  0  0  0  0  0  0  0  0  0  0  0
   -1.6693    1.3346   -5.1283 H   0  0  0  0  0  0  0  0  0  0  0  0
   -3.3687    0.8560   -5.3402 H   0  0  0  0  0  0  0  0  0  0  0  0
   -2.8544    1.6656   -3.8458 H   0  0  0  0  0  0  0  0  0  0  0  0
   -2.8671   -2.0781   -5.7818 N   0  0  0  0  0  0  0  0  0  0  0  0
   -2.5986   -3.0717   -6.8131 C   0  0  0  0  0  0  0  0  0  0  0  0
   -3.8291   -1.8812   -5.5225 H   0  0  0  0  0  0  0  0  0  0  0  0
   -1.9969   -2.6354   -7.6173 H   0  0  0  0  0  0  0  0  0  0  0  0
   -2.0580   -3.9256   -6.3912 H   0  0  0  0  0  0  0  0  0  0  0  0
   -3.5377   -3.4336   -7.2422 H   0  0  0  0  0  0  0  0  0  0  0  0
  1  2  2  0  0  0  0
  1  3  1  0  0  0  0
  1  7  1  0  0  0  0
  3  4  1  0  0  0  0
  3  5  1  0  0  0  0
  3  6  1  0  0  0  0
  7  8  1  0  0  0  0
  7 12  1  0  0  0  0
  8  9  1  0  0  0  0
  8 11  1  0  0  0  0
  8 13  1  0  0  0  0
  9 10  2  0  0  0  0
  9 17  1  0  0  0  0
 11 14  1  0  0  0  0
 11 15  1  0  0  0  0
 11 16  1  0  0  0  0
 17 18  1  0  0  0  0
 17 26  1  0  0  0  0
 18 19  1  0  0  0  0
 18 21  1  0  0  0  0
 18 27  1  0  0  0  0
 19 20  2  0  0  0  0
 19 32  1  0  0  0  0
 21 22  1  0  0  0  0
 21 28  1  0  0  0  0
 21 29  1  0  0  0  0
 22 23  1  0  0  0  0
 22 30  1  0  0  0  0
 22 31  1  0  0  0  0
 23 24  1  0  0  0  0
 23 25  2  0  0  0  0
 32 33  1  0  0  0  0
 32 37  1  0  0  0  0
 33 34  1  0  0  0  0
 33 36  1  0  0  0  0
 33 38  1  0  0  0  0
 34 35  2  0  0  0  0
 34 42  1  0  0  0  0
 36 39  1  0  0  0  0
 36 40  1  0  0  0  0
 36 41  1  0  0  0  0
 42 43  1  0  0  0  0
 42 44  1  0  0  0  0
 43 45  1  0  0  0  0
 43 46  1  0  0  0  0
 43 47  1  0  0  0  0
M  CHG  1  24  -1
M  END
$$$$

  -OEChem-05262216243D

 47 46  0     1  0  0  0  0  0999 V2000
    0.4018   -5.9010    0.9434 C   0  0  0  0  0  0  0  0  0  0  0  0
    1.1708   -5.7829    1.8844 O   0  0  0  0  0  0  0  0  0  0  0  0
   -0.4489   -7.1504    0.8095 C   0  0  0  0  0  0  0  0  0  0  0  0
   -0.2740   -7.6190   -0.1620 H   0  0  0  0  0  0  0  0  0  0  0  0
   -0.1951   -7.8661    1.5964 H   0  0  0  0  0  0  0  0  0  0  0  0
   -1.5070   -6.8910    0.8960 H   0  0  0  0  0  0  0  0  0  0  0  0
    0.2891   -4.8984    0.0050 N   0  0  0  0  0  0  0  0  0  0  0  0
    0.8982   -3.5678    0.1308 C   0  0  2  0  0  0  0  0  0  0  0  0
    0.0189   -2.4882   -0.5369 C   0  0  0  0  0  0  0  0  0  0  0  0
   -0.9247   -2.8400   -1.2359 O   0  0  0  0  0  0  0  0  0  0  0  0
    2.2902   -3.6054   -0.5080 C   0  0  0  0  0  0  0  0  0  0  0  0
   -0.4690   -4.9802   -0.6719 H   0  0  0  0  0  0  0  0  0  0  0  0
    0.9939   -3.3031    1.1894 H   0  0  0  0  0  0  0  0  0  0  0  0
    2.2172   -3.8585   -1.5705 H   0  0  0  0  0  0  0  0  0  0  0  0
    2.7845   -2.6335   -0.4141 H   0  0  0  0  0  0  0  0  0  0  0  0
    2.9138   -4.3564   -0.0125 H   0  0  0  0  0  0  0  0  0  0  0  0
    0.3141   -1.1507   -0.3386 N   0  0  0  0  0  0  0  0  0  0  0  0
   -0.4105    0.0459   -0.8172 C   0  0  2  0  0  0  0  0  0  0  0  0
   -1.4600   -0.1437   -1.9395 C   0  0  0  0  0  0  0  0  0  0  0  0
   -2.6544   -0.0434   -1.6885 O   0  0  0  0  0  0  0  0  0  0  0  0
    0.6665    1.0370   -1.2910 C   0  0  0  0  0  0  0  0  0  0  0  0
    1.5274    1.5608   -0.1236 C   0  0  0  0  0  0  0  0  0  0  0  0
    2.6243    2.5311   -0.5737 C   0  0  0  0  0  0  0  0  0  0  0  0
    3.3323    3.0300    0.3325 O   0  5  0  0  0  0  0  0  0  0  0  0
    2.7831    2.7380   -1.8032 O   0  0  0  0  0  0  0  0  0  0  0  0
    1.1287   -0.9648    0.2417 H   0  0  0  0  0  0  0  0  0  0  0  0
   -0.9487    0.4846    0.0294 H   0  0  0  0  0  0  0  0  0  0  0  0
    0.1853    1.8945   -1.7759 H   0  0  0  0  0  0  0  0  0  0  0  0
    1.3129    0.5579   -2.0349 H   0  0  0  0  0  0  0  0  0  0  0  0
    0.8836    2.0731    0.5973 H   0  0  0  0  0  0  0  0  0  0  0  0
    2.0108    0.7277    0.3927 H   0  0  0  0  0  0  0  0  0  0  0  0
   -1.0668   -0.3567   -3.2491 N   0  0  0  0  0  0  0  0  0  0  0  0
   -1.9873   -0.4287   -4.3947 C   0  0  2  0  0  0  0  0  0  0  0  0
   -2.4916   -1.8599   -4.7044 C   0  0  0  0  0  0  0  0  0  0  0  0
   -2.9981   -2.1186   -5.7921 O   0  0  0  0  0  0  0  0  0  0  0  0
   -1.2506    0.1873   -5.5892 C   0  0  0  0  0  0  0  0  0  0  0  0
   -0.0675   -0.4202   -3.4195 H   0  0  0  0  0  0  0  0  0  0  0  0
   -2.8724    0.1834   -4.1917 H   0  0  0  0  0  0  0  0  0  0  0  0
   -0.3870   -0.4259   -5.8652 H   0  0  0  0  0  0  0  0  0  0  0  0
   -1.9179    0.2579   -6.4539 H   0  0  0  0  0  0  0  0  0  0  0  0
   -0.9019    1.1954   -5.3427 H   0  0  0  0  0  0  0  0  0  0  0  0
   -2.3412   -2.8826   -3.7865 N   0  0  0  0  0  0  0  0  0  0  0  0
   -2.8175   -4.2406   -3.9953 C   0  0  0  0  0  0  0  0  0  0  0  0
   -1.9566   -2.6308   -2.8701 H   0  0  0  0  0  0  0  0  0  0  0  0
   -3.9057   -4.2500   -4.1135 H   0  0  0  0  0  0  0  0  0  0  0  0
   -2.3589   -4.6742   -4.8896 H   0  0  0  0  0  0  0  0  0  0  0  0
   -2.5552   -4.8641   -3.1356 H   0  0  0  0  0  0  0  0  0  0  0  0
  1  2  2  0  0  0  0
  1  3  1  0  0  0  0
  1  7  1  0  0  0  0
  3  4  1  0  0  0  0
  3  5  1  0  0  0  0
  3  6  1  0  0  0  0
  7  8  1  0  0  0  0
  7 12  1  0  0  0  0
  8  9  1  0  0  0  0
  8 11  1  0  0  0  0
  8 13  1  0  0  0  0
  9 10  2  0  0  0  0
  9 17  1  0  0  0  0
 11 14  1  0  0  0  0
 11 15  1  0  0  0  0
 11 16  1  0  0  0  0
 17 18  1  0  0  0  0
 17 26  1  0  0  0  0
 18 19  1  0  0  0  0
 18 21  1  0  0  0  0
 18 27  1  0  0  0  0
 19 20  2  0  0  0  0
 19 32  1  0  0  0  0
 21 22  1  0  0  0  0
 21 28  1  0  0  0  0
 21 29  1  0  0  0  0
 22 23  1  0  0  0  0
 22 30  1  0  0  0  0
 22 31  1  0  0  0  0
 23 24  1  0  0  0  0
 23 25  2  0  0  0  0
 32 33  1  0  0  0  0
 32 37  1  0  0  0  0
 33 34  1  0  0  0  0
 33 36  1  0  0  0  0
 33 38  1  0  0  0  0
 34 35  2  0  0  0  0
 34 42  1  0  0  0  0
 36 39  1  0  0  0  0
 36 40  1  0  0  0  0
 36 41  1  0  0  0  0
 42 43  1  0  0  0  0
 42 44  1  0  0  0  0
 43 45  1  0  0  0  0
 43 46  1  0  0  0  0
 43 47  1  0  0  0  0
M  CHG  1  24  -1
M  END
$$$$

  -OEChem-05262216243D

 47 46  0     1  0  0  0  0  0999 V2000
    0.4949   -5.8307   -0.7031 C   0  0  0  0  0  0  0  0  0  0  0  0
    1.2439   -6.2125    0.1847 O   0  0  0  0  0  0  0  0  0  0  0  0
   -0.2632   -6.8387   -1.5463 C   0  0  0  0  0  0  0  0  0  0  0  0
    0.0422   -6.7511   -2.5919 H   0  0  0  0  0  0  0  0  0  0  0  0
   -0.0591   -7.8550   -1.1992 H   0  0  0  0  0  0  0  0  0  0  0  0
   -1.3373   -6.6488   -1.4762 H   0  0  0  0  0  0  0  0  0  0  0  0
    0.3309   -4.4867   -0.9517 N   0  0  0  0  0  0  0  0  0  0  0  0
    0.8354   -3.4126   -0.0797 C   0  0  2  0  0  0  0  0  0  0  0  0
   -0.1803   -2.2513    0.0107 C   0  0  0  0  0  0  0  0  0  0  0  0
   -1.3749   -2.4976   -0.0631 O   0  0  0  0  0  0  0  0  0  0  0  0
    2.1968   -2.9653   -0.6295 C   0  0  0  0  0  0  0  0  0  0  0  0
   -0.4169   -4.2539   -1.6133 H   0  0  0  0  0  0  0  0  0  0  0  0
    0.9733   -3.7898    0.9394 H   0  0  0  0  0  0  0  0  0  0  0  0
    2.0873   -2.5383   -1.6314 H   0  0  0  0  0  0  0  0  0  0  0  0
    2.6542   -2.2163    0.0242 H   0  0  0  0  0  0  0  0  0  0  0  0
    2.8769   -3.8210   -0.6903 H   0  0  0  0  0  0  0  0  0  0  0  0
    0.2208   -0.9268    0.0704 N   0  0  0  0  0  0  0  0  0  0  0  0
   -0.4075    0.1691   -0.7021 C   0  0  2  0  0  0  0  0  0  0  0  0
   -1.3164   -0.2785   -1.8747 C   0  0  0  0  0  0  0  0  0  0  0  0
   -2.5186   -0.0364   -1.9040 O   0  0  0  0  0  0  0  0  0  0  0  0
    0.7446    1.0188   -1.2608 C   0  0  0  0  0  0  0  0  0  0  0  0
    1.5212    1.7435   -0.1497 C   0  0  0  0  0  0  0  0  0  0  0  0
    2.6660    2.5475   -0.7586 C   0  0  0  0  0  0  0  0  0  0  0  0
    3.6156    1.8837   -1.2445 O   0  5  0  0  0  0  0  0  0  0  0  0
    2.5795    3.7980   -0.7709 O   0  0  0  0  0  0  0  0  0  0  0  0
    1.2173   -0.7999    0.2321 H   0  0  0  0  0  0  0  0  0  0  0  0
   -1.0215    0.7767   -0.0296 H   0  0  0  0  0  0  0  0  0  0  0  0
    0.3385    1.7743   -1.9435 H   0  0  0  0  0  0  0  0  0  0  0  0
    1.4322    0.3905   -1.8379 H   0  0  0  0  0  0  0  0  0  0  0  0
    0.8506    2.4127    0.3983 H   0  0  0  0  0  0  0  0  0  0  0  0
    1.9385    1.0284    0.5642 H   0  0  0  0  0  0  0  0  0  0  0  0
   -0.7610   -1.0348   -2.8936 N   0  0  0  0  0  0  0  0  0  0  0  0
   -1.5583   -1.8077   -3.8489 C   0  0  2  0  0  0  0  0  0  0  0  0
   -2.1541   -3.0723   -3.1883 C   0  0  0  0  0  0  0  0  0  0  0  0
   -1.5757   -4.1563   -3.2457 O   0  0  0  0  0  0  0  0  0  0  0  0
   -0.6582   -2.1369   -5.0445 C   0  0  0  0  0  0  0  0  0  0  0  0
    0.2136   -1.2914   -2.7709 H   0  0  0  0  0  0  0  0  0  0  0  0
   -2.3914   -1.1978   -4.2143 H   0  0  0  0  0  0  0  0  0  0  0  0
    0.2094   -2.7243   -4.7268 H   0  0  0  0  0  0  0  0  0  0  0  0
   -1.2146   -2.7142   -5.7892 H   0  0  0  0  0  0  0  0  0  0  0  0
   -0.3021   -1.2156   -5.5154 H   0  0  0  0  0  0  0  0  0  0  0  0
   -3.3243   -2.9584   -2.4661 N   0  0  0  0  0  0  0  0  0  0  0  0
   -3.8483   -4.0448   -1.6494 C   0  0  0  0  0  0  0  0  0  0  0  0
   -3.5319   -2.0019   -2.1671 H   0  0  0  0  0  0  0  0  0  0  0  0
   -4.1040   -4.9051   -2.2758 H   0  0  0  0  0  0  0  0  0  0  0  0
   -3.1119   -4.3586   -0.9028 H   0  0  0  0  0  0  0  0  0  0  0  0
   -4.7517   -3.7170   -1.1267 H   0  0  0  0  0  0  0  0  0  0  0  0
  1  2  2  0  0  0  0
  1  3  1  0  0  0  0
  1  7  1  0  0  0  0
  3  4  1  0  0  0  0
  3  5  1  0  0  0  0
  3  6  1  0  0  0  0
  7  8  1  0  0  0  0
  7 12  1  0  0  0  0
  8  9  1  0  0  0  0
  8 11  1  0  0  0  0
  8 13  1  0  0  0  0
  9 10  2  0  0  0  0
  9 17  1  0  0  0  0
 11 14  1  0  0  0  0
 11 15  1  0  0  0  0
 11 16  1  0  0  0  0
 17 18  1  0  0  0  0
 17 26  1  0  0  0  0
 18 19  1  0  0  0  0
 18 21  1  0  0  0  0
 18 27  1  0  0  0  0
 19 20  2  0  0  0  0
 19 32  1  0  0  0  0
 21 22  1  0  0  0  0
 21 28  1  0  0  0  0
 21 29  1  0  0  0  0
 22 23  1  0  0  0  0
 22 30  1  0  0  0  0
 22 31  1  0  0  0  0
 23 24  1  0  0  0  0
 23 25  2  0  0  0  0
 32 33  1  0  0  0  0
 32 37  1  0  0  0  0
 33 34  1  0  0  0  0
 33 36  1  0  0  0  0
 33 38  1  0  0  0  0
 34 35  2  0  0  0  0
 34 42  1  0  0  0  0
 36 39  1  0  0  0  0
 36 40  1  0  0  0  0
 36 41  1  0  0  0  0
 42 43  1  0  0  0  0
 42 44  1  0  0  0  0
 43 45  1  0  0  0  0
 43 46  1  0  0  0  0
 43 47  1  0  0  0  0
M  CHG  1  24  -1
M  END
$$$$

  -OEChem-05262216243D

 47 46  0     1  0  0  0  0  0999 V2000
    0.6437   -5.9108   -0.5149 C   0  0  0  0  0  0  0  0  0  0  0  0
    1.5370   -6.2041    0.2665 O   0  0  0  0  0  0  0  0  0  0  0  0
   -0.1142   -7.0008   -1.2490 C   0  0  0  0  0  0  0  0  0  0  0  0
    0.0283   -6.8896   -2.3268 H   0  0  0  0  0  0  0  0  0  0  0  0
    0.2455   -7.9866   -0.9424 H   0  0  0  0  0  0  0  0  0  0  0  0
   -1.1815   -6.9266   -1.0253 H   0  0  0  0  0  0  0  0  0  0  0  0
    0.3116   -4.5925   -0.7333 N   0  0  0  0  0  0  0  0  0  0  0  0
    0.8209   -3.4659    0.0669 C   0  0  2  0  0  0  0  0  0  0  0  0
   -0.2223   -2.3281    0.1241 C   0  0  0  0  0  0  0  0  0  0  0  0
   -1.4097   -2.6021    0.0275 O   0  0  0  0  0  0  0  0  0  0  0  0
    2.1533   -3.0050   -0.5419 C   0  0  0  0  0  0  0  0  0  0  0  0
   -0.5536   -4.4437   -1.2643 H   0  0  0  0  0  0  0  0  0  0  0  0
    0.9955   -3.7923    1.0978 H   0  0  0  0  0  0  0  0  0  0  0  0
    2.0061   -2.6377   -1.5621 H   0  0  0  0  0  0  0  0  0  0  0  0
    2.5997   -2.2064    0.0586 H   0  0  0  0  0  0  0  0  0  0  0  0
    2.8621   -3.8384   -0.5740 H   0  0  0  0  0  0  0  0  0  0  0  0
    0.1322   -0.9902    0.1468 N   0  0  0  0  0  0  0  0  0  0  0  0
   -0.4679    0.0363   -0.7389 C   0  0  2  0  0  0  0  0  0  0  0  0
   -1.2625   -0.4830   -1.9664 C   0  0  0  0  0  0  0  0  0  0  0  0
   -2.4052   -0.1061   -2.2038 O   0  0  0  0  0  0  0  0  0  0  0  0
    0.7068    0.8825   -1.2531 C   0  0  0  0  0  0  0  0  0  0  0  0
    1.3708    1.6921   -0.1270 C   0  0  0  0  0  0  0  0  0  0  0  0
    2.5448    2.4915   -0.6836 C   0  0  0  0  0  0  0  0  0  0  0  0
    3.5514    1.8287   -1.0378 O   0  5  0  0  0  0  0  0  0  0  0  0
    2.4299    3.7359   -0.7809 O   0  0  0  0  0  0  0  0  0  0  0  0
    1.1157   -0.8256    0.3515 H   0  0  0  0  0  0  0  0  0  0  0  0
   -1.1484    0.6626   -0.1528 H   0  0  0  0  0  0  0  0  0  0  0  0
    0.3433    1.5862   -2.0110 H   0  0  0  0  0  0  0  0  0  0  0  0
    1.4520    0.2396   -1.7351 H   0  0  0  0  0  0  0  0  0  0  0  0
    0.6413    2.3732    0.3221 H   0  0  0  0  0  0  0  0  0  0  0  0
    1.7425    1.0319    0.6611 H   0  0  0  0  0  0  0  0  0  0  0  0
   -0.7243   -1.4984   -2.7409 N   0  0  0  0  0  0  0  0  0  0  0  0
   -1.5007   -2.3114   -3.6793 C   0  0  2  0  0  0  0  0  0  0  0  0
   -2.3222   -3.3840   -2.9294 C   0  0  0  0  0  0  0  0  0  0  0  0
   -1.9042   -4.5343   -2.8034 O   0  0  0  0  0  0  0  0  0  0  0  0
   -0.5189   -2.9151   -4.6898 C   0  0  0  0  0  0  0  0  0  0  0  0
    0.1663   -1.8664   -2.4235 H   0  0  0  0  0  0  0  0  0  0  0  0
   -2.2024   -1.6763   -4.2306 H   0  0  0  0  0  0  0  0  0  0  0  0
    0.2254   -3.5378   -4.1828 H   0  0  0  0  0  0  0  0  0  0  0  0
   -1.0554   -3.5352   -5.4143 H   0  0  0  0  0  0  0  0  0  0  0  0
    0.0026   -2.1205   -5.2323 H   0  0  0  0  0  0  0  0  0  0  0  0
   -3.5068   -3.0077   -2.3293 N   0  0  0  0  0  0  0  0  0  0  0  0
   -4.2205   -3.8721   -1.3996 C   0  0  0  0  0  0  0  0  0  0  0  0
   -3.6057   -1.9970   -2.2070 H   0  0  0  0  0  0  0  0  0  0  0  0
   -4.5107   -4.8069   -1.8896 H   0  0  0  0  0  0  0  0  0  0  0  0
   -3.5941   -4.1077   -0.5333 H   0  0  0  0  0  0  0  0  0  0  0  0
   -5.1272   -3.3727   -1.0460 H   0  0  0  0  0  0  0  0  0  0  0  0
  1  2  2  0  0  0  0
  1  3  1  0  0  0  0
  1  7  1  0  0  0  0
  3  4  1  0  0  0  0
  3  5  1  0  0  0  0
  3  6  1  0  0  0  0
  7  8  1  0  0  0  0
  7 12  1  0  0  0  0
  8  9  1  0  0  0  0
  8 11  1  0  0  0  0
  8 13  1  0  0  0  0
  9 10  2  0  0  0  0
  9 17  1  0  0  0  0
 11 14  1  0  0  0  0
 11 15  1  0  0  0  0
 11 16  1  0  0  0  0
 17 18  1  0  0  0  0
 17 26  1  0  0  0  0
 18 19  1  0  0  0  0
 18 21  1  0  0  0  0
 18 27  1  0  0  0  0
 19 20  2  0  0  0  0
 19 32  1  0  0  0  0
 21 22  1  0  0  0  0
 21 28  1  0  0  0  0
 21 29  1  0  0  0  0
 22 23  1  0  0  0  0
 22 30  1  0  0  0  0
 22 31  1  0  0  0  0
 23 24  1  0  0  0  0
 23 25  2  0  0  0  0
 32 33  1  0  0  0  0
 32 37  1  0  0  0  0
 33 34  1  0  0  0  0
 33 36  1  0  0  0  0
 33 38  1  0  0  0  0
 34 35  2  0  0  0  0
 34 42  1  0  0  0  0
 36 39  1  0  0  0  0
 36 40  1  0  0  0  0
 36 41  1  0  0  0  0
 42 43  1  0  0  0  0
 42 44  1  0  0  0  0
 43 45  1  0  0  0  0
 43 46  1  0  0  0  0
 43 47  1  0  0  0  0
M  CHG  1  24  -1
M  END
$$$$

  -OEChem-05262216243D

 47 46  0     1  0  0  0  0  0999 V2000
    0.3623   -5.8135    0.5347 C   0  0  0  0  0  0  0  0  0  0  0  0
    1.0081   -6.0131    1.5532 O   0  0  0  0  0  0  0  0  0  0  0  0
   -0.3802   -6.9562   -0.1320 C   0  0  0  0  0  0  0  0  0  0  0  0
   -0.0799   -7.0325   -1.1801 H   0  0  0  0  0  0  0  0  0  0  0  0
   -0.1550   -7.9001    0.3713 H   0  0  0  0  0  0  0  0  0  0  0  0
   -1.4567   -6.7752   -0.0841 H   0  0  0  0  0  0  0  0  0  0  0  0
    0.2868   -4.5541   -0.0143 N   0  0  0  0  0  0  0  0  0  0  0  0
    0.7718   -3.3288    0.6384 C   0  0  2  0  0  0  0  0  0  0  0  0
   -0.1685   -2.1400    0.3371 C   0  0  0  0  0  0  0  0  0  0  0  0
   -1.3688   -2.3408    0.2053 O   0  0  0  0  0  0  0  0  0  0  0  0
    2.2096   -3.0787    0.1623 C   0  0  0  0  0  0  0  0  0  0  0  0
   -0.3829   -4.4472   -0.7841 H   0  0  0  0  0  0  0  0  0  0  0  0
    0.7778   -3.4607    1.7257 H   0  0  0  0  0  0  0  0  0  0  0  0
    2.2313   -2.8829   -0.9148 H   0  0  0  0  0  0  0  0  0  0  0  0
    2.6495   -2.2230    0.6837 H   0  0  0  0  0  0  0  0  0  0  0  0
    2.8319   -3.9555    0.3676 H   0  0  0  0  0  0  0  0  0  0  0  0
    0.3190   -0.8595    0.1449 N   0  0  0  0  0  0  0  0  0  0  0  0
   -0.2013    0.1598   -0.7987 C   0  0  2  0  0  0  0  0  0  0  0  0
   -1.1672   -0.2802   -1.9341 C   0  0  0  0  0  0  0  0  0  0  0  0
   -2.0371    0.4853   -2.3334 O   0  0  0  0  0  0  0  0  0  0  0  0
    1.0496    0.7689   -1.4536 C   0  0  0  0  0  0  0  0  0  0  0  0
    1.8976    1.5645   -0.4448 C   0  0  0  0  0  0  0  0  0  0  0  0
    3.1406    2.1287   -1.1266 C   0  0  0  0  0  0  0  0  0  0  0  0
    4.0477    1.3051   -1.4039 O   0  5  0  0  0  0  0  0  0  0  0  0
    3.1804    3.3567   -1.3774 O   0  0  0  0  0  0  0  0  0  0  0  0
    1.3134   -0.7633    0.3407 H   0  0  0  0  0  0  0  0  0  0  0  0
   -0.7273    0.9290   -0.2242 H   0  0  0  0  0  0  0  0  0  0  0  0
    0.7449    1.4521   -2.2552 H   0  0  0  0  0  0  0  0  0  0  0  0
    1.6565   -0.0208   -1.9107 H   0  0  0  0  0  0  0  0  0  0  0  0
    1.3044    2.3834   -0.0262 H   0  0  0  0  0  0  0  0  0  0  0  0
    2.2178    0.9272    0.3838 H   0  0  0  0  0  0  0  0  0  0  0  0
   -1.0933   -1.5447   -2.4917 N   0  0  0  0  0  0  0  0  0  0  0  0
   -2.1982   -2.1918   -3.2021 C   0  0  2  0  0  0  0  0  0  0  0  0
   -2.4067   -3.6342   -2.6909 C   0  0  0  0  0  0  0  0  0  0  0  0
   -1.4470   -4.3296   -2.3592 O   0  0  0  0  0  0  0  0  0  0  0  0
   -1.8796   -2.1859   -4.6979 C   0  0  0  0  0  0  0  0  0  0  0  0
   -0.4684   -2.1777   -2.0003 H   0  0  0  0  0  0  0  0  0  0  0  0
   -3.1297   -1.6422   -3.0318 H   0  0  0  0  0  0  0  0  0  0  0  0
   -0.9531   -2.7348   -4.8949 H   0  0  0  0  0  0  0  0  0  0  0  0
   -2.6911   -2.6536   -5.2633 H   0  0  0  0  0  0  0  0  0  0  0  0
   -1.7572   -1.1574   -5.0519 H   0  0  0  0  0  0  0  0  0  0  0  0
   -3.6806   -4.1674   -2.6204 N   0  0  0  0  0  0  0  0  0  0  0  0
   -3.9656   -5.4654   -2.0235 C   0  0  0  0  0  0  0  0  0  0  0  0
   -4.4512   -3.5233   -2.7743 H   0  0  0  0  0  0  0  0  0  0  0  0
   -3.3947   -6.2537   -2.5250 H   0  0  0  0  0  0  0  0  0  0  0  0
   -3.7047   -5.4613   -0.9601 H   0  0  0  0  0  0  0  0  0  0  0  0
   -5.0302   -5.6983   -2.1200 H   0  0  0  0  0  0  0  0  0  0  0  0
  1  2  2  0  0  0  0
  1  3  1  0  0  0  0
  1  7  1  0  0  0  0
  3  4  1  0  0  0  0
  3  5  1  0  0  0  0
  3  6  1  0  0  0  0
  7  8  1  0  0  0  0
  7 12  1  0  0  0  0
  8  9  1  0  0  0  0
  8 11  1  0  0  0  0
  8 13  1  0  0  0  0
  9 10  2  0  0  0  0
  9 17  1  0  0  0  0
 11 14  1  0  0  0  0
 11 15  1  0  0  0  0
 11 16  1  0  0  0  0
 17 18  1  0  0  0  0
 17 26  1  0  0  0  0
 18 19  1  0  0  0  0
 18 21  1  0  0  0  0
 18 27  1  0  0  0  0
 19 20  2  0  0  0  0
 19 32  1  0  0  0  0
 21 22  1  0  0  0  0
 21 28  1  0  0  0  0
 21 29  1  0  0  0  0
 22 23  1  0  0  0  0
 22 30  1  0  0  0  0
 22 31  1  0  0  0  0
 23 24  1  0  0  0  0
 23 25  2  0  0  0  0
 32 33  1  0  0  0  0
 32 37  1  0  0  0  0
 33 34  1  0  0  0  0
 33 36  1  0  0  0  0
 33 38  1  0  0  0  0
 34 35  2  0  0  0  0
 34 42  1  0  0  0  0
 36 39  1  0  0  0  0
 36 40  1  0  0  0  0
 36 41  1  0  0  0  0
 42 43  1  0  0  0  0
 42 44  1  0  0  0  0
 43 45  1  0  0  0  0
 43 46  1  0  0  0  0
 43 47  1  0  0  0  0
M  CHG  1  24  -1
M  END
$$$$

  -OEChem-05262216243D

 47 46  0     1  0  0  0  0  0999 V2000
    0.2516   -5.6686    1.1393 C   0  0  0  0  0  0  0  0  0  0  0  0
    0.9460   -5.7739    2.1399 O   0  0  0  0  0  0  0  0  0  0  0  0
   -0.8009   -6.7189    0.8352 C   0  0  0  0  0  0  0  0  0  0  0  0
   -0.6075   -7.1680   -0.1420 H   0  0  0  0  0  0  0  0  0  0  0  0
   -0.7865   -7.5039    1.5962 H   0  0  0  0  0  0  0  0  0  0  0  0
   -1.7909   -6.2555    0.8221 H   0  0  0  0  0  0  0  0  0  0  0  0
    0.4080   -4.6095    0.2725 N   0  0  0  0  0  0  0  0  0  0  0  0
    1.1298   -3.3697    0.6134 C   0  0  2  0  0  0  0  0  0  0  0  0
    0.1679   -2.1592    0.6657 C   0  0  0  0  0  0  0  0  0  0  0  0
   -1.0266   -2.3410    0.8642 O   0  0  0  0  0  0  0  0  0  0  0  0
    2.2308   -3.1840   -0.4380 C   0  0  0  0  0  0  0  0  0  0  0  0
   -0.3259   -4.5409   -0.4399 H   0  0  0  0  0  0  0  0  0  0  0  0
    1.6003   -3.4506    1.5989 H   0  0  0  0  0  0  0  0  0  0  0  0
    1.7936   -3.0270   -1.4296 H   0  0  0  0  0  0  0  0  0  0  0  0
    2.8621   -2.3237   -0.1945 H   0  0  0  0  0  0  0  0  0  0  0  0
    2.8687   -4.0724   -0.4763 H   0  0  0  0  0  0  0  0  0  0  0  0
    0.5837   -0.8835    0.3316 N   0  0  0  0  0  0  0  0  0  0  0  0
   -0.1199    0.0754   -0.5601 C   0  0  2  0  0  0  0  0  0  0  0  0
   -1.2614   -0.4162   -1.5023 C   0  0  0  0  0  0  0  0  0  0  0  0
   -1.9858    0.3935   -2.0688 O   0  0  0  0  0  0  0  0  0  0  0  0
    1.0007    0.6591   -1.4408 C   0  0  0  0  0  0  0  0  0  0  0  0
    1.9892    1.5171   -0.6288 C   0  0  0  0  0  0  0  0  0  0  0  0
    3.0968    2.0528   -1.5323 C   0  0  0  0  0  0  0  0  0  0  0  0
    3.9217    1.2085   -1.9635 O   0  5  0  0  0  0  0  0  0  0  0  0
    3.1266    3.2814   -1.7821 O   0  0  0  0  0  0  0  0  0  0  0  0
    1.5966   -0.7911    0.2854 H   0  0  0  0  0  0  0  0  0  0  0  0
   -0.5541    0.8676    0.0577 H   0  0  0  0  0  0  0  0  0  0  0  0
    0.5624    1.2960   -2.2180 H   0  0  0  0  0  0  0  0  0  0  0  0
    1.5369   -0.1500   -1.9496 H   0  0  0  0  0  0  0  0  0  0  0  0
    1.4572    2.3540   -0.1662 H   0  0  0  0  0  0  0  0  0  0  0  0
    2.4509    0.9316    0.1703 H   0  0  0  0  0  0  0  0  0  0  0  0
   -1.4561   -1.7550   -1.7797 N   0  0  0  0  0  0  0  0  0  0  0  0
   -2.5364   -2.3281   -2.5809 C   0  0  2  0  0  0  0  0  0  0  0  0
   -2.7386   -3.8176   -2.2183 C   0  0  0  0  0  0  0  0  0  0  0  0
   -1.8453   -4.4647   -1.6708 O   0  0  0  0  0  0  0  0  0  0  0  0
   -2.1916   -2.1868   -4.0675 C   0  0  0  0  0  0  0  0  0  0  0  0
   -1.0731   -2.3759   -1.0676 H   0  0  0  0  0  0  0  0  0  0  0  0
   -3.4684   -1.7945   -2.3686 H   0  0  0  0  0  0  0  0  0  0  0  0
   -1.2543   -2.7052   -4.2930 H   0  0  0  0  0  0  0  0  0  0  0  0
   -2.9854   -2.6127   -4.6879 H   0  0  0  0  0  0  0  0  0  0  0  0
   -2.0765   -1.1316   -4.3340 H   0  0  0  0  0  0  0  0  0  0  0  0
   -3.9349   -4.4462   -2.5125 N   0  0  0  0  0  0  0  0  0  0  0  0
   -4.2162   -5.8360   -2.1765 C   0  0  0  0  0  0  0  0  0  0  0  0
   -4.6684   -3.8807   -2.9297 H   0  0  0  0  0  0  0  0  0  0  0  0
   -3.4991   -6.5012   -2.6687 H   0  0  0  0  0  0  0  0  0  0  0  0
   -4.1549   -5.9889   -1.0939 H   0  0  0  0  0  0  0  0  0  0  0  0
   -5.2229   -6.1077   -2.5080 H   0  0  0  0  0  0  0  0  0  0  0  0
  1  2  2  0  0  0  0
  1  3  1  0  0  0  0
  1  7  1  0  0  0  0
  3  4  1  0  0  0  0
  3  5  1  0  0  0  0
  3  6  1  0  0  0  0
  7  8  1  0  0  0  0
  7 12  1  0  0  0  0
  8  9  1  0  0  0  0
  8 11  1  0  0  0  0
  8 13  1  0  0  0  0
  9 10  2  0  0  0  0
  9 17  1  0  0  0  0
 11 14  1  0  0  0  0
 11 15  1  0  0  0  0
 11 16  1  0  0  0  0
 17 18  1  0  0  0  0
 17 26  1  0  0  0  0
 18 19  1  0  0  0  0
 18 21  1  0  0  0  0
 18 27  1  0  0  0  0
 19 20  2  0  0  0  0
 19 32  1  0  0  0  0
 21 22  1  0  0  0  0
 21 28  1  0  0  0  0
 21 29  1  0  0  0  0
 22 23  1  0  0  0  0
 22 30  1  0  0  0  0
 22 31  1  0  0  0  0
 23 24  1  0  0  0  0
 23 25  2  0  0  0  0
 32 33  1  0  0  0  0
 32 37  1  0  0  0  0
 33 34  1  0  0  0  0
 33 36  1  0  0  0  0
 33 38  1  0  0  0  0
 34 35  2  0  0  0  0
 34 42  1  0  0  0  0
 36 39  1  0  0  0  0
 36 40  1  0  0  0  0
 36 41  1  0  0  0  0
 42 43  1  0  0  0  0
 42 44  1  0  0  0  0
 43 45  1  0  0  0  0
 43 46  1  0  0  0  0
 43 47  1  0  0  0  0
M  CHG  1  24  -1
M  END
$$$$

  -OEChem-05262216243D

 47 46  0     1  0  0  0  0  0999 V2000
    0.2203   -5.6994    1.2705 C   0  0  0  0  0  0  0  0  0  0  0  0
    1.0875   -5.8428    2.1201 O   0  0  0  0  0  0  0  0  0  0  0  0
   -0.8927   -6.7235    1.1447 C   0  0  0  0  0  0  0  0  0  0  0  0
   -0.8955   -7.1485    0.1378 H   0  0  0  0  0  0  0  0  0  0  0  0
   -0.7519   -7.5284    1.8711 H   0  0  0  0  0  0  0  0  0  0  0  0
   -1.8575   -6.2441    1.3292 H   0  0  0  0  0  0  0  0  0  0  0  0
    0.2365   -4.6204    0.4149 N   0  0  0  0  0  0  0  0  0  0  0  0
    1.0603   -3.4155    0.6213 C   0  0  2  0  0  0  0  0  0  0  0  0
    0.1781   -2.1612    0.8216 C   0  0  0  0  0  0  0  0  0  0  0  0
   -0.9860   -2.2814    1.1860 O   0  0  0  0  0  0  0  0  0  0  0  0
    1.9758   -3.2830   -0.6021 C   0  0  0  0  0  0  0  0  0  0  0  0
   -0.6110   -4.5177   -0.1527 H   0  0  0  0  0  0  0  0  0  0  0  0
    1.6842   -3.5169    1.5155 H   0  0  0  0  0  0  0  0  0  0  0  0
    1.3840   -3.1180   -1.5087 H   0  0  0  0  0  0  0  0  0  0  0  0
    2.6710   -2.4460   -0.4814 H   0  0  0  0  0  0  0  0  0  0  0  0
    2.5638   -4.1971   -0.7319 H   0  0  0  0  0  0  0  0  0  0  0  0
    0.6062   -0.8988    0.4591 N   0  0  0  0  0  0  0  0  0  0  0  0
   -0.1021    0.0475   -0.4430 C   0  0  2  0  0  0  0  0  0  0  0  0
   -1.2651   -0.4479   -1.3635 C   0  0  0  0  0  0  0  0  0  0  0  0
   -1.8147    0.3294   -2.1347 O   0  0  0  0  0  0  0  0  0  0  0  0
    1.0242    0.6141   -1.3314 C   0  0  0  0  0  0  0  0  0  0  0  0
    2.0153    1.4795   -0.5290 C   0  0  0  0  0  0  0  0  0  0  0  0
    3.1290    1.9998   -1.4340 C   0  0  0  0  0  0  0  0  0  0  0  0
    3.9112    1.1389   -1.9093 O   0  5  0  0  0  0  0  0  0  0  0  0
    3.2105    3.2352   -1.6344 O   0  0  0  0  0  0  0  0  0  0  0  0
    1.6167   -0.8467    0.3460 H   0  0  0  0  0  0  0  0  0  0  0  0
   -0.5258    0.8508    0.1676 H   0  0  0  0  0  0  0  0  0  0  0  0
    0.5950    1.2456   -2.1174 H   0  0  0  0  0  0  0  0  0  0  0  0
    1.5556   -0.2047   -1.8297 H   0  0  0  0  0  0  0  0  0  0  0  0
    1.4850    2.3236   -0.0780 H   0  0  0  0  0  0  0  0  0  0  0  0
    2.4736    0.9027    0.2783 H   0  0  0  0  0  0  0  0  0  0  0  0
   -1.6932   -1.7600   -1.3978 N   0  0  0  0  0  0  0  0  0  0  0  0
   -2.6823   -2.3507   -2.2999 C   0  0  2  0  0  0  0  0  0  0  0  0
   -3.0711   -3.7655   -1.8170 C   0  0  0  0  0  0  0  0  0  0  0  0
   -2.2768   -4.4550   -1.1781 O   0  0  0  0  0  0  0  0  0  0  0  0
   -2.1022   -2.4420   -3.7171 C   0  0  0  0  0  0  0  0  0  0  0  0
   -1.4521   -2.3083   -0.5701 H   0  0  0  0  0  0  0  0  0  0  0  0
   -3.5801   -1.7247   -2.3091 H   0  0  0  0  0  0  0  0  0  0  0  0
   -1.1833   -3.0372   -3.7150 H   0  0  0  0  0  0  0  0  0  0  0  0
   -2.8212   -2.9116   -4.3950 H   0  0  0  0  0  0  0  0  0  0  0  0
   -1.8681   -1.4457   -4.1042 H   0  0  0  0  0  0  0  0  0  0  0  0
   -4.3172   -4.2828   -2.1210 N   0  0  0  0  0  0  0  0  0  0  0  0
   -4.7733   -5.5916   -1.6719 C   0  0  0  0  0  0  0  0  0  0  0  0
   -4.9650   -3.6780   -2.6178 H   0  0  0  0  0  0  0  0  0  0  0  0
   -4.1172   -6.3788   -2.0575 H   0  0  0  0  0  0  0  0  0  0  0  0
   -4.7790   -5.6400   -0.5779 H   0  0  0  0  0  0  0  0  0  0  0  0
   -5.7887   -5.7815   -2.0325 H   0  0  0  0  0  0  0  0  0  0  0  0
  1  2  2  0  0  0  0
  1  3  1  0  0  0  0
  1  7  1  0  0  0  0
  3  4  1  0  0  0  0
  3  5  1  0  0  0  0
  3  6  1  0  0  0  0
  7  8  1  0  0  0  0
  7 12  1  0  0  0  0
  8  9  1  0  0  0  0
  8 11  1  0  0  0  0
  8 13  1  0  0  0  0
  9 10  2  0  0  0  0
  9 17  1  0  0  0  0
 11 14  1  0  0  0  0
 11 15  1  0  0  0  0
 11 16  1  0  0  0  0
 17 18  1  0  0  0  0
 17 26  1  0  0  0  0
 18 19  1  0  0  0  0
 18 21  1  0  0  0  0
 18 27  1  0  0  0  0
 19 20  2  0  0  0  0
 19 32  1  0  0  0  0
 21 22  1  0  0  0  0
 21 28  1  0  0  0  0
 21 29  1  0  0  0  0
 22 23  1  0  0  0  0
 22 30  1  0  0  0  0
 22 31  1  0  0  0  0
 23 24  1  0  0  0  0
 23 25  2  0  0  0  0
 32 33  1  0  0  0  0
 32 37  1  0  0  0  0
 33 34  1  0  0  0  0
 33 36  1  0  0  0  0
 33 38  1  0  0  0  0
 34 35  2  0  0  0  0
 34 42  1  0  0  0  0
 36 39  1  0  0  0  0
 36 40  1  0  0  0  0
 36 41  1  0  0  0  0
 42 43  1  0  0  0  0
 42 44  1  0  0  0  0
 43 45  1  0  0  0  0
 43 46  1  0  0  0  0
 43 47  1  0  0  0  0
M  CHG  1  24  -1
M  END
$$$$

  -OEChem-05262216243D

 47 46  0     1  0  0  0  0  0999 V2000
    1.0322   -6.0393    1.5428 C   0  0  0  0  0  0  0  0  0  0  0  0
    2.1086   -5.8361    2.0804 O   0  0  0  0  0  0  0  0  0  0  0  0
    0.2241   -7.2712    1.9068 C   0  0  0  0  0  0  0  0  0  0  0  0
    0.0758   -7.8945    1.0217 H   0  0  0  0  0  0  0  0  0  0  0  0
    0.7494   -7.8570    2.6664 H   0  0  0  0  0  0  0  0  0  0  0  0
   -0.7501   -6.9748    2.3033 H   0  0  0  0  0  0  0  0  0  0  0  0
    0.5328   -5.1476    0.6176 N   0  0  0  0  0  0  0  0  0  0  0  0
    1.1201   -3.8302    0.3316 C   0  0  2  0  0  0  0  0  0  0  0  0
    0.0344   -2.7818    0.0012 C   0  0  0  0  0  0  0  0  0  0  0  0
   -1.1394   -3.1389   -0.0550 O   0  0  0  0  0  0  0  0  0  0  0  0
    2.1033   -3.9775   -0.8347 C   0  0  0  0  0  0  0  0  0  0  0  0
   -0.4311   -5.2879    0.3202 H   0  0  0  0  0  0  0  0  0  0  0  0
    1.6627   -3.4677    1.2118 H   0  0  0  0  0  0  0  0  0  0  0  0
    1.5829   -4.3166   -1.7358 H   0  0  0  0  0  0  0  0  0  0  0  0
    2.5913   -3.0220   -1.0529 H   0  0  0  0  0  0  0  0  0  0  0  0
    2.8800   -4.7071   -0.5849 H   0  0  0  0  0  0  0  0  0  0  0  0
    0.3971   -1.4506   -0.1034 N   0  0  0  0  0  0  0  0  0  0  0  0
   -0.2694   -0.2595   -0.6940 C   0  0  2  0  0  0  0  0  0  0  0  0
   -1.4827   -0.3497   -1.6739 C   0  0  0  0  0  0  0  0  0  0  0  0
   -1.9076    0.6741   -2.1924 O   0  0  0  0  0  0  0  0  0  0  0  0
    0.9043    0.4632   -1.3922 C   0  0  0  0  0  0  0  0  0  0  0  0
    1.9297    1.0094   -0.3767 C   0  0  0  0  0  0  0  0  0  0  0  0
    3.0888    1.6925   -1.0967 C   0  0  0  0  0  0  0  0  0  0  0  0
    3.8748    0.9397   -1.7241 O   0  5  0  0  0  0  0  0  0  0  0  0
    3.2043    2.9372   -1.0013 O   0  0  0  0  0  0  0  0  0  0  0  0
    1.3954   -1.3030    0.0409 H   0  0  0  0  0  0  0  0  0  0  0  0
   -0.6280    0.3619    0.1325 H   0  0  0  0  0  0  0  0  0  0  0  0
    0.5318    1.3146   -1.9730 H   0  0  0  0  0  0  0  0  0  0  0  0
    1.3966   -0.2160   -2.0977 H   0  0  0  0  0  0  0  0  0  0  0  0
    1.4404    1.7266    0.2894 H   0  0  0  0  0  0  0  0  0  0  0  0
    2.3409    0.2076    0.2415 H   0  0  0  0  0  0  0  0  0  0  0  0
   -2.2396   -1.4868   -1.8638 N   0  0  0  0  0  0  0  0  0  0  0  0
   -3.5692   -1.5589   -2.4904 C   0  0  2  0  0  0  0  0  0  0  0  0
   -4.5342   -2.4863   -1.7145 C   0  0  0  0  0  0  0  0  0  0  0  0
   -5.6708   -2.6852   -2.1282 O   0  0  0  0  0  0  0  0  0  0  0  0
   -3.3795   -2.0359   -3.9331 C   0  0  0  0  0  0  0  0  0  0  0  0
   -1.8898   -2.3188   -1.3943 H   0  0  0  0  0  0  0  0  0  0  0  0
   -4.0334   -0.5671   -2.5032 H   0  0  0  0  0  0  0  0  0  0  0  0
   -2.9527   -3.0434   -3.9515 H   0  0  0  0  0  0  0  0  0  0  0  0
   -4.3396   -2.0533   -4.4582 H   0  0  0  0  0  0  0  0  0  0  0  0
   -2.7065   -1.3591   -4.4688 H   0  0  0  0  0  0  0  0  0  0  0  0
   -4.1168   -3.1579   -0.5763 N   0  0  0  0  0  0  0  0  0  0  0  0
   -4.9556   -4.0821    0.1726 C   0  0  0  0  0  0  0  0  0  0  0  0
   -3.1593   -2.9961   -0.2589 H   0  0  0  0  0  0  0  0  0  0  0  0
   -4.3967   -4.4941    1.0181 H   0  0  0  0  0  0  0  0  0  0  0  0
   -5.8413   -3.5682    0.5600 H   0  0  0  0  0  0  0  0  0  0  0  0
   -5.2774   -4.9106   -0.4666 H   0  0  0  0  0  0  0  0  0  0  0  0
  1  2  2  0  0  0  0
  1  3  1  0  0  0  0
  1  7  1  0  0  0  0
  3  4  1  0  0  0  0
  3  5  1  0  0  0  0
  3  6  1  0  0  0  0
  7  8  1  0  0  0  0
  7 12  1  0  0  0  0
  8  9  1  0  0  0  0
  8 11  1  0  0  0  0
  8 13  1  0  0  0  0
  9 10  2  0  0  0  0
  9 17  1  0  0  0  0
 11 14  1  0  0  0  0
 11 15  1  0  0  0  0
 11 16  1  0  0  0  0
 17 18  1  0  0  0  0
 17 26  1  0  0  0  0
 18 19  1  0  0  0  0
 18 21  1  0  0  0  0
 18 27  1  0  0  0  0
 19 20  2  0  0  0  0
 19 32  1  0  0  0  0
 21 22  1  0  0  0  0
 21 28  1  0  0  0  0
 21 29  1  0  0  0  0
 22 23  1  0  0  0  0
 22 30  1  0  0  0  0
 22 31  1  0  0  0  0
 23 24  1  0  0  0  0
 23 25  2  0  0  0  0
 32 33  1  0  0  0  0
 32 37  1  0  0  0  0
 33 34  1  0  0  0  0
 33 36  1  0  0  0  0
 33 38  1  0  0  0  0
 34 35  2  0  0  0  0
 34 42  1  0  0  0  0
 36 39  1  0  0  0  0
 36 40  1  0  0  0  0
 36 41  1  0  0  0  0
 42 43  1  0  0  0  0
 42 44  1  0  0  0  0
 43 45  1  0  0  0  0
 43 46  1  0  0  0  0
 43 47  1  0  0  0  0
M  CHG  1  24  -1
M  END
$$$$

  -OEChem-05262216243D

 47 46  0     1  0  0  0  0  0999 V2000
    2.3776   -5.9486    1.4322 C   0  0  0  0  0  0  0  0  0  0  0  0
    3.3345   -5.4657    2.0164 O   0  0  0  0  0  0  0  0  0  0  0  0
    2.0210   -7.4092    1.6395 C   0  0  0  0  0  0  0  0  0  0  0  0
    0.9991   -7.4943    2.0173 H   0  0  0  0  0  0  0  0  0  0  0  0
    2.0982   -7.9491    0.6926 H   0  0  0  0  0  0  0  0  0  0  0  0
    2.7029   -7.8656    2.3625 H   0  0  0  0  0  0  0  0  0  0  0  0
    1.6079   -5.1747    0.5907 N   0  0  0  0  0  0  0  0  0  0  0  0
    1.7292   -3.7157    0.4583 C   0  0  2  0  0  0  0  0  0  0  0  0
    0.3608   -3.0601    0.1638 C   0  0  0  0  0  0  0  0  0  0  0  0
   -0.6273   -3.7775    0.0689 O   0  0  0  0  0  0  0  0  0  0  0  0
    2.7342   -3.4077   -0.6575 C   0  0  0  0  0  0  0  0  0  0  0  0
    0.7328   -5.5824    0.2638 H   0  0  0  0  0  0  0  0  0  0  0  0
    2.0971   -3.2889    1.3981 H   0  0  0  0  0  0  0  0  0  0  0  0
    2.3744   -3.7949   -1.6159 H   0  0  0  0  0  0  0  0  0  0  0  0
    2.8880   -2.3281   -0.7538 H   0  0  0  0  0  0  0  0  0  0  0  0
    3.7008   -3.8706   -0.4347 H   0  0  0  0  0  0  0  0  0  0  0  0
    0.2799   -1.6799    0.1115 N   0  0  0  0  0  0  0  0  0  0  0  0
   -0.7648   -0.7341   -0.3597 C   0  0  2  0  0  0  0  0  0  0  0  0
   -1.9689   -1.1701   -1.2586 C   0  0  0  0  0  0  0  0  0  0  0  0
   -2.5445   -0.3453   -1.9608 O   0  0  0  0  0  0  0  0  0  0  0  0
    0.0693    0.3716   -1.0489 C   0  0  0  0  0  0  0  0  0  0  0  0
    0.9268    1.1575   -0.0358 C   0  0  0  0  0  0  0  0  0  0  0  0
    1.7567    2.2214   -0.7483 C   0  0  0  0  0  0  0  0  0  0  0  0
    2.7285    1.8090   -1.4288 O   0  5  0  0  0  0  0  0  0  0  0  0
    1.4357    3.4251   -0.6039 O   0  0  0  0  0  0  0  0  0  0  0  0
    1.1842   -1.2289    0.2417 H   0  0  0  0  0  0  0  0  0  0  0  0
   -1.2384   -0.3084    0.5301 H   0  0  0  0  0  0  0  0  0  0  0  0
   -0.5874    1.0956   -1.5436 H   0  0  0  0  0  0  0  0  0  0  0  0
    0.7065   -0.0682   -1.8245 H   0  0  0  0  0  0  0  0  0  0  0  0
    0.2771    1.6363    0.7032 H   0  0  0  0  0  0  0  0  0  0  0  0
    1.6115    0.4965    0.5013 H   0  0  0  0  0  0  0  0  0  0  0  0
   -2.5479   -2.4228   -1.2393 N   0  0  0  0  0  0  0  0  0  0  0  0
   -3.6373   -2.8791   -2.1172 C   0  0  2  0  0  0  0  0  0  0  0  0
   -5.0382   -2.4358   -1.6246 C   0  0  0  0  0  0  0  0  0  0  0  0
   -5.9645   -3.2312   -1.4965 O   0  0  0  0  0  0  0  0  0  0  0  0
   -3.4998   -4.4014   -2.2372 C   0  0  0  0  0  0  0  0  0  0  0  0
   -2.0759   -3.1182   -0.6585 H   0  0  0  0  0  0  0  0  0  0  0  0
   -3.4994   -2.4522   -3.1160 H   0  0  0  0  0  0  0  0  0  0  0  0
   -3.6395   -4.8772   -1.2612 H   0  0  0  0  0  0  0  0  0  0  0  0
   -4.2495   -4.7978   -2.9291 H   0  0  0  0  0  0  0  0  0  0  0  0
   -2.5071   -4.6642   -2.6153 H   0  0  0  0  0  0  0  0  0  0  0  0
   -5.2644   -1.1002   -1.3572 N   0  0  0  0  0  0  0  0  0  0  0  0
   -6.5370   -0.5496   -0.9164 C   0  0  0  0  0  0  0  0  0  0  0  0
   -4.4708   -0.4737   -1.5207 H   0  0  0  0  0  0  0  0  0  0  0  0
   -7.2974   -0.6739   -1.6940 H   0  0  0  0  0  0  0  0  0  0  0  0
   -6.8763   -1.0522   -0.0048 H   0  0  0  0  0  0  0  0  0  0  0  0
   -6.4298    0.5180   -0.7026 H   0  0  0  0  0  0  0  0  0  0  0  0
  1  2  2  0  0  0  0
  1  3  1  0  0  0  0
  1  7  1  0  0  0  0
  3  4  1  0  0  0  0
  3  5  1  0  0  0  0
  3  6  1  0  0  0  0
  7  8  1  0  0  0  0
  7 12  1  0  0  0  0
  8  9  1  0  0  0  0
  8 11  1  0  0  0  0
  8 13  1  0  0  0  0
  9 10  2  0  0  0  0
  9 17  1  0  0  0  0
 11 14  1  0  0  0  0
 11 15  1  0  0  0  0
 11 16  1  0  0  0  0
 17 18  1  0  0  0  0
 17 26  1  0  0  0  0
 18 19  1  0  0  0  0
 18 21  1  0  0  0  0
 18 27  1  0  0  0  0
 19 20  2  0  0  0  0
 19 32  1  0  0  0  0
 21 22  1  0  0  0  0
 21 28  1  0  0  0  0
 21 29  1  0  0  0  0
 22 23  1  0  0  0  0
 22 30  1  0  0  0  0
 22 31  1  0  0  0  0
 23 24  1  0  0  0  0
 23 25  2  0  0  0  0
 32 33  1  0  0  0  0
 32 37  1  0  0  0  0
 33 34  1  0  0  0  0
 33 36  1  0  0  0  0
 33 38  1  0  0  0  0
 34 35  2  0  0  0  0
 34 42  1  0  0  0  0
 36 39  1  0  0  0  0
 36 40  1  0  0  0  0
 36 41  1  0  0  0  0
 42 43  1  0  0  0  0
 42 44  1  0  0  0  0
 43 45  1  0  0  0  0
 43 46  1  0  0  0  0
 43 47  1  0  0  0  0
M  CHG  1  24  -1
M  END
$$$$

  -OEChem-05262216243D

 47 46  0     1  0  0  0  0  0999 V2000
    1.7061   -5.8723    1.6712 C   0  0  0  0  0  0  0  0  0  0  0  0
    2.8624   -5.6277    1.9779 O   0  0  0  0  0  0  0  0  0  0  0  0
    1.0172   -7.1025    2.2335 C   0  0  0  0  0  0  0  0  0  0  0  0
    0.6284   -7.7188    1.4194 H   0  0  0  0  0  0  0  0  0  0  0  0
    1.7241   -7.6967    2.8191 H   0  0  0  0  0  0  0  0  0  0  0  0
    0.1891   -6.8015    2.8797 H   0  0  0  0  0  0  0  0  0  0  0  0
    1.0102   -5.0275    0.8340 N   0  0  0  0  0  0  0  0  0  0  0  0
    1.4767   -3.6993    0.4125 C   0  0  2  0  0  0  0  0  0  0  0  0
    0.2889   -2.7303    0.2178 C   0  0  0  0  0  0  0  0  0  0  0  0
   -0.8490   -3.1716    0.3078 O   0  0  0  0  0  0  0  0  0  0  0  0
    2.2715   -3.8477   -0.8888 C   0  0  0  0  0  0  0  0  0  0  0  0
    0.0089   -5.1962    0.7372 H   0  0  0  0  0  0  0  0  0  0  0  0
    2.1267   -3.2725    1.1844 H   0  0  0  0  0  0  0  0  0  0  0  0
    1.6375   -4.2607   -1.6798 H   0  0  0  0  0  0  0  0  0  0  0  0
    2.6544   -2.8770   -1.2198 H   0  0  0  0  0  0  0  0  0  0  0  0
    3.1234   -4.5182   -0.7380 H   0  0  0  0  0  0  0  0  0  0  0  0
    0.5371   -1.3803    0.0489 N   0  0  0  0  0  0  0  0  0  0  0  0
   -0.3120   -0.2647   -0.4390 C   0  0  2  0  0  0  0  0  0  0  0  0
   -1.6514   -0.5254   -1.2052 C   0  0  0  0  0  0  0  0  0  0  0  0
   -1.9493    0.1403   -2.1912 O   0  0  0  0  0  0  0  0  0  0  0  0
    0.6735    0.5933   -1.2661 C   0  0  0  0  0  0  0  0  0  0  0  0
    1.7481    1.2458   -0.3723 C   0  0  0  0  0  0  0  0  0  0  0  0
    2.7237    2.0645   -1.2124 C   0  0  0  0  0  0  0  0  0  0  0  0
    3.5653    1.4174   -1.8835 O   0  5  0  0  0  0  0  0  0  0  0  0
    2.6414    3.3155   -1.1723 O   0  0  0  0  0  0  0  0  0  0  0  0
    1.5304   -1.1547    0.0376 H   0  0  0  0  0  0  0  0  0  0  0  0
   -0.6170    0.3170    0.4361 H   0  0  0  0  0  0  0  0  0  0  0  0
    0.1380    1.4047   -1.7716 H   0  0  0  0  0  0  0  0  0  0  0  0
    1.1442   -0.0190   -2.0435 H   0  0  0  0  0  0  0  0  0  0  0  0
    1.2680    1.8965    0.3650 H   0  0  0  0  0  0  0  0  0  0  0  0
    2.3194    0.4903    0.1729 H   0  0  0  0  0  0  0  0  0  0  0  0
   -2.5909   -1.4538   -0.7993 N   0  0  0  0  0  0  0  0  0  0  0  0
   -3.8176   -1.7947   -1.5328 C   0  0  2  0  0  0  0  0  0  0  0  0
   -5.0051   -2.1348   -0.6083 C   0  0  0  0  0  0  0  0  0  0  0  0
   -4.8483   -2.7570    0.4365 O   0  0  0  0  0  0  0  0  0  0  0  0
   -3.5014   -2.9786   -2.4496 C   0  0  0  0  0  0  0  0  0  0  0  0
   -2.2763   -2.1110   -0.0788 H   0  0  0  0  0  0  0  0  0  0  0  0
   -4.1295   -0.9454   -2.1482 H   0  0  0  0  0  0  0  0  0  0  0  0
   -3.1827   -3.8436   -1.8586 H   0  0  0  0  0  0  0  0  0  0  0  0
   -4.3844   -3.2578   -3.0320 H   0  0  0  0  0  0  0  0  0  0  0  0
   -2.6969   -2.7152   -3.1436 H   0  0  0  0  0  0  0  0  0  0  0  0
   -6.2878   -1.7804   -0.9889 N   0  0  0  0  0  0  0  0  0  0  0  0
   -7.4667   -2.0382   -0.1727 C   0  0  0  0  0  0  0  0  0  0  0  0
   -6.3825   -1.2147   -1.8272 H   0  0  0  0  0  0  0  0  0  0  0  0
   -7.5706   -3.1108    0.0221 H   0  0  0  0  0  0  0  0  0  0  0  0
   -7.3921   -1.5105    0.7838 H   0  0  0  0  0  0  0  0  0  0  0  0
   -8.3667   -1.6937   -0.6908 H   0  0  0  0  0  0  0  0  0  0  0  0
  1  2  2  0  0  0  0
  1  3  1  0  0  0  0
  1  7  1  0  0  0  0
  3  4  1  0  0  0  0
  3  5  1  0  0  0  0
  3  6  1  0  0  0  0
  7  8  1  0  0  0  0
  7 12  1  0  0  0  0
  8  9  1  0  0  0  0
  8 11  1  0  0  0  0
  8 13  1  0  0  0  0
  9 10  2  0  0  0  0
  9 17  1  0  0  0  0
 11 14  1  0  0  0  0
 11 15  1  0  0  0  0
 11 16  1  0  0  0  0
 17 18  1  0  0  0  0
 17 26  1  0  0  0  0
 18 19  1  0  0  0  0
 18 21  1  0  0  0  0
 18 27  1  0  0  0  0
 19 20  2  0  0  0  0
 19 32  1  0  0  0  0
 21 22  1  0  0  0  0
 21 28  1  0  0  0  0
 21 29  1  0  0  0  0
 22 23  1  0  0  0  0
 22 30  1  0  0  0  0
 22 31  1  0  0  0  0
 23 24  1  0  0  0  0
 23 25  2  0  0  0  0
 32 33  1  0  0  0  0
 32 37  1  0  0  0  0
 33 34  1  0  0  0  0
 33 36  1  0  0  0  0
 33 38  1  0  0  0  0
 34 35  2  0  0  0  0
 34 42  1  0  0  0  0
 36 39  1  0  0  0  0
 36 40  1  0  0  0  0
 36 41  1  0  0  0  0
 42 43  1  0  0  0  0
 42 44  1  0  0  0  0
 43 45  1  0  0  0  0
 43 46  1  0  0  0  0
 43 47  1  0  0  0  0
M  CHG  1  24  -1
M  END
$$$$

  -OEChem-05262216243D

 47 46  0     1  0  0  0  0  0999 V2000
    1.3943   -5.9073    1.5876 C   0  0  0  0  0  0  0  0  0  0  0  0
    2.5734   -5.7552    1.8656 O   0  0  0  0  0  0  0  0  0  0  0  0
    0.6317   -7.0936    2.1483 C   0  0  0  0  0  0  0  0  0  0  0  0
    0.2267   -7.6963    1.3319 H   0  0  0  0  0  0  0  0  0  0  0  0
    1.2957   -7.7182    2.7526 H   0  0  0  0  0  0  0  0  0  0  0  0
   -0.1913   -6.7432    2.7763 H   0  0  0  0  0  0  0  0  0  0  0  0
    0.7419   -4.9997    0.7816 N   0  0  0  0  0  0  0  0  0  0  0  0
    1.3012   -3.7077    0.3613 C   0  0  2  0  0  0  0  0  0  0  0  0
    0.1931   -2.6416    0.2148 C   0  0  0  0  0  0  0  0  0  0  0  0
   -0.9769   -2.9820    0.3401 O   0  0  0  0  0  0  0  0  0  0  0  0
    2.0406   -3.8994   -0.9668 C   0  0  0  0  0  0  0  0  0  0  0  0
   -0.2718   -5.0880    0.7137 H   0  0  0  0  0  0  0  0  0  0  0  0
    2.0073   -3.3463    1.1170 H   0  0  0  0  0  0  0  0  0  0  0  0
    1.3499   -4.2405   -1.7446 H   0  0  0  0  0  0  0  0  0  0  0  0
    2.4959   -2.9589   -1.2936 H   0  0  0  0  0  0  0  0  0  0  0  0
    2.8351   -4.6436   -0.8539 H   0  0  0  0  0  0  0  0  0  0  0  0
    0.5453   -1.3153    0.0451 N   0  0  0  0  0  0  0  0  0  0  0  0
   -0.2478   -0.1615   -0.4391 C   0  0  2  0  0  0  0  0  0  0  0  0
   -1.6000   -0.4005   -1.1796 C   0  0  0  0  0  0  0  0  0  0  0  0
   -1.8035    0.0529   -2.3013 O   0  0  0  0  0  0  0  0  0  0  0  0
    0.7474    0.6523   -1.2944 C   0  0  0  0  0  0  0  0  0  0  0  0
    1.8669    1.2635   -0.4284 C   0  0  0  0  0  0  0  0  0  0  0  0
    2.8564    2.0421   -1.2907 C   0  0  0  0  0  0  0  0  0  0  0  0
    3.6777    1.3635   -1.9559 O   0  5  0  0  0  0  0  0  0  0  0  0
    2.8034    3.2955   -1.2730 O   0  0  0  0  0  0  0  0  0  0  0  0
    1.5509   -1.1622   -0.0041 H   0  0  0  0  0  0  0  0  0  0  0  0
   -0.5175    0.4421    0.4326 H   0  0  0  0  0  0  0  0  0  0  0  0
    0.2251    1.4777   -1.7914 H   0  0  0  0  0  0  0  0  0  0  0  0
    1.1762    0.0183   -2.0786 H   0  0  0  0  0  0  0  0  0  0  0  0
    1.4308    1.9331    0.3191 H   0  0  0  0  0  0  0  0  0  0  0  0
    2.4185    0.4847    0.1047 H   0  0  0  0  0  0  0  0  0  0  0  0
   -2.6529   -1.0565   -0.5712 N   0  0  0  0  0  0  0  0  0  0  0  0
   -3.9266   -1.3713   -1.2302 C   0  0  2  0  0  0  0  0  0  0  0  0
   -5.1013   -1.5145   -0.2396 C   0  0  0  0  0  0  0  0  0  0  0  0
   -4.9292   -1.9059    0.9097 O   0  0  0  0  0  0  0  0  0  0  0  0
   -3.7468   -2.6674   -2.0267 C   0  0  0  0  0  0  0  0  0  0  0  0
   -2.3844   -1.6459    0.2220 H   0  0  0  0  0  0  0  0  0  0  0  0
   -4.1868   -0.5615   -1.9193 H   0  0  0  0  0  0  0  0  0  0  0  0
   -3.4814   -3.4920   -1.3573 H   0  0  0  0  0  0  0  0  0  0  0  0
   -4.6705   -2.9261   -2.5524 H   0  0  0  0  0  0  0  0  0  0  0  0
   -2.9492   -2.5507   -2.7672 H   0  0  0  0  0  0  0  0  0  0  0  0
   -6.3885   -1.2299   -0.6615 N   0  0  0  0  0  0  0  0  0  0  0  0
   -7.5539   -1.3107    0.2092 C   0  0  0  0  0  0  0  0  0  0  0  0
   -6.5002   -0.8704   -1.6049 H   0  0  0  0  0  0  0  0  0  0  0  0
   -7.6811   -2.3316    0.5840 H   0  0  0  0  0  0  0  0  0  0  0  0
   -7.4420   -0.6329    1.0619 H   0  0  0  0  0  0  0  0  0  0  0  0
   -8.4568   -1.0294   -0.3410 H   0  0  0  0  0  0  0  0  0  0  0  0
  1  2  2  0  0  0  0
  1  3  1  0  0  0  0
  1  7  1  0  0  0  0
  3  4  1  0  0  0  0
  3  5  1  0  0  0  0
  3  6  1  0  0  0  0
  7  8  1  0  0  0  0
  7 12  1  0  0  0  0
  8  9  1  0  0  0  0
  8 11  1  0  0  0  0
  8 13  1  0  0  0  0
  9 10  2  0  0  0  0
  9 17  1  0  0  0  0
 11 14  1  0  0  0  0
 11 15  1  0  0  0  0
 11 16  1  0  0  0  0
 17 18  1  0  0  0  0
 17 26  1  0  0  0  0
 18 19  1  0  0  0  0
 18 21  1  0  0  0  0
 18 27  1  0  0  0  0
 19 20  2  0  0  0  0
 19 32  1  0  0  0  0
 21 22  1  0  0  0  0
 21 28  1  0  0  0  0
 21 29  1  0  0  0  0
 22 23  1  0  0  0  0
 22 30  1  0  0  0  0
 22 31  1  0  0  0  0
 23 24  1  0  0  0  0
 23 25  2  0  0  0  0
 32 33  1  0  0  0  0
 32 37  1  0  0  0  0
 33 34  1  0  0  0  0
 33 36  1  0  0  0  0
 33 38  1  0  0  0  0
 34 35  2  0  0  0  0
 34 42  1  0  0  0  0
 36 39  1  0  0  0  0
 36 40  1  0  0  0  0
 36 41  1  0  0  0  0
 42 43  1  0  0  0  0
 42 44  1  0  0  0  0
 43 45  1  0  0  0  0
 43 46  1  0  0  0  0
 43 47  1  0  0  0  0
M  CHG  1  24  -1
M  END
$$$$

  -OEChem-05262216243D

 47 46  0     1  0  0  0  0  0999 V2000
    1.1099   -5.9209    1.5145 C   0  0  0  0  0  0  0  0  0  0  0  0
    2.2909   -5.8475    1.8157 O   0  0  0  0  0  0  0  0  0  0  0  0
    0.2687   -7.0761    2.0252 C   0  0  0  0  0  0  0  0  0  0  0  0
   -0.1573   -7.6270    1.1832 H   0  0  0  0  0  0  0  0  0  0  0  0
    0.8841   -7.7581    2.6186 H   0  0  0  0  0  0  0  0  0  0  0  0
   -0.5424   -6.6977    2.6524 H   0  0  0  0  0  0  0  0  0  0  0  0
    0.5265   -4.9538    0.7252 N   0  0  0  0  0  0  0  0  0  0  0  0
    1.1669   -3.6845    0.3539 C   0  0  2  0  0  0  0  0  0  0  0  0
    0.1255   -2.5509    0.2308 C   0  0  0  0  0  0  0  0  0  0  0  0
   -1.0635   -2.8110    0.3786 O   0  0  0  0  0  0  0  0  0  0  0  0
    1.9124   -3.8758   -0.9707 C   0  0  0  0  0  0  0  0  0  0  0  0
   -0.4895   -4.9786    0.6420 H   0  0  0  0  0  0  0  0  0  0  0  0
    1.8818   -3.3888    1.1294 H   0  0  0  0  0  0  0  0  0  0  0  0
    1.2128   -4.1425   -1.7693 H   0  0  0  0  0  0  0  0  0  0  0  0
    2.4316   -2.9556   -1.2571 H   0  0  0  0  0  0  0  0  0  0  0  0
    2.6555   -4.6737   -0.8758 H   0  0  0  0  0  0  0  0  0  0  0  0
    0.5525   -1.2469    0.0641 N   0  0  0  0  0  0  0  0  0  0  0  0
   -0.2066   -0.0799   -0.4346 C   0  0  2  0  0  0  0  0  0  0  0  0
   -1.5525   -0.3381   -1.1724 C   0  0  0  0  0  0  0  0  0  0  0  0
   -1.6764   -0.1394   -2.3770 O   0  0  0  0  0  0  0  0  0  0  0  0
    0.7929    0.7003   -1.3133 C   0  0  0  0  0  0  0  0  0  0  0  0
    1.9341    1.2987   -0.4682 C   0  0  0  0  0  0  0  0  0  0  0  0
    2.9285    2.0447   -1.3525 C   0  0  0  0  0  0  0  0  0  0  0  0
    3.8090    1.3523   -1.9204 O   0  5  0  0  0  0  0  0  0  0  0  0
    2.8092    3.2891   -1.4589 O   0  0  0  0  0  0  0  0  0  0  0  0
    1.5625   -1.1469   -0.0196 H   0  0  0  0  0  0  0  0  0  0  0  0
   -0.4661    0.5472    0.4237 H   0  0  0  0  0  0  0  0  0  0  0  0
    0.2764    1.5245   -1.8188 H   0  0  0  0  0  0  0  0  0  0  0  0
    1.2021    0.0460   -2.0914 H   0  0  0  0  0  0  0  0  0  0  0  0
    1.5222    1.9880    0.2750 H   0  0  0  0  0  0  0  0  0  0  0  0
    2.4730    0.5143    0.0699 H   0  0  0  0  0  0  0  0  0  0  0  0
   -2.6821   -0.6945   -0.4595 N   0  0  0  0  0  0  0  0  0  0  0  0
   -3.9796   -1.0000   -1.0747 C   0  0  2  0  0  0  0  0  0  0  0  0
   -5.1602   -0.8451   -0.0934 C   0  0  0  0  0  0  0  0  0  0  0  0
   -5.0161   -1.0140    1.1127 O   0  0  0  0  0  0  0  0  0  0  0  0
   -3.9384   -2.4326   -1.6180 C   0  0  0  0  0  0  0  0  0  0  0  0
   -2.4909   -1.1257    0.4463 H   0  0  0  0  0  0  0  0  0  0  0  0
   -4.1541   -0.3066   -1.9038 H   0  0  0  0  0  0  0  0  0  0  0  0
   -3.7533   -3.1426   -0.8055 H   0  0  0  0  0  0  0  0  0  0  0  0
   -4.8877   -2.6883   -2.0975 H   0  0  0  0  0  0  0  0  0  0  0  0
   -3.1390   -2.5373   -2.3583 H   0  0  0  0  0  0  0  0  0  0  0  0
   -6.4198   -0.5434   -0.5811 N   0  0  0  0  0  0  0  0  0  0  0  0
   -7.5881   -0.3621    0.2704 C   0  0  0  0  0  0  0  0  0  0  0  0
   -6.5035   -0.3715   -1.5787 H   0  0  0  0  0  0  0  0  0  0  0  0
   -7.7922   -1.2743    0.8405 H   0  0  0  0  0  0  0  0  0  0  0  0
   -7.4265    0.4636    0.9712 H   0  0  0  0  0  0  0  0  0  0  0  0
   -8.4671   -0.1323   -0.3390 H   0  0  0  0  0  0  0  0  0  0  0  0
  1  2  2  0  0  0  0
  1  3  1  0  0  0  0
  1  7  1  0  0  0  0
  3  4  1  0  0  0  0
  3  5  1  0  0  0  0
  3  6  1  0  0  0  0
  7  8  1  0  0  0  0
  7 12  1  0  0  0  0
  8  9  1  0  0  0  0
  8 11  1  0  0  0  0
  8 13  1  0  0  0  0
  9 10  2  0  0  0  0
  9 17  1  0  0  0  0
 11 14  1  0  0  0  0
 11 15  1  0  0  0  0
 11 16  1  0  0  0  0
 17 18  1  0  0  0  0
 17 26  1  0  0  0  0
 18 19  1  0  0  0  0
 18 21  1  0  0  0  0
 18 27  1  0  0  0  0
 19 20  2  0  0  0  0
 19 32  1  0  0  0  0
 21 22  1  0  0  0  0
 21 28  1  0  0  0  0
 21 29  1  0  0  0  0
 22 23  1  0  0  0  0
 22 30  1  0  0  0  0
 22 31  1  0  0  0  0
 23 24  1  0  0  0  0
 23 25  2  0  0  0  0
 32 33  1  0  0  0  0
 32 37  1  0  0  0  0
 33 34  1  0  0  0  0
 33 36  1  0  0  0  0
 33 38  1  0  0  0  0
 34 35  2  0  0  0  0
 34 42  1  0  0  0  0
 36 39  1  0  0  0  0
 36 40  1  0  0  0  0
 36 41  1  0  0  0  0
 42 43  1  0  0  0  0
 42 44  1  0  0  0  0
 43 45  1  0  0  0  0
 43 46  1  0  0  0  0
 43 47  1  0  0  0  0
M  CHG  1  24  -1
M  END
$$$$

  -OEChem-05262216243D

 47 46  0     1  0  0  0  0  0999 V2000
    0.8935   -5.9235    1.4495 C   0  0  0  0  0  0  0  0  0  0  0  0
    2.0815   -5.9265    1.7314 O   0  0  0  0  0  0  0  0  0  0  0  0
   -0.0051   -7.0410    1.9466 C   0  0  0  0  0  0  0  0  0  0  0  0
   -0.4618   -7.5572    1.0987 H   0  0  0  0  0  0  0  0  0  0  0  0
    0.5756   -7.7626    2.5280 H   0  0  0  0  0  0  0  0  0  0  0  0
   -0.7938   -6.6303    2.5818 H   0  0  0  0  0  0  0  0  0  0  0  0
    0.3549   -4.9044    0.6949 N   0  0  0  0  0  0  0  0  0  0  0  0
    1.0605   -3.6649    0.3423 C   0  0  2  0  0  0  0  0  0  0  0  0
    0.0818   -2.4729    0.2646 C   0  0  0  0  0  0  0  0  0  0  0  0
   -1.1168   -2.6680    0.4415 O   0  0  0  0  0  0  0  0  0  0  0  0
    1.7706   -3.8680   -1.0001 C   0  0  0  0  0  0  0  0  0  0  0  0
   -0.6618   -4.8691    0.6256 H   0  0  0  0  0  0  0  0  0  0  0  0
    1.8041   -3.4285    1.1110 H   0  0  0  0  0  0  0  0  0  0  0  0
    1.0431   -4.0779   -1.7906 H   0  0  0  0  0  0  0  0  0  0  0  0
    2.3361   -2.9726   -1.2771 H   0  0  0  0  0  0  0  0  0  0  0  0
    2.4692   -4.7080   -0.9360 H   0  0  0  0  0  0  0  0  0  0  0  0
    0.5714   -1.1893    0.1046 N   0  0  0  0  0  0  0  0  0  0  0  0
   -0.1613   -0.0132   -0.4067 C   0  0  2  0  0  0  0  0  0  0  0  0
   -1.5011   -0.2822   -1.1445 C   0  0  0  0  0  0  0  0  0  0  0  0
   -1.5491   -0.3973   -2.3655 O   0  0  0  0  0  0  0  0  0  0  0  0
    0.8309    0.7450   -1.3090 C   0  0  0  0  0  0  0  0  0  0  0  0
    1.9921    1.3406   -0.4917 C   0  0  0  0  0  0  0  0  0  0  0  0
    2.9770    2.0647   -1.4045 C   0  0  0  0  0  0  0  0  0  0  0  0
    3.8921    1.3723   -1.9143 O   0  5  0  0  0  0  0  0  0  0  0  0
    2.8067    3.2923   -1.6008 O   0  0  0  0  0  0  0  0  0  0  0  0
    1.5809   -1.1353   -0.0164 H   0  0  0  0  0  0  0  0  0  0  0  0
   -0.4095    0.6312    0.4420 H   0  0  0  0  0  0  0  0  0  0  0  0
    0.3115    1.5642   -1.8191 H   0  0  0  0  0  0  0  0  0  0  0  0
    1.2230    0.0751   -2.0829 H   0  0  0  0  0  0  0  0  0  0  0  0
    1.6020    2.0452    0.2490 H   0  0  0  0  0  0  0  0  0  0  0  0
    2.5298    0.5566    0.0479 H   0  0  0  0  0  0  0  0  0  0  0  0
   -2.6883   -0.3178   -0.4361 N   0  0  0  0  0  0  0  0  0  0  0  0
   -3.9923   -0.6349   -1.0297 C   0  0  2  0  0  0  0  0  0  0  0  0
   -5.1714   -0.1319   -0.1719 C   0  0  0  0  0  0  0  0  0  0  0  0
   -5.0595    0.0107    1.0413 O   0  0  0  0  0  0  0  0  0  0  0  0
   -4.0940   -2.1534   -1.2138 C   0  0  0  0  0  0  0  0  0  0  0  0
   -2.6018   -0.4217    0.5733 H   0  0  0  0  0  0  0  0  0  0  0  0
   -4.0671   -0.1477   -2.0073 H   0  0  0  0  0  0  0  0  0  0  0  0
   -4.0070   -2.6608   -0.2476 H   0  0  0  0  0  0  0  0  0  0  0  0
   -5.0529   -2.4225   -1.6659 H   0  0  0  0  0  0  0  0  0  0  0  0
   -3.2925   -2.5135   -1.8664 H   0  0  0  0  0  0  0  0  0  0  0  0
   -6.3889    0.1396   -0.7709 N   0  0  0  0  0  0  0  0  0  0  0  0
   -7.5492    0.6344   -0.0419 C   0  0  0  0  0  0  0  0  0  0  0  0
   -6.4423    0.0454   -1.7808 H   0  0  0  0  0  0  0  0  0  0  0  0
   -7.8667   -0.0947    0.7108 H   0  0  0  0  0  0  0  0  0  0  0  0
   -7.3131    1.5794    0.4586 H   0  0  0  0  0  0  0  0  0  0  0  0
   -8.3822    0.8068   -0.7301 H   0  0  0  0  0  0  0  0  0  0  0  0
  1  2  2  0  0  0  0
  1  3  1  0  0  0  0
  1  7  1  0  0  0  0
  3  4  1  0  0  0  0
  3  5  1  0  0  0  0
  3  6  1  0  0  0  0
  7  8  1  0  0  0  0
  7 12  1  0  0  0  0
  8  9  1  0  0  0  0
  8 11  1  0  0  0  0
  8 13  1  0  0  0  0
  9 10  2  0  0  0  0
  9 17  1  0  0  0  0
 11 14  1  0  0  0  0
 11 15  1  0  0  0  0
 11 16  1  0  0  0  0
 17 18  1  0  0  0  0
 17 26  1  0  0  0  0
 18 19  1  0  0  0  0
 18 21  1  0  0  0  0
 18 27  1  0  0  0  0
 19 20  2  0  0  0  0
 19 32  1  0  0  0  0
 21 22  1  0  0  0  0
 21 28  1  0  0  0  0
 21 29  1  0  0  0  0
 22 23  1  0  0  0  0
 22 30  1  0  0  0  0
 22 31  1  0  0  0  0
 23 24  1  0  0  0  0
 23 25  2  0  0  0  0
 32 33  1  0  0  0  0
 32 37  1  0  0  0  0
 33 34  1  0  0  0  0
 33 36  1  0  0  0  0
 33 38  1  0  0  0  0
 34 35  2  0  0  0  0
 34 42  1  0  0  0  0
 36 39  1  0  0  0  0
 36 40  1  0  0  0  0
 36 41  1  0  0  0  0
 42 43  1  0  0  0  0
 42 44  1  0  0  0  0
 43 45  1  0  0  0  0
 43 46  1  0  0  0  0
 43 47  1  0  0  0  0
M  CHG  1  24  -1
M  END
$$$$

  -OEChem-05262216243D

 47 46  0     1  0  0  0  0  0999 V2000
    0.8231   -5.9628    1.3335 C   0  0  0  0  0  0  0  0  0  0  0  0
    2.0253   -6.0242    1.5390 O   0  0  0  0  0  0  0  0  0  0  0  0
   -0.0852   -7.0819    1.8095 C   0  0  0  0  0  0  0  0  0  0  0  0
   -0.6551   -7.4830    0.9677 H   0  0  0  0  0  0  0  0  0  0  0  0
    0.5072   -7.8884    2.2507 H   0  0  0  0  0  0  0  0  0  0  0  0
   -0.7800   -6.7012    2.5623 H   0  0  0  0  0  0  0  0  0  0  0  0
    0.2760   -4.8775    0.6848 N   0  0  0  0  0  0  0  0  0  0  0  0
    1.0048   -3.6475    0.3475 C   0  0  2  0  0  0  0  0  0  0  0  0
    0.0656   -2.4222    0.3771 C   0  0  0  0  0  0  0  0  0  0  0  0
   -1.1225   -2.5780    0.6470 O   0  0  0  0  0  0  0  0  0  0  0  0
    1.6274   -3.8123   -1.0429 C   0  0  0  0  0  0  0  0  0  0  0  0
   -0.7411   -4.8052    0.6790 H   0  0  0  0  0  0  0  0  0  0  0  0
    1.7989   -3.4721    1.0811 H   0  0  0  0  0  0  0  0  0  0  0  0
    0.8466   -3.9574   -1.7965 H   0  0  0  0  0  0  0  0  0  0  0  0
    2.2099   -2.9259   -1.3132 H   0  0  0  0  0  0  0  0  0  0  0  0
    2.2951   -4.6793   -1.0593 H   0  0  0  0  0  0  0  0  0  0  0  0
    0.5807   -1.1504    0.2023 N   0  0  0  0  0  0  0  0  0  0  0  0
   -0.1590    0.0098   -0.3316 C   0  0  2  0  0  0  0  0  0  0  0  0
   -1.4937   -0.3010   -1.0571 C   0  0  0  0  0  0  0  0  0  0  0  0
   -1.5036   -0.7414   -2.2030 O   0  0  0  0  0  0  0  0  0  0  0  0
    0.8013    0.7595   -1.2716 C   0  0  0  0  0  0  0  0  0  0  0  0
    1.9707    1.3881   -0.4932 C   0  0  0  0  0  0  0  0  0  0  0  0
    2.9270    2.1060   -1.4411 C   0  0  0  0  0  0  0  0  0  0  0  0
    3.9596    1.4834   -1.7907 O   0  5  0  0  0  0  0  0  0  0  0  0
    2.6088    3.2540   -1.8359 O   0  0  0  0  0  0  0  0  0  0  0  0
    1.5819   -1.1248    0.0202 H   0  0  0  0  0  0  0  0  0  0  0  0
   -0.4060    0.6704    0.5043 H   0  0  0  0  0  0  0  0  0  0  0  0
    0.2580    1.5585   -1.7891 H   0  0  0  0  0  0  0  0  0  0  0  0
    1.1864    0.0773   -2.0383 H   0  0  0  0  0  0  0  0  0  0  0  0
    1.5885    2.1052    0.2389 H   0  0  0  0  0  0  0  0  0  0  0  0
    2.5267    0.6211    0.0531 H   0  0  0  0  0  0  0  0  0  0  0  0
   -2.7011   -0.0398   -0.4364 N   0  0  0  0  0  0  0  0  0  0  0  0
   -4.0120   -0.3629   -1.0086 C   0  0  2  0  0  0  0  0  0  0  0  0
   -5.1288    0.5494   -0.4631 C   0  0  0  0  0  0  0  0  0  0  0  0
   -5.0724    1.0030    0.6752 O   0  0  0  0  0  0  0  0  0  0  0  0
   -4.3274   -1.8300   -0.7006 C   0  0  0  0  0  0  0  0  0  0  0  0
   -2.6693    0.2258    0.5453 H   0  0  0  0  0  0  0  0  0  0  0  0
   -3.9769   -0.2240   -2.0940 H   0  0  0  0  0  0  0  0  0  0  0  0
   -4.3526   -1.9964    0.3812 H   0  0  0  0  0  0  0  0  0  0  0  0
   -5.2975   -2.1104   -1.1209 H   0  0  0  0  0  0  0  0  0  0  0  0
   -3.5614   -2.4822   -1.1326 H   0  0  0  0  0  0  0  0  0  0  0  0
   -6.2207    0.8508   -1.2576 N   0  0  0  0  0  0  0  0  0  0  0  0
   -7.2791    1.7653   -0.8496 C   0  0  0  0  0  0  0  0  0  0  0  0
   -6.2002    0.5190   -2.2174 H   0  0  0  0  0  0  0  0  0  0  0  0
   -7.7547    1.4153    0.0725 H   0  0  0  0  0  0  0  0  0  0  0  0
   -6.8736    2.7681   -0.6796 H   0  0  0  0  0  0  0  0  0  0  0  0
   -8.0441    1.8280   -1.6293 H   0  0  0  0  0  0  0  0  0  0  0  0
  1  2  2  0  0  0  0
  1  3  1  0  0  0  0
  1  7  1  0  0  0  0
  3  4  1  0  0  0  0
  3  5  1  0  0  0  0
  3  6  1  0  0  0  0
  7  8  1  0  0  0  0
  7 12  1  0  0  0  0
  8  9  1  0  0  0  0
  8 11  1  0  0  0  0
  8 13  1  0  0  0  0
  9 10  2  0  0  0  0
  9 17  1  0  0  0  0
 11 14  1  0  0  0  0
 11 15  1  0  0  0  0
 11 16  1  0  0  0  0
 17 18  1  0  0  0  0
 17 26  1  0  0  0  0
 18 19  1  0  0  0  0
 18 21  1  0  0  0  0
 18 27  1  0  0  0  0
 19 20  2  0  0  0  0
 19 32  1  0  0  0  0
 21 22  1  0  0  0  0
 21 28  1  0  0  0  0
 21 29  1  0  0  0  0
 22 23  1  0  0  0  0
 22 30  1  0  0  0  0
 22 31  1  0  0  0  0
 23 24  1  0  0  0  0
 23 25  2  0  0  0  0
 32 33  1  0  0  0  0
 32 37  1  0  0  0  0
 33 34  1  0  0  0  0
 33 36  1  0  0  0  0
 33 38  1  0  0  0  0
 34 35  2  0  0  0  0
 34 42  1  0  0  0  0
 36 39  1  0  0  0  0
 36 40  1  0  0  0  0
 36 41  1  0  0  0  0
 42 43  1  0  0  0  0
 42 44  1  0  0  0  0
 43 45  1  0  0  0  0
 43 46  1  0  0  0  0
 43 47  1  0  0  0  0
M  CHG  1  24  -1
M  END
$$$$

  -OEChem-05262216243D

 47 46  0     1  0  0  0  0  0999 V2000
    0.6952   -5.8983    1.3818 C   0  0  0  0  0  0  0  0  0  0  0  0
    1.9008   -6.0019    1.5467 O   0  0  0  0  0  0  0  0  0  0  0  0
   -0.2374   -6.9697    1.9163 C   0  0  0  0  0  0  0  0  0  0  0  0
   -0.8468   -7.3726    1.1037 H   0  0  0  0  0  0  0  0  0  0  0  0
    0.3389   -7.7846    2.3628 H   0  0  0  0  0  0  0  0  0  0  0  0
   -0.8946   -6.5433    2.6781 H   0  0  0  0  0  0  0  0  0  0  0  0
    0.1665   -4.8074    0.7276 N   0  0  0  0  0  0  0  0  0  0  0  0
    0.9258   -3.6082    0.3500 C   0  0  2  0  0  0  0  0  0  0  0  0
    0.0399   -2.3460    0.4303 C   0  0  0  0  0  0  0  0  0  0  0  0
   -1.1432   -2.4540    0.7458 O   0  0  0  0  0  0  0  0  0  0  0  0
    1.4611   -3.7968   -1.0730 C   0  0  0  0  0  0  0  0  0  0  0  0
   -0.8467   -4.6961    0.7569 H   0  0  0  0  0  0  0  0  0  0  0  0
    1.7666   -3.4654    1.0373 H   0  0  0  0  0  0  0  0  0  0  0  0
    0.6337   -3.9163   -1.7802 H   0  0  0  0  0  0  0  0  0  0  0  0
    2.0562   -2.9305   -1.3789 H   0  0  0  0  0  0  0  0  0  0  0  0
    2.0971   -4.6860   -1.1249 H   0  0  0  0  0  0  0  0  0  0  0  0
    0.5974   -1.0909    0.2625 N   0  0  0  0  0  0  0  0  0  0  0  0
   -0.1143    0.0713   -0.3035 C   0  0  2  0  0  0  0  0  0  0  0  0
   -1.4325   -0.2368   -1.0571 C   0  0  0  0  0  0  0  0  0  0  0  0
   -1.4223   -0.9006   -2.0905 O   0  0  0  0  0  0  0  0  0  0  0  0
    0.8671    0.7913   -1.2429 C   0  0  0  0  0  0  0  0  0  0  0  0
    2.0356    1.4182   -0.4630 C   0  0  0  0  0  0  0  0  0  0  0  0
    3.0072    2.1041   -1.4183 C   0  0  0  0  0  0  0  0  0  0  0  0
    2.8434    3.3276   -1.6438 O   0  5  0  0  0  0  0  0  0  0  0  0
    3.8920    1.3852   -1.9443 O   0  0  0  0  0  0  0  0  0  0  0  0
    1.5934   -1.1040    0.0547 H   0  0  0  0  0  0  0  0  0  0  0  0
   -0.3693    0.7467    0.5182 H   0  0  0  0  0  0  0  0  0  0  0  0
    0.3417    1.5872   -1.7831 H   0  0  0  0  0  0  0  0  0  0  0  0
    1.2527    0.0887   -1.9908 H   0  0  0  0  0  0  0  0  0  0  0  0
    1.6533    2.1508    0.2539 H   0  0  0  0  0  0  0  0  0  0  0  0
    2.5794    0.6551    0.1005 H   0  0  0  0  0  0  0  0  0  0  0  0
   -2.6299    0.3084   -0.6318 N   0  0  0  0  0  0  0  0  0  0  0  0
   -3.9298    0.0255   -1.2489 C   0  0  2  0  0  0  0  0  0  0  0  0
   -4.9771    1.1129   -0.9352 C   0  0  0  0  0  0  0  0  0  0  0  0
   -4.8978    1.7857    0.0875 O   0  0  0  0  0  0  0  0  0  0  0  0
   -4.4204   -1.3374   -0.7480 C   0  0  0  0  0  0  0  0  0  0  0  0
   -2.6267    0.8341    0.2398 H   0  0  0  0  0  0  0  0  0  0  0  0
   -3.8102   -0.0113   -2.3366 H   0  0  0  0  0  0  0  0  0  0  0  0
   -4.5287   -1.3266    0.3413 H   0  0  0  0  0  0  0  0  0  0  0  0
   -5.3877   -1.5854   -1.1944 H   0  0  0  0  0  0  0  0  0  0  0  0
   -3.7056   -2.1222   -1.0159 H   0  0  0  0  0  0  0  0  0  0  0  0
   -6.0322    1.3255   -1.8046 N   0  0  0  0  0  0  0  0  0  0  0  0
   -7.0336    2.3651   -1.6086 C   0  0  0  0  0  0  0  0  0  0  0  0
   -6.0395    0.7892   -2.6673 H   0  0  0  0  0  0  0  0  0  0  0  0
   -7.5752    2.2027   -0.6710 H   0  0  0  0  0  0  0  0  0  0  0  0
   -6.5594    3.3516   -1.5770 H   0  0  0  0  0  0  0  0  0  0  0  0
   -7.7550    2.3536   -2.4311 H   0  0  0  0  0  0  0  0  0  0  0  0
  1  2  2  0  0  0  0
  1  3  1  0  0  0  0
  1  7  1  0  0  0  0
  3  4  1  0  0  0  0
  3  5  1  0  0  0  0
  3  6  1  0  0  0  0
  7  8  1  0  0  0  0
  7 12  1  0  0  0  0
  8  9  1  0  0  0  0
  8 11  1  0  0  0  0
  8 13  1  0  0  0  0
  9 10  2  0  0  0  0
  9 17  1  0  0  0  0
 11 14  1  0  0  0  0
 11 15  1  0  0  0  0
 11 16  1  0  0  0  0
 17 18  1  0  0  0  0
 17 26  1  0  0  0  0
 18 19  1  0  0  0  0
 18 21  1  0  0  0  0
 18 27  1  0  0  0  0
 19 20  2  0  0  0  0
 19 32  1  0  0  0  0
 21 22  1  0  0  0  0
 21 28  1  0  0  0  0
 21 29  1  0  0  0  0
 22 23  1  0  0  0  0
 22 30  1  0  0  0  0
 22 31  1  0  0  0  0
 23 24  1  0  0  0  0
 23 25  2  0  0  0  0
 32 33  1  0  0  0  0
 32 37  1  0  0  0  0
 33 34  1  0  0  0  0
 33 36  1  0  0  0  0
 33 38  1  0  0  0  0
 34 35  2  0  0  0  0
 34 42  1  0  0  0  0
 36 39  1  0  0  0  0
 36 40  1  0  0  0  0
 36 41  1  0  0  0  0
 42 43  1  0  0  0  0
 42 44  1  0  0  0  0
 43 45  1  0  0  0  0
 43 46  1  0  0  0  0
 43 47  1  0  0  0  0
M  CHG  1  24  -1
M  END
$$$$

  -OEChem-05262216243D

 47 46  0     1  0  0  0  0  0999 V2000
    0.6837   -5.8912    1.3891 C   0  0  0  0  0  0  0  0  0  0  0  0
    1.8923   -5.9995    1.5270 O   0  0  0  0  0  0  0  0  0  0  0  0
   -0.2385   -6.9738    1.9196 C   0  0  0  0  0  0  0  0  0  0  0  0
   -0.8770   -7.3467    1.1150 H   0  0  0  0  0  0  0  0  0  0  0  0
    0.3472   -7.8063    2.3190 H   0  0  0  0  0  0  0  0  0  0  0  0
   -0.8671   -6.5696    2.7169 H   0  0  0  0  0  0  0  0  0  0  0  0
    0.1439   -4.7884    0.7647 N   0  0  0  0  0  0  0  0  0  0  0  0
    0.8996   -3.5891    0.3811 C   0  0  2  0  0  0  0  0  0  0  0  0
    0.0213   -2.3246    0.4923 C   0  0  0  0  0  0  0  0  0  0  0  0
   -1.1509   -2.4237    0.8497 O   0  0  0  0  0  0  0  0  0  0  0  0
    1.4027   -3.7647   -1.0554 C   0  0  0  0  0  0  0  0  0  0  0  0
   -0.8682   -4.6749    0.8161 H   0  0  0  0  0  0  0  0  0  0  0  0
    1.7562   -3.4565    1.0506 H   0  0  0  0  0  0  0  0  0  0  0  0
    0.5589   -3.8599   -1.7467 H   0  0  0  0  0  0  0  0  0  0  0  0
    2.0058   -2.9040   -1.3611 H   0  0  0  0  0  0  0  0  0  0  0  0
    2.0227   -4.6629   -1.1334 H   0  0  0  0  0  0  0  0  0  0  0  0
    0.5784   -1.0712    0.3145 N   0  0  0  0  0  0  0  0  0  0  0  0
   -0.1371    0.0772   -0.2740 C   0  0  2  0  0  0  0  0  0  0  0  0
   -1.4482   -0.2397   -1.0376 C   0  0  0  0  0  0  0  0  0  0  0  0
   -1.4581   -1.0578   -1.9542 O   0  0  0  0  0  0  0  0  0  0  0  0
    0.8477    0.7806   -1.2214 C   0  0  0  0  0  0  0  0  0  0  0  0
    2.0109    1.4240   -0.4468 C   0  0  0  0  0  0  0  0  0  0  0  0
    2.9881    2.0938   -1.4078 C   0  0  0  0  0  0  0  0  0  0  0  0
    2.8805    3.3307   -1.5891 O   0  5  0  0  0  0  0  0  0  0  0  0
    3.8181    1.3493   -1.9850 O   0  0  0  0  0  0  0  0  0  0  0  0
    1.5712   -1.0906    0.0927 H   0  0  0  0  0  0  0  0  0  0  0  0
   -0.3998    0.7635    0.5364 H   0  0  0  0  0  0  0  0  0  0  0  0
    0.3250    1.5658   -1.7789 H   0  0  0  0  0  0  0  0  0  0  0  0
    1.2376    0.0642   -1.9541 H   0  0  0  0  0  0  0  0  0  0  0  0
    1.6226    2.1695    0.2538 H   0  0  0  0  0  0  0  0  0  0  0  0
    2.5537    0.6730    0.1337 H   0  0  0  0  0  0  0  0  0  0  0  0
   -2.5783    0.5308   -0.8333 N   0  0  0  0  0  0  0  0  0  0  0  0
   -3.8500    0.3476   -1.5414 C   0  0  2  0  0  0  0  0  0  0  0  0
   -4.7344    1.6100   -1.4842 C   0  0  0  0  0  0  0  0  0  0  0  0
   -4.6111    2.4195   -0.5709 O   0  0  0  0  0  0  0  0  0  0  0  0
   -4.5917   -0.8402   -0.9172 C   0  0  0  0  0  0  0  0  0  0  0  0
   -2.5402    1.2488   -0.1123 H   0  0  0  0  0  0  0  0  0  0  0  0
   -3.6463    0.1341   -2.5959 H   0  0  0  0  0  0  0  0  0  0  0  0
   -4.8037   -0.6452    0.1389 H   0  0  0  0  0  0  0  0  0  0  0  0
   -5.5376   -1.0181   -1.4369 H   0  0  0  0  0  0  0  0  0  0  0  0
   -3.9848   -1.7489   -0.9861 H   0  0  0  0  0  0  0  0  0  0  0  0
   -5.6952    1.8283   -2.4556 N   0  0  0  0  0  0  0  0  0  0  0  0
   -6.5439    3.0124   -2.4917 C   0  0  0  0  0  0  0  0  0  0  0  0
   -5.7441    1.1626   -3.2212 H   0  0  0  0  0  0  0  0  0  0  0  0
   -7.1464    3.0795   -1.5797 H   0  0  0  0  0  0  0  0  0  0  0  0
   -5.9346    3.9181   -2.5798 H   0  0  0  0  0  0  0  0  0  0  0  0
   -7.2207    2.9659   -3.3502 H   0  0  0  0  0  0  0  0  0  0  0  0
  1  2  2  0  0  0  0
  1  3  1  0  0  0  0
  1  7  1  0  0  0  0
  3  4  1  0  0  0  0
  3  5  1  0  0  0  0
  3  6  1  0  0  0  0
  7  8  1  0  0  0  0
  7 12  1  0  0  0  0
  8  9  1  0  0  0  0
  8 11  1  0  0  0  0
  8 13  1  0  0  0  0
  9 10  2  0  0  0  0
  9 17  1  0  0  0  0
 11 14  1  0  0  0  0
 11 15  1  0  0  0  0
 11 16  1  0  0  0  0
 17 18  1  0  0  0  0
 17 26  1  0  0  0  0
 18 19  1  0  0  0  0
 18 21  1  0  0  0  0
 18 27  1  0  0  0  0
 19 20  2  0  0  0  0
 19 32  1  0  0  0  0
 21 22  1  0  0  0  0
 21 28  1  0  0  0  0
 21 29  1  0  0  0  0
 22 23  1  0  0  0  0
 22 30  1  0  0  0  0
 22 31  1  0  0  0  0
 23 24  1  0  0  0  0
 23 25  2  0  0  0  0
 32 33  1  0  0  0  0
 32 37  1  0  0  0  0
 33 34  1  0  0  0  0
 33 36  1  0  0  0  0
 33 38  1  0  0  0  0
 34 35  2  0  0  0  0
 34 42  1  0  0  0  0
 36 39  1  0  0  0  0
 36 40  1  0  0  0  0
 36 41  1  0  0  0  0
 42 43  1  0  0  0  0
 42 44  1  0  0  0  0
 43 45  1  0  0  0  0
 43 46  1  0  0  0  0
 43 47  1  0  0  0  0
M  CHG  1  24  -1
M  END
$$$$

  -OEChem-05262216243D

 47 46  0     1  0  0  0  0  0999 V2000
    0.6661   -5.8717    1.4063 C   0  0  0  0  0  0  0  0  0  0  0  0
    1.8736   -5.9829    1.5521 O   0  0  0  0  0  0  0  0  0  0  0  0
   -0.2627   -6.9500    1.9334 C   0  0  0  0  0  0  0  0  0  0  0  0
   -0.8723   -7.3465    1.1177 H   0  0  0  0  0  0  0  0  0  0  0  0
    0.3169   -7.7675    2.3710 H   0  0  0  0  0  0  0  0  0  0  0  0
   -0.9201   -6.5330    2.7004 H   0  0  0  0  0  0  0  0  0  0  0  0
    0.1316   -4.7716    0.7733 N   0  0  0  0  0  0  0  0  0  0  0  0
    0.8885   -3.5677    0.4078 C   0  0  2  0  0  0  0  0  0  0  0  0
    0.0157   -2.3033    0.5589 C   0  0  0  0  0  0  0  0  0  0  0  0
   -1.1378   -2.4002    0.9732 O   0  0  0  0  0  0  0  0  0  0  0  0
    1.3700   -3.7143   -1.0392 C   0  0  0  0  0  0  0  0  0  0  0  0
   -0.8795   -4.6525    0.8309 H   0  0  0  0  0  0  0  0  0  0  0  0
    1.7542   -3.4529    1.0686 H   0  0  0  0  0  0  0  0  0  0  0  0
    0.5153   -3.7849   -1.7201 H   0  0  0  0  0  0  0  0  0  0  0  0
    1.9768   -2.8522   -1.3335 H   0  0  0  0  0  0  0  0  0  0  0  0
    1.9800   -4.6164   -1.1479 H   0  0  0  0  0  0  0  0  0  0  0  0
    0.5601   -1.0478    0.3615 N   0  0  0  0  0  0  0  0  0  0  0  0
   -0.1738    0.0829   -0.2405 C   0  0  2  0  0  0  0  0  0  0  0  0
   -1.4877   -0.2437   -0.9976 C   0  0  0  0  0  0  0  0  0  0  0  0
   -1.5417   -1.1795   -1.7923 O   0  0  0  0  0  0  0  0  0  0  0  0
    0.8001    0.7674   -1.2131 C   0  0  0  0  0  0  0  0  0  0  0  0
    1.9709    1.4332   -0.4701 C   0  0  0  0  0  0  0  0  0  0  0  0
    2.9295    2.0795   -1.4652 C   0  0  0  0  0  0  0  0  0  0  0  0
    2.7640    3.2929   -1.7380 O   0  5  0  0  0  0  0  0  0  0  0  0
    3.7979    1.3353   -1.9833 O   0  0  0  0  0  0  0  0  0  0  0  0
    1.5469   -1.0668    0.1150 H   0  0  0  0  0  0  0  0  0  0  0  0
   -0.4351    0.7816    0.5596 H   0  0  0  0  0  0  0  0  0  0  0  0
    0.2701    1.5390   -1.7832 H   0  0  0  0  0  0  0  0  0  0  0  0
    1.1827    0.0355   -1.9339 H   0  0  0  0  0  0  0  0  0  0  0  0
    1.5907    2.1963    0.2156 H   0  0  0  0  0  0  0  0  0  0  0  0
    2.5231    0.6993    0.1232 H   0  0  0  0  0  0  0  0  0  0  0  0
   -2.5079    0.6899   -1.0354 N   0  0  0  0  0  0  0  0  0  0  0  0
   -3.7097    0.5802   -1.8700 C   0  0  2  0  0  0  0  0  0  0  0  0
   -4.4093    1.9413   -2.0611 C   0  0  0  0  0  0  0  0  0  0  0  0
   -4.2726    2.8357   -1.2331 O   0  0  0  0  0  0  0  0  0  0  0  0
   -4.6758   -0.4156   -1.2178 C   0  0  0  0  0  0  0  0  0  0  0  0
   -2.4043    1.5313   -0.4703 H   0  0  0  0  0  0  0  0  0  0  0  0
   -3.4247    0.2128   -2.8614 H   0  0  0  0  0  0  0  0  0  0  0  0
   -4.9658   -0.0686   -0.2210 H   0  0  0  0  0  0  0  0  0  0  0  0
   -5.5780   -0.5284   -1.8259 H   0  0  0  0  0  0  0  0  0  0  0  0
   -4.2031   -1.3978   -1.1189 H   0  0  0  0  0  0  0  0  0  0  0  0
   -5.2206    2.1547   -3.1613 N   0  0  0  0  0  0  0  0  0  0  0  0
   -5.8868    3.4222   -3.4310 C   0  0  0  0  0  0  0  0  0  0  0  0
   -5.2624    1.4174   -3.8585 H   0  0  0  0  0  0  0  0  0  0  0  0
   -6.5479    3.6917   -2.6007 H   0  0  0  0  0  0  0  0  0  0  0  0
   -5.1503    4.2207   -3.5694 H   0  0  0  0  0  0  0  0  0  0  0  0
   -6.4898    3.3449   -4.3407 H   0  0  0  0  0  0  0  0  0  0  0  0
  1  2  2  0  0  0  0
  1  3  1  0  0  0  0
  1  7  1  0  0  0  0
  3  4  1  0  0  0  0
  3  5  1  0  0  0  0
  3  6  1  0  0  0  0
  7  8  1  0  0  0  0
  7 12  1  0  0  0  0
  8  9  1  0  0  0  0
  8 11  1  0  0  0  0
  8 13  1  0  0  0  0
  9 10  2  0  0  0  0
  9 17  1  0  0  0  0
 11 14  1  0  0  0  0
 11 15  1  0  0  0  0
 11 16  1  0  0  0  0
 17 18  1  0  0  0  0
 17 26  1  0  0  0  0
 18 19  1  0  0  0  0
 18 21  1  0  0  0  0
 18 27  1  0  0  0  0
 19 20  2  0  0  0  0
 19 32  1  0  0  0  0
 21 22  1  0  0  0  0
 21 28  1  0  0  0  0
 21 29  1  0  0  0  0
 22 23  1  0  0  0  0
 22 30  1  0  0  0  0
 22 31  1  0  0  0  0
 23 24  1  0  0  0  0
 23 25  2  0  0  0  0
 32 33  1  0  0  0  0
 32 37  1  0  0  0  0
 33 34  1  0  0  0  0
 33 36  1  0  0  0  0
 33 38  1  0  0  0  0
 34 35  2  0  0  0  0
 34 42  1  0  0  0  0
 36 39  1  0  0  0  0
 36 40  1  0  0  0  0
 36 41  1  0  0  0  0
 42 43  1  0  0  0  0
 42 44  1  0  0  0  0
 43 45  1  0  0  0  0
 43 46  1  0  0  0  0
 43 47  1  0  0  0  0
M  CHG  1  24  -1
M  END
$$$$

  -OEChem-05262216243D

 47 46  0     1  0  0  0  0  0999 V2000
    0.6954   -5.8619    1.3561 C   0  0  0  0  0  0  0  0  0  0  0  0
    1.9097   -5.9863    1.3988 O   0  0  0  0  0  0  0  0  0  0  0  0
   -0.1957   -6.9508    1.9253 C   0  0  0  0  0  0  0  0  0  0  0  0
   -0.9035   -7.2893    1.1645 H   0  0  0  0  0  0  0  0  0  0  0  0
    0.4085   -7.8029    2.2491 H   0  0  0  0  0  0  0  0  0  0  0  0
   -0.7513   -6.5658    2.7839 H   0  0  0  0  0  0  0  0  0  0  0  0
    0.1232   -4.7354    0.8081 N   0  0  0  0  0  0  0  0  0  0  0  0
    0.8617   -3.5288    0.4150 C   0  0  2  0  0  0  0  0  0  0  0  0
    0.0036   -2.2649    0.6344 C   0  0  0  0  0  0  0  0  0  0  0  0
   -1.1087   -2.3580    1.1496 O   0  0  0  0  0  0  0  0  0  0  0  0
    1.2610   -3.6558   -1.0587 C   0  0  0  0  0  0  0  0  0  0  0  0
   -0.8799   -4.6116    0.9440 H   0  0  0  0  0  0  0  0  0  0  0  0
    1.7637   -3.4252    1.0272 H   0  0  0  0  0  0  0  0  0  0  0  0
    0.3699   -3.7213   -1.6915 H   0  0  0  0  0  0  0  0  0  0  0  0
    1.8472   -2.7879   -1.3762 H   0  0  0  0  0  0  0  0  0  0  0  0
    1.8667   -4.5540   -1.2124 H   0  0  0  0  0  0  0  0  0  0  0  0
    0.5275   -1.0075    0.4009 N   0  0  0  0  0  0  0  0  0  0  0  0
   -0.2397    0.1023   -0.2001 C   0  0  2  0  0  0  0  0  0  0  0  0
   -1.5743   -0.2325   -0.9211 C   0  0  0  0  0  0  0  0  0  0  0  0
   -1.7112   -1.2726   -1.5605 O   0  0  0  0  0  0  0  0  0  0  0  0
    0.7078    0.7690   -1.2124 C   0  0  0  0  0  0  0  0  0  0  0  0
    1.8942    1.4581   -0.5171 C   0  0  0  0  0  0  0  0  0  0  0  0
    2.8222    2.0838   -1.5540 C   0  0  0  0  0  0  0  0  0  0  0  0
    2.7485    3.3221   -1.7396 O   0  5  0  0  0  0  0  0  0  0  0  0
    3.5689    1.3016   -2.1922 O   0  0  0  0  0  0  0  0  0  0  0  0
    1.4990   -1.0287    0.0999 H   0  0  0  0  0  0  0  0  0  0  0  0
   -0.4834    0.8135    0.5948 H   0  0  0  0  0  0  0  0  0  0  0  0
    0.1646    1.5262   -1.7887 H   0  0  0  0  0  0  0  0  0  0  0  0
    1.0754    0.0209   -1.9247 H   0  0  0  0  0  0  0  0  0  0  0  0
    1.5268    2.2346    0.1608 H   0  0  0  0  0  0  0  0  0  0  0  0
    2.4687    0.7427    0.0773 H   0  0  0  0  0  0  0  0  0  0  0  0
   -2.4584    0.7933   -1.2069 N   0  0  0  0  0  0  0  0  0  0  0  0
   -3.5742    0.6982   -2.1563 C   0  0  2  0  0  0  0  0  0  0  0  0
   -4.0136    2.0858   -2.6644 C   0  0  0  0  0  0  0  0  0  0  0  0
   -3.8658    3.0804   -1.9624 O   0  0  0  0  0  0  0  0  0  0  0  0
   -4.7512   -0.0065   -1.4737 C   0  0  0  0  0  0  0  0  0  0  0  0
   -2.2535    1.7140   -0.8201 H   0  0  0  0  0  0  0  0  0  0  0  0
   -3.2583    0.1141   -3.0271 H   0  0  0  0  0  0  0  0  0  0  0  0
   -5.0790    0.5617   -0.5974 H   0  0  0  0  0  0  0  0  0  0  0  0
   -5.5938   -0.1004   -2.1651 H   0  0  0  0  0  0  0  0  0  0  0  0
   -4.4586   -1.0099   -1.1486 H   0  0  0  0  0  0  0  0  0  0  0  0
   -4.5929    2.2162   -3.9139 N   0  0  0  0  0  0  0  0  0  0  0  0
   -4.9556    3.5034   -4.4926 C   0  0  0  0  0  0  0  0  0  0  0  0
   -4.6271    1.3866   -4.4992 H   0  0  0  0  0  0  0  0  0  0  0  0
   -5.6940    4.0114   -3.8636 H   0  0  0  0  0  0  0  0  0  0  0  0
   -4.0717    4.1432   -4.5869 H   0  0  0  0  0  0  0  0  0  0  0  0
   -5.3887    3.3615   -5.4873 H   0  0  0  0  0  0  0  0  0  0  0  0
  1  2  2  0  0  0  0
  1  3  1  0  0  0  0
  1  7  1  0  0  0  0
  3  4  1  0  0  0  0
  3  5  1  0  0  0  0
  3  6  1  0  0  0  0
  7  8  1  0  0  0  0
  7 12  1  0  0  0  0
  8  9  1  0  0  0  0
  8 11  1  0  0  0  0
  8 13  1  0  0  0  0
  9 10  2  0  0  0  0
  9 17  1  0  0  0  0
 11 14  1  0  0  0  0
 11 15  1  0  0  0  0
 11 16  1  0  0  0  0
 17 18  1  0  0  0  0
 17 26  1  0  0  0  0
 18 19  1  0  0  0  0
 18 21  1  0  0  0  0
 18 27  1  0  0  0  0
 19 20  2  0  0  0  0
 19 32  1  0  0  0  0
 21 22  1  0  0  0  0
 21 28  1  0  0  0  0
 21 29  1  0  0  0  0
 22 23  1  0  0  0  0
 22 30  1  0  0  0  0
 22 31  1  0  0  0  0
 23 24  1  0  0  0  0
 23 25  2  0  0  0  0
 32 33  1  0  0  0  0
 32 37  1  0  0  0  0
 33 34  1  0  0  0  0
 33 36  1  0  0  0  0
 33 38  1  0  0  0  0
 34 35  2  0  0  0  0
 34 42  1  0  0  0  0
 36 39  1  0  0  0  0
 36 40  1  0  0  0  0
 36 41  1  0  0  0  0
 42 43  1  0  0  0  0
 42 44  1  0  0  0  0
 43 45  1  0  0  0  0
 43 46  1  0  0  0  0
 43 47  1  0  0  0  0
M  CHG  1  24  -1
M  END
$$$$

  -OEChem-05262216243D

 47 46  0     1  0  0  0  0  0999 V2000
    0.2378   -5.8619    1.5174 C   0  0  0  0  0  0  0  0  0  0  0  0
    0.8769   -5.6505    2.5372 O   0  0  0  0  0  0  0  0  0  0  0  0
   -0.6310   -7.1017    1.4092 C   0  0  0  0  0  0  0  0  0  0  0  0
   -0.3002   -7.7166    0.5685 H   0  0  0  0  0  0  0  0  0  0  0  0
   -0.5635   -7.6924    2.3270 H   0  0  0  0  0  0  0  0  0  0  0  0
   -1.6730   -6.8122    1.2514 H   0  0  0  0  0  0  0  0  0  0  0  0
    0.2905   -4.9787    0.4622 N   0  0  0  0  0  0  0  0  0  0  0  0
    0.9162   -3.6518    0.5095 C   0  0  2  0  0  0  0  0  0  0  0  0
    0.1592   -2.6566   -0.3978 C   0  0  0  0  0  0  0  0  0  0  0  0
   -0.6425   -3.1017   -1.2107 O   0  0  0  0  0  0  0  0  0  0  0  0
    2.3797   -3.7893    0.0747 C   0  0  0  0  0  0  0  0  0  0  0  0
   -0.3736   -5.1217   -0.2996 H   0  0  0  0  0  0  0  0  0  0  0  0
    0.8757   -3.2579    1.5304 H   0  0  0  0  0  0  0  0  0  0  0  0
    2.4394   -4.1461   -0.9587 H   0  0  0  0  0  0  0  0  0  0  0  0
    2.8956   -2.8265    0.1405 H   0  0  0  0  0  0  0  0  0  0  0  0
    2.9012   -4.5020    0.7209 H   0  0  0  0  0  0  0  0  0  0  0  0
    0.5569   -1.3310   -0.4211 N   0  0  0  0  0  0  0  0  0  0  0  0
   -0.2119   -0.1073   -0.7509 C   0  0  2  0  0  0  0  0  0  0  0  0
   -1.7178   -0.1608   -1.1452 C   0  0  0  0  0  0  0  0  0  0  0  0
   -2.4628   -1.0479   -0.7474 O   0  0  0  0  0  0  0  0  0  0  0  0
    0.6175    0.5908   -1.8485 C   0  0  0  0  0  0  0  0  0  0  0  0
    1.9639    1.0985   -1.2927 C   0  0  0  0  0  0  0  0  0  0  0  0
    2.7976    1.7683   -2.3829 C   0  0  0  0  0  0  0  0  0  0  0  0
    2.3360    2.8120   -2.9053 O   0  5  0  0  0  0  0  0  0  0  0  0
    3.8967    1.2398   -2.6796 O   0  0  0  0  0  0  0  0  0  0  0  0
    1.4073   -1.1554    0.1047 H   0  0  0  0  0  0  0  0  0  0  0  0
   -0.2000    0.5265    0.1406 H   0  0  0  0  0  0  0  0  0  0  0  0
    0.0757    1.4495   -2.2577 H   0  0  0  0  0  0  0  0  0  0  0  0
    0.7949   -0.1061   -2.6757 H   0  0  0  0  0  0  0  0  0  0  0  0
    1.7820    1.8249   -0.4957 H   0  0  0  0  0  0  0  0  0  0  0  0
    2.5406    0.2723   -0.8680 H   0  0  0  0  0  0  0  0  0  0  0  0
   -2.3668    1.0282   -1.4458 N   0  0  0  0  0  0  0  0  0  0  0  0
   -3.8231    1.1764   -1.5906 C   0  0  2  0  0  0  0  0  0  0  0  0
   -4.2086    2.1739   -2.7003 C   0  0  0  0  0  0  0  0  0  0  0  0
   -3.5630    3.2015   -2.8648 O   0  0  0  0  0  0  0  0  0  0  0  0
   -4.3938    1.6359   -0.2463 C   0  0  0  0  0  0  0  0  0  0  0  0
   -1.7862    1.8203   -1.7217 H   0  0  0  0  0  0  0  0  0  0  0  0
   -4.2679    0.2117   -1.8565 H   0  0  0  0  0  0  0  0  0  0  0  0
   -3.9628    2.6001    0.0418 H   0  0  0  0  0  0  0  0  0  0  0  0
   -5.4806    1.7433   -0.3097 H   0  0  0  0  0  0  0  0  0  0  0  0
   -4.1629    0.9034    0.5336 H   0  0  0  0  0  0  0  0  0  0  0  0
   -5.3175    1.9359   -3.4929 N   0  0  0  0  0  0  0  0  0  0  0  0
   -5.7193    2.8094   -4.5881 C   0  0  0  0  0  0  0  0  0  0  0  0
   -5.7888    1.0438   -3.3761 H   0  0  0  0  0  0  0  0  0  0  0  0
   -5.9736    3.8052   -4.2106 H   0  0  0  0  0  0  0  0  0  0  0  0
   -4.9098    2.9055   -5.3193 H   0  0  0  0  0  0  0  0  0  0  0  0
   -6.5967    2.3977   -5.0957 H   0  0  0  0  0  0  0  0  0  0  0  0
  1  2  2  0  0  0  0
  1  3  1  0  0  0  0
  1  7  1  0  0  0  0
  3  4  1  0  0  0  0
  3  5  1  0  0  0  0
  3  6  1  0  0  0  0
  7  8  1  0  0  0  0
  7 12  1  0  0  0  0
  8  9  1  0  0  0  0
  8 11  1  0  0  0  0
  8 13  1  0  0  0  0
  9 10  2  0  0  0  0
  9 17  1  0  0  0  0
 11 14  1  0  0  0  0
 11 15  1  0  0  0  0
 11 16  1  0  0  0  0
 17 18  1  0  0  0  0
 17 26  1  0  0  0  0
 18 19  1  0  0  0  0
 18 21  1  0  0  0  0
 18 27  1  0  0  0  0
 19 20  2  0  0  0  0
 19 32  1  0  0  0  0
 21 22  1  0  0  0  0
 21 28  1  0  0  0  0
 21 29  1  0  0  0  0
 22 23  1  0  0  0  0
 22 30  1  0  0  0  0
 22 31  1  0  0  0  0
 23 24  1  0  0  0  0
 23 25  2  0  0  0  0
 32 33  1  0  0  0  0
 32 37  1  0  0  0  0
 33 34  1  0  0  0  0
 33 36  1  0  0  0  0
 33 38  1  0  0  0  0
 34 35  2  0  0  0  0
 34 42  1  0  0  0  0
 36 39  1  0  0  0  0
 36 40  1  0  0  0  0
 36 41  1  0  0  0  0
 42 43  1  0  0  0  0
 42 44  1  0  0  0  0
 43 45  1  0  0  0  0
 43 46  1  0  0  0  0
 43 47  1  0  0  0  0
M  CHG  1  24  -1
M  END
$$$$

  -OEChem-05262216243D

 47 46  0     1  0  0  0  0  0999 V2000
    0.0382   -5.7278    1.4458 C   0  0  0  0  0  0  0  0  0  0  0  0
    0.7071   -5.5636    2.4550 O   0  0  0  0  0  0  0  0  0  0  0  0
   -0.9970   -6.8365    1.3943 C   0  0  0  0  0  0  0  0  0  0  0  0
   -0.7697   -7.5211    0.5733 H   0  0  0  0  0  0  0  0  0  0  0  0
   -0.9975   -7.3977    2.3330 H   0  0  0  0  0  0  0  0  0  0  0  0
   -1.9907   -6.4088    1.2381 H   0  0  0  0  0  0  0  0  0  0  0  0
    0.2045   -4.9059    0.3531 N   0  0  0  0  0  0  0  0  0  0  0  0
    0.9703   -3.6535    0.3633 C   0  0  2  0  0  0  0  0  0  0  0  0
    0.2732   -2.5850   -0.5059 C   0  0  0  0  0  0  0  0  0  0  0  0
   -0.5346   -2.9525   -1.3525 O   0  0  0  0  0  0  0  0  0  0  0  0
    2.3835   -3.9409   -0.1526 C   0  0  0  0  0  0  0  0  0  0  0  0
   -0.4837   -4.9892   -0.3959 H   0  0  0  0  0  0  0  0  0  0  0  0
    1.0298   -3.2590    1.3830 H   0  0  0  0  0  0  0  0  0  0  0  0
    2.3453   -4.3296   -1.1754 H   0  0  0  0  0  0  0  0  0  0  0  0
    2.9873   -3.0281   -0.1504 H   0  0  0  0  0  0  0  0  0  0  0  0
    2.8759   -4.6818    0.4851 H   0  0  0  0  0  0  0  0  0  0  0  0
    0.7029   -1.2705   -0.4460 N   0  0  0  0  0  0  0  0  0  0  0  0
   -0.0603   -0.0311   -0.7235 C   0  0  2  0  0  0  0  0  0  0  0  0
   -1.5582   -0.1279   -1.1380 C   0  0  0  0  0  0  0  0  0  0  0  0
   -2.3038   -0.9037   -0.5472 O   0  0  0  0  0  0  0  0  0  0  0  0
    0.7852    0.7432   -1.7569 C   0  0  0  0  0  0  0  0  0  0  0  0
    2.1130    1.2238   -1.1376 C   0  0  0  0  0  0  0  0  0  0  0  0
    2.9630    1.9694   -2.1639 C   0  0  0  0  0  0  0  0  0  0  0  0
    2.5216    3.0633   -2.5928 O   0  5  0  0  0  0  0  0  0  0  0  0
    4.0527    1.4488   -2.5056 O   0  0  0  0  0  0  0  0  0  0  0  0
    1.5321   -1.1334    0.1232 H   0  0  0  0  0  0  0  0  0  0  0  0
   -0.0816    0.5551    0.1999 H   0  0  0  0  0  0  0  0  0  0  0  0
    0.2488    1.6269   -2.1154 H   0  0  0  0  0  0  0  0  0  0  0  0
    0.9861    0.1054   -2.6253 H   0  0  0  0  0  0  0  0  0  0  0  0
    1.9070    1.8938   -0.2979 H   0  0  0  0  0  0  0  0  0  0  0  0
    2.6881    0.3758   -0.7555 H   0  0  0  0  0  0  0  0  0  0  0  0
   -2.2024    0.9626   -1.7027 N   0  0  0  0  0  0  0  0  0  0  0  0
   -3.6462    1.0206   -1.9774 C   0  0  2  0  0  0  0  0  0  0  0  0
   -3.9634    1.6724   -3.3378 C   0  0  0  0  0  0  0  0  0  0  0  0
   -3.2368    2.5446   -3.7977 O   0  0  0  0  0  0  0  0  0  0  0  0
   -4.3189    1.7995   -0.8445 C   0  0  0  0  0  0  0  0  0  0  0  0
   -1.6157    1.6536   -2.1708 H   0  0  0  0  0  0  0  0  0  0  0  0
   -4.0589    0.0069   -2.0070 H   0  0  0  0  0  0  0  0  0  0  0  0
   -3.9328    2.8229   -0.8016 H   0  0  0  0  0  0  0  0  0  0  0  0
   -5.4013    1.8401   -0.9986 H   0  0  0  0  0  0  0  0  0  0  0  0
   -4.1234    1.3121    0.1159 H   0  0  0  0  0  0  0  0  0  0  0  0
   -5.0917    1.2904   -4.0421 N   0  0  0  0  0  0  0  0  0  0  0  0
   -5.4216    1.8135   -5.3617 C   0  0  0  0  0  0  0  0  0  0  0  0
   -5.6278    0.5109   -3.6728 H   0  0  0  0  0  0  0  0  0  0  0  0
   -5.5281    2.9030   -5.3264 H   0  0  0  0  0  0  0  0  0  0  0  0
   -4.6360    1.5585   -6.0811 H   0  0  0  0  0  0  0  0  0  0  0  0
   -6.3659    1.3860   -5.7121 H   0  0  0  0  0  0  0  0  0  0  0  0
  1  2  2  0  0  0  0
  1  3  1  0  0  0  0
  1  7  1  0  0  0  0
  3  4  1  0  0  0  0
  3  5  1  0  0  0  0
  3  6  1  0  0  0  0
  7  8  1  0  0  0  0
  7 12  1  0  0  0  0
  8  9  1  0  0  0  0
  8 11  1  0  0  0  0
  8 13  1  0  0  0  0
  9 10  2  0  0  0  0
  9 17  1  0  0  0  0
 11 14  1  0  0  0  0
 11 15  1  0  0  0  0
 11 16  1  0  0  0  0
 17 18  1  0  0  0  0
 17 26  1  0  0  0  0
 18 19  1  0  0  0  0
 18 21  1  0  0  0  0
 18 27  1  0  0  0  0
 19 20  2  0  0  0  0
 19 32  1  0  0  0  0
 21 22  1  0  0  0  0
 21 28  1  0  0  0  0
 21 29  1  0  0  0  0
 22 23  1  0  0  0  0
 22 30  1  0  0  0  0
 22 31  1  0  0  0  0
 23 24  1  0  0  0  0
 23 25  2  0  0  0  0
 32 33  1  0  0  0  0
 32 37  1  0  0  0  0
 33 34  1  0  0  0  0
 33 36  1  0  0  0  0
 33 38  1  0  0  0  0
 34 35  2  0  0  0  0
 34 42  1  0  0  0  0
 36 39  1  0  0  0  0
 36 40  1  0  0  0  0
 36 41  1  0  0  0  0
 42 43  1  0  0  0  0
 42 44  1  0  0  0  0
 43 45  1  0  0  0  0
 43 46  1  0  0  0  0
 43 47  1  0  0  0  0
M  CHG  1  24  -1
M  END
$$$$

  -OEChem-05262216243D

 47 46  0     1  0  0  0  0  0999 V2000
    0.0261   -5.7926    1.2856 C   0  0  0  0  0  0  0  0  0  0  0  0
    0.7009   -5.6882    2.2987 O   0  0  0  0  0  0  0  0  0  0  0  0
   -0.9786   -6.9229    1.1574 C   0  0  0  0  0  0  0  0  0  0  0  0
   -0.7221   -7.5536    0.3025 H   0  0  0  0  0  0  0  0  0  0  0  0
   -0.9762   -7.5360    2.0629 H   0  0  0  0  0  0  0  0  0  0  0  0
   -1.9816   -6.5138    1.0116 H   0  0  0  0  0  0  0  0  0  0  0  0
    0.1624   -4.8884    0.2556 N   0  0  0  0  0  0  0  0  0  0  0  0
    0.9065   -3.6266    0.3497 C   0  0  2  0  0  0  0  0  0  0  0  0
    0.2048   -2.5169   -0.4637 C   0  0  0  0  0  0  0  0  0  0  0  0
   -0.6677   -2.8347   -1.2656 O   0  0  0  0  0  0  0  0  0  0  0  0
    2.3331   -3.8629   -0.1567 C   0  0  0  0  0  0  0  0  0  0  0  0
   -0.5328   -4.9302   -0.4904 H   0  0  0  0  0  0  0  0  0  0  0  0
    0.9427   -3.2926    1.3921 H   0  0  0  0  0  0  0  0  0  0  0  0
    2.3204   -4.1649   -1.2087 H   0  0  0  0  0  0  0  0  0  0  0  0
    2.9317   -2.9517   -0.0641 H   0  0  0  0  0  0  0  0  0  0  0  0
    2.8161   -4.6522    0.4276 H   0  0  0  0  0  0  0  0  0  0  0  0
    0.6735   -1.2166   -0.3839 N   0  0  0  0  0  0  0  0  0  0  0  0
   -0.0438    0.0457   -0.6730 C   0  0  2  0  0  0  0  0  0  0  0  0
   -1.5301   -0.0340   -1.1256 C   0  0  0  0  0  0  0  0  0  0  0  0
   -2.3295   -0.6296   -0.4081 O   0  0  0  0  0  0  0  0  0  0  0  0
    0.8513    0.8159   -1.6669 C   0  0  0  0  0  0  0  0  0  0  0  0
    2.1689    1.2571   -0.9997 C   0  0  0  0  0  0  0  0  0  0  0  0
    3.0648    1.9979   -1.9897 C   0  0  0  0  0  0  0  0  0  0  0  0
    2.6675    3.1141   -2.4045 O   0  5  0  0  0  0  0  0  0  0  0  0
    4.1427    1.4478   -2.3223 O   0  0  0  0  0  0  0  0  0  0  0  0
    1.5189   -1.1083    0.1678 H   0  0  0  0  0  0  0  0  0  0  0  0
   -0.0830    0.6234    0.2552 H   0  0  0  0  0  0  0  0  0  0  0  0
    0.3465    1.7204   -2.0200 H   0  0  0  0  0  0  0  0  0  0  0  0
    1.0634    0.1897   -2.5411 H   0  0  0  0  0  0  0  0  0  0  0  0
    1.9513    1.9203   -0.1575 H   0  0  0  0  0  0  0  0  0  0  0  0
    2.7128    0.3912   -0.6121 H   0  0  0  0  0  0  0  0  0  0  0  0
   -2.0791    0.9173   -1.9711 N   0  0  0  0  0  0  0  0  0  0  0  0
   -3.5023    0.9878   -2.3327 C   0  0  2  0  0  0  0  0  0  0  0  0
   -3.7173    1.0533   -3.8578 C   0  0  0  0  0  0  0  0  0  0  0  0
   -2.9022    1.6143   -4.5803 O   0  0  0  0  0  0  0  0  0  0  0  0
   -4.0955    2.2246   -1.6559 C   0  0  0  0  0  0  0  0  0  0  0  0
   -1.4270    1.4093   -2.5814 H   0  0  0  0  0  0  0  0  0  0  0  0
   -4.0315    0.0996   -1.9733 H   0  0  0  0  0  0  0  0  0  0  0  0
   -3.5875    3.1306   -2.0021 H   0  0  0  0  0  0  0  0  0  0  0  0
   -5.1615    2.3122   -1.8856 H   0  0  0  0  0  0  0  0  0  0  0  0
   -3.9785    2.1519   -0.5701 H   0  0  0  0  0  0  0  0  0  0  0  0
   -4.8577    0.5075   -4.4205 N   0  0  0  0  0  0  0  0  0  0  0  0
   -5.0955    0.4681   -5.8575 C   0  0  0  0  0  0  0  0  0  0  0  0
   -5.4668   -0.0250   -3.8067 H   0  0  0  0  0  0  0  0  0  0  0  0
   -5.0287    1.4738   -6.2856 H   0  0  0  0  0  0  0  0  0  0  0  0
   -4.3575   -0.1746   -6.3489 H   0  0  0  0  0  0  0  0  0  0  0  0
   -6.0945    0.0728   -6.0642 H   0  0  0  0  0  0  0  0  0  0  0  0
  1  2  2  0  0  0  0
  1  3  1  0  0  0  0
  1  7  1  0  0  0  0
  3  4  1  0  0  0  0
  3  5  1  0  0  0  0
  3  6  1  0  0  0  0
  7  8  1  0  0  0  0
  7 12  1  0  0  0  0
  8  9  1  0  0  0  0
  8 11  1  0  0  0  0
  8 13  1  0  0  0  0
  9 10  2  0  0  0  0
  9 17  1  0  0  0  0
 11 14  1  0  0  0  0
 11 15  1  0  0  0  0
 11 16  1  0  0  0  0
 17 18  1  0  0  0  0
 17 26  1  0  0  0  0
 18 19  1  0  0  0  0
 18 21  1  0  0  0  0
 18 27  1  0  0  0  0
 19 20  2  0  0  0  0
 19 32  1  0  0  0  0
 21 22  1  0  0  0  0
 21 28  1  0  0  0  0
 21 29  1  0  0  0  0
 22 23  1  0  0  0  0
 22 30  1  0  0  0  0
 22 31  1  0  0  0  0
 23 24  1  0  0  0  0
 23 25  2  0  0  0  0
 32 33  1  0  0  0  0
 32 37  1  0  0  0  0
 33 34  1  0  0  0  0
 33 36  1  0  0  0  0
 33 38  1  0  0  0  0
 34 35  2  0  0  0  0
 34 42  1  0  0  0  0
 36 39  1  0  0  0  0
 36 40  1  0  0  0  0
 36 41  1  0  0  0  0
 42 43  1  0  0  0  0
 42 44  1  0  0  0  0
 43 45  1  0  0  0  0
 43 46  1  0  0  0  0
 43 47  1  0  0  0  0
M  CHG  1  24  -1
M  END
$$$$

  -OEChem-05262216243D

 47 46  0     1  0  0  0  0  0999 V2000
    0.1490   -5.7849    1.3614 C   0  0  0  0  0  0  0  0  0  0  0  0
    0.9022   -5.6788    2.3173 O   0  0  0  0  0  0  0  0  0  0  0  0
   -0.8651   -6.9129    1.3164 C   0  0  0  0  0  0  0  0  0  0  0  0
   -0.6966   -7.5308    0.4312 H   0  0  0  0  0  0  0  0  0  0  0  0
   -0.7737   -7.5396    2.2077 H   0  0  0  0  0  0  0  0  0  0  0  0
   -1.8766   -6.5009    1.2768 H   0  0  0  0  0  0  0  0  0  0  0  0
    0.1998   -4.8796    0.3247 N   0  0  0  0  0  0  0  0  0  0  0  0
    0.9466   -3.6160    0.3580 C   0  0  2  0  0  0  0  0  0  0  0  0
    0.1784   -2.5063   -0.3931 C   0  0  0  0  0  0  0  0  0  0  0  0
   -0.7608   -2.8263   -1.1141 O   0  0  0  0  0  0  0  0  0  0  0  0
    2.3252   -3.8479   -0.2681 C   0  0  0  0  0  0  0  0  0  0  0  0
   -0.5527   -4.9234   -0.3630 H   0  0  0  0  0  0  0  0  0  0  0  0
    1.0709   -3.2833    1.3939 H   0  0  0  0  0  0  0  0  0  0  0  0
    2.2228   -4.1702   -1.3092 H   0  0  0  0  0  0  0  0  0  0  0  0
    2.9193   -2.9291   -0.2457 H   0  0  0  0  0  0  0  0  0  0  0  0
    2.8670   -4.6209    0.2857 H   0  0  0  0  0  0  0  0  0  0  0  0
    0.6349   -1.2008   -0.3219 N   0  0  0  0  0  0  0  0  0  0  0  0
   -0.0706    0.0535   -0.6661 C   0  0  2  0  0  0  0  0  0  0  0  0
   -1.5337   -0.0528   -1.1799 C   0  0  0  0  0  0  0  0  0  0  0  0
   -2.3942   -0.4671   -0.4073 O   0  0  0  0  0  0  0  0  0  0  0  0
    0.8565    0.8155   -1.6352 C   0  0  0  0  0  0  0  0  0  0  0  0
    2.1431    1.2786   -0.9245 C   0  0  0  0  0  0  0  0  0  0  0  0
    3.0717    2.0120   -1.8901 C   0  0  0  0  0  0  0  0  0  0  0  0
    2.6656    3.0969   -2.3737 O   0  5  0  0  0  0  0  0  0  0  0  0
    4.1837    1.4850   -2.1367 O   0  0  0  0  0  0  0  0  0  0  0  0
    1.5079   -1.0809    0.1833 H   0  0  0  0  0  0  0  0  0  0  0  0
   -0.1528    0.6474    0.2493 H   0  0  0  0  0  0  0  0  0  0  0  0
    0.3536    1.7096   -2.0187 H   0  0  0  0  0  0  0  0  0  0  0  0
    1.1081    0.1793   -2.4912 H   0  0  0  0  0  0  0  0  0  0  0  0
    1.8883    1.9520   -0.1010 H   0  0  0  0  0  0  0  0  0  0  0  0
    2.6778    0.4222   -0.5042 H   0  0  0  0  0  0  0  0  0  0  0  0
   -1.9794    0.6623   -2.2797 N   0  0  0  0  0  0  0  0  0  0  0  0
   -3.3671    0.6566   -2.7617 C   0  0  2  0  0  0  0  0  0  0  0  0
   -3.4630    0.4324   -4.2842 C   0  0  0  0  0  0  0  0  0  0  0  0
   -2.5420    0.7526   -5.0264 O   0  0  0  0  0  0  0  0  0  0  0  0
   -4.0025    1.9936   -2.3755 C   0  0  0  0  0  0  0  0  0  0  0  0
   -1.2647    0.9681   -2.9398 H   0  0  0  0  0  0  0  0  0  0  0  0
   -3.9275   -0.1546   -2.2859 H   0  0  0  0  0  0  0  0  0  0  0  0
   -3.4615    2.8231   -2.8423 H   0  0  0  0  0  0  0  0  0  0  0  0
   -5.0466    2.0300   -2.6996 H   0  0  0  0  0  0  0  0  0  0  0  0
   -3.9715    2.1241   -1.2892 H   0  0  0  0  0  0  0  0  0  0  0  0
   -4.6106   -0.1153   -4.8299 N   0  0  0  0  0  0  0  0  0  0  0  0
   -4.7524   -0.4183   -6.2480 C   0  0  0  0  0  0  0  0  0  0  0  0
   -5.3227   -0.4392   -4.1825 H   0  0  0  0  0  0  0  0  0  0  0  0
   -4.5962    0.4832   -6.8498 H   0  0  0  0  0  0  0  0  0  0  0  0
   -4.0228   -1.1764   -6.5514 H   0  0  0  0  0  0  0  0  0  0  0  0
   -5.7566   -0.8005   -6.4538 H   0  0  0  0  0  0  0  0  0  0  0  0
  1  2  2  0  0  0  0
  1  3  1  0  0  0  0
  1  7  1  0  0  0  0
  3  4  1  0  0  0  0
  3  5  1  0  0  0  0
  3  6  1  0  0  0  0
  7  8  1  0  0  0  0
  7 12  1  0  0  0  0
  8  9  1  0  0  0  0
  8 11  1  0  0  0  0
  8 13  1  0  0  0  0
  9 10  2  0  0  0  0
  9 17  1  0  0  0  0
 11 14  1  0  0  0  0
 11 15  1  0  0  0  0
 11 16  1  0  0  0  0
 17 18  1  0  0  0  0
 17 26  1  0  0  0  0
 18 19  1  0  0  0  0
 18 21  1  0  0  0  0
 18 27  1  0  0  0  0
 19 20  2  0  0  0  0
 19 32  1  0  0  0  0
 21 22  1  0  0  0  0
 21 28  1  0  0  0  0
 21 29  1  0  0  0  0
 22 23  1  0  0  0  0
 22 30  1  0  0  0  0
 22 31  1  0  0  0  0
 23 24  1  0  0  0  0
 23 25  2  0  0  0  0
 32 33  1  0  0  0  0
 32 37  1  0  0  0  0
 33 34  1  0  0  0  0
 33 36  1  0  0  0  0
 33 38  1  0  0  0  0
 34 35  2  0  0  0  0
 34 42  1  0  0  0  0
 36 39  1  0  0  0  0
 36 40  1  0  0  0  0
 36 41  1  0  0  0  0
 42 43  1  0  0  0  0
 42 44  1  0  0  0  0
 43 45  1  0  0  0  0
 43 46  1  0  0  0  0
 43 47  1  0  0  0  0
M  CHG  1  24  -1
M  END
$$$$

  -OEChem-05262216243D

 47 46  0     1  0  0  0  0  0999 V2000
    0.2720   -5.8048    1.3632 C   0  0  0  0  0  0  0  0  0  0  0  0
    1.1222   -5.7121    2.2353 O   0  0  0  0  0  0  0  0  0  0  0  0
   -0.6857   -6.9821    1.3613 C   0  0  0  0  0  0  0  0  0  0  0  0
   -0.5353   -7.5811    0.4599 H   0  0  0  0  0  0  0  0  0  0  0  0
   -0.5124   -7.6125    2.2381 H   0  0  0  0  0  0  0  0  0  0  0  0
   -1.7178   -6.6235    1.3831 H   0  0  0  0  0  0  0  0  0  0  0  0
    0.1719   -4.8476    0.3776 N   0  0  0  0  0  0  0  0  0  0  0  0
    0.9073   -3.5768    0.3671 C   0  0  2  0  0  0  0  0  0  0  0  0
    0.0652   -2.4539   -0.2786 C   0  0  0  0  0  0  0  0  0  0  0  0
   -0.9568   -2.7589   -0.8833 O   0  0  0  0  0  0  0  0  0  0  0  0
    2.2191   -3.7818   -0.3984 C   0  0  0  0  0  0  0  0  0  0  0  0
   -0.6445   -4.8905   -0.2326 H   0  0  0  0  0  0  0  0  0  0  0  0
    1.1314   -3.2684    1.3939 H   0  0  0  0  0  0  0  0  0  0  0  0
    2.0154   -4.0739   -1.4335 H   0  0  0  0  0  0  0  0  0  0  0  0
    2.8107   -2.8610   -0.4073 H   0  0  0  0  0  0  0  0  0  0  0  0
    2.8155   -4.5678    0.0753 H   0  0  0  0  0  0  0  0  0  0  0  0
    0.5329   -1.1513   -0.2269 N   0  0  0  0  0  0  0  0  0  0  0  0
   -0.1345    0.1057   -0.6290 C   0  0  2  0  0  0  0  0  0  0  0  0
   -1.5767    0.0127   -1.1970 C   0  0  0  0  0  0  0  0  0  0  0  0
   -2.5046   -0.1860   -0.4176 O   0  0  0  0  0  0  0  0  0  0  0  0
    0.8378    0.8118   -1.5948 C   0  0  0  0  0  0  0  0  0  0  0  0
    2.1162    1.2688   -0.8676 C   0  0  0  0  0  0  0  0  0  0  0  0
    3.0810    1.9438   -1.8391 C   0  0  0  0  0  0  0  0  0  0  0  0
    2.7503    3.0620   -2.3036 O   0  5  0  0  0  0  0  0  0  0  0  0
    4.1374    1.3285   -2.1235 O   0  0  0  0  0  0  0  0  0  0  0  0
    1.4512   -1.0404    0.1939 H   0  0  0  0  0  0  0  0  0  0  0  0
   -0.2330    0.7301    0.2645 H   0  0  0  0  0  0  0  0  0  0  0  0
    0.3619    1.7015   -2.0222 H   0  0  0  0  0  0  0  0  0  0  0  0
    1.0991    0.1419   -2.4217 H   0  0  0  0  0  0  0  0  0  0  0  0
    1.8569    1.9784   -0.0765 H   0  0  0  0  0  0  0  0  0  0  0  0
    2.6213    0.4181   -0.4015 H   0  0  0  0  0  0  0  0  0  0  0  0
   -1.8944    0.4473   -2.4733 N   0  0  0  0  0  0  0  0  0  0  0  0
   -3.2367    0.3588   -3.0621 C   0  0  2  0  0  0  0  0  0  0  0  0
   -3.2176   -0.2634   -4.4728 C   0  0  0  0  0  0  0  0  0  0  0  0
   -2.2441   -0.1284   -5.2052 O   0  0  0  0  0  0  0  0  0  0  0  0
   -3.8259    1.7699   -3.1100 C   0  0  0  0  0  0  0  0  0  0  0  0
   -1.1141    0.5546   -3.1204 H   0  0  0  0  0  0  0  0  0  0  0  0
   -3.8788   -0.2741   -2.4413 H   0  0  0  0  0  0  0  0  0  0  0  0
   -3.2096    2.4208   -3.7387 H   0  0  0  0  0  0  0  0  0  0  0  0
   -4.8402    1.7471   -3.5193 H   0  0  0  0  0  0  0  0  0  0  0  0
   -3.8677    2.1953   -2.1024 H   0  0  0  0  0  0  0  0  0  0  0  0
   -4.3259   -0.9456   -4.9427 N   0  0  0  0  0  0  0  0  0  0  0  0
   -4.3733   -1.5844   -6.2511 C   0  0  0  0  0  0  0  0  0  0  0  0
   -5.0850   -1.1049   -4.2873 H   0  0  0  0  0  0  0  0  0  0  0  0
   -4.1989   -0.8484   -7.0431 H   0  0  0  0  0  0  0  0  0  0  0  0
   -3.6106   -2.3667   -6.3218 H   0  0  0  0  0  0  0  0  0  0  0  0
   -5.3546   -2.0399   -6.4138 H   0  0  0  0  0  0  0  0  0  0  0  0
  1  2  2  0  0  0  0
  1  3  1  0  0  0  0
  1  7  1  0  0  0  0
  3  4  1  0  0  0  0
  3  5  1  0  0  0  0
  3  6  1  0  0  0  0
  7  8  1  0  0  0  0
  7 12  1  0  0  0  0
  8  9  1  0  0  0  0
  8 11  1  0  0  0  0
  8 13  1  0  0  0  0
  9 10  2  0  0  0  0
  9 17  1  0  0  0  0
 11 14  1  0  0  0  0
 11 15  1  0  0  0  0
 11 16  1  0  0  0  0
 17 18  1  0  0  0  0
 17 26  1  0  0  0  0
 18 19  1  0  0  0  0
 18 21  1  0  0  0  0
 18 27  1  0  0  0  0
 19 20  2  0  0  0  0
 19 32  1  0  0  0  0
 21 22  1  0  0  0  0
 21 28  1  0  0  0  0
 21 29  1  0  0  0  0
 22 23  1  0  0  0  0
 22 30  1  0  0  0  0
 22 31  1  0  0  0  0
 23 24  1  0  0  0  0
 23 25  2  0  0  0  0
 32 33  1  0  0  0  0
 32 37  1  0  0  0  0
 33 34  1  0  0  0  0
 33 36  1  0  0  0  0
 33 38  1  0  0  0  0
 34 35  2  0  0  0  0
 34 42  1  0  0  0  0
 36 39  1  0  0  0  0
 36 40  1  0  0  0  0
 36 41  1  0  0  0  0
 42 43  1  0  0  0  0
 42 44  1  0  0  0  0
 43 45  1  0  0  0  0
 43 46  1  0  0  0  0
 43 47  1  0  0  0  0
M  CHG  1  24  -1
M  END
$$$$

  -OEChem-05262216243D

 47 46  0     1  0  0  0  0  0999 V2000
    0.3153   -5.7897    1.3595 C   0  0  0  0  0  0  0  0  0  0  0  0
    1.2055   -5.7024    2.1912 O   0  0  0  0  0  0  0  0  0  0  0  0
   -0.6376   -6.9703    1.3922 C   0  0  0  0  0  0  0  0  0  0  0  0
   -0.6122   -7.4961    0.4346 H   0  0  0  0  0  0  0  0  0  0  0  0
   -0.3500   -7.6671    2.1845 H   0  0  0  0  0  0  0  0  0  0  0  0
   -1.6557   -6.6213    1.5813 H   0  0  0  0  0  0  0  0  0  0  0  0
    0.1627   -4.8205    0.3923 N   0  0  0  0  0  0  0  0  0  0  0  0
    0.8937   -3.5473    0.3612 C   0  0  2  0  0  0  0  0  0  0  0  0
    0.0254   -2.4207   -0.2416 C   0  0  0  0  0  0  0  0  0  0  0  0
   -1.0325   -2.7186   -0.7853 O   0  0  0  0  0  0  0  0  0  0  0  0
    2.1741   -3.7402   -0.4583 C   0  0  0  0  0  0  0  0  0  0  0  0
   -0.6789   -4.8621   -0.1826 H   0  0  0  0  0  0  0  0  0  0  0  0
    1.1583   -3.2468    1.3809 H   0  0  0  0  0  0  0  0  0  0  0  0
    1.9305   -4.0253   -1.4868 H   0  0  0  0  0  0  0  0  0  0  0  0
    2.7607   -2.8164   -0.4832 H   0  0  0  0  0  0  0  0  0  0  0  0
    2.7923   -4.5269   -0.0153 H   0  0  0  0  0  0  0  0  0  0  0  0
    0.4942   -1.1180   -0.1969 N   0  0  0  0  0  0  0  0  0  0  0  0
   -0.1599    0.1319   -0.6390 C   0  0  2  0  0  0  0  0  0  0  0  0
   -1.5822    0.0252   -1.2474 C   0  0  0  0  0  0  0  0  0  0  0  0
   -2.5532    0.0277   -0.4959 O   0  0  0  0  0  0  0  0  0  0  0  0
    0.8283    0.8180   -1.6011 C   0  0  0  0  0  0  0  0  0  0  0  0
    2.0948    1.2902   -0.8635 C   0  0  0  0  0  0  0  0  0  0  0  0
    3.0735    1.9447   -1.8349 C   0  0  0  0  0  0  0  0  0  0  0  0
    2.7503    3.0507   -2.3319 O   0  5  0  0  0  0  0  0  0  0  0  0
    4.1329    1.3221   -2.0899 O   0  0  0  0  0  0  0  0  0  0  0  0
    1.4297   -1.0085    0.1855 H   0  0  0  0  0  0  0  0  0  0  0  0
   -0.2790    0.7749    0.2387 H   0  0  0  0  0  0  0  0  0  0  0  0
    0.3532    1.6944   -2.0573 H   0  0  0  0  0  0  0  0  0  0  0  0
    1.1063    0.1308   -2.4080 H   0  0  0  0  0  0  0  0  0  0  0  0
    1.8244    2.0150   -0.0900 H   0  0  0  0  0  0  0  0  0  0  0  0
    2.5924    0.4483   -0.3744 H   0  0  0  0  0  0  0  0  0  0  0  0
   -1.8042    0.1443   -2.6088 N   0  0  0  0  0  0  0  0  0  0  0  0
   -3.1111   -0.0602   -3.2435 C   0  0  2  0  0  0  0  0  0  0  0  0
   -3.0189   -0.9844   -4.4743 C   0  0  0  0  0  0  0  0  0  0  0  0
   -2.0047   -1.0139   -5.1627 O   0  0  0  0  0  0  0  0  0  0  0  0
   -3.6636    1.3103   -3.6394 C   0  0  0  0  0  0  0  0  0  0  0  0
   -0.9846    0.0491   -3.2073 H   0  0  0  0  0  0  0  0  0  0  0  0
   -3.8020   -0.5329   -2.5381 H   0  0  0  0  0  0  0  0  0  0  0  0
   -2.9924    1.8016   -4.3514 H   0  0  0  0  0  0  0  0  0  0  0  0
   -4.6498    1.2075   -4.1015 H   0  0  0  0  0  0  0  0  0  0  0  0
   -3.7596    1.9470   -2.7542 H   0  0  0  0  0  0  0  0  0  0  0  0
   -4.1021   -1.7666   -4.8339 N   0  0  0  0  0  0  0  0  0  0  0  0
   -4.0709   -2.7093   -5.9442 C   0  0  0  0  0  0  0  0  0  0  0  0
   -4.8881   -1.7888   -4.1912 H   0  0  0  0  0  0  0  0  0  0  0  0
   -3.8148   -2.1958   -6.8770 H   0  0  0  0  0  0  0  0  0  0  0  0
   -3.3305   -3.4944   -5.7581 H   0  0  0  0  0  0  0  0  0  0  0  0
   -5.0514   -3.1782   -6.0679 H   0  0  0  0  0  0  0  0  0  0  0  0
  1  2  2  0  0  0  0
  1  3  1  0  0  0  0
  1  7  1  0  0  0  0
  3  4  1  0  0  0  0
  3  5  1  0  0  0  0
  3  6  1  0  0  0  0
  7  8  1  0  0  0  0
  7 12  1  0  0  0  0
  8  9  1  0  0  0  0
  8 11  1  0  0  0  0
  8 13  1  0  0  0  0
  9 10  2  0  0  0  0
  9 17  1  0  0  0  0
 11 14  1  0  0  0  0
 11 15  1  0  0  0  0
 11 16  1  0  0  0  0
 17 18  1  0  0  0  0
 17 26  1  0  0  0  0
 18 19  1  0  0  0  0
 18 21  1  0  0  0  0
 18 27  1  0  0  0  0
 19 20  2  0  0  0  0
 19 32  1  0  0  0  0
 21 22  1  0  0  0  0
 21 28  1  0  0  0  0
 21 29  1  0  0  0  0
 22 23  1  0  0  0  0
 22 30  1  0  0  0  0
 22 31  1  0  0  0  0
 23 24  1  0  0  0  0
 23 25  2  0  0  0  0
 32 33  1  0  0  0  0
 32 37  1  0  0  0  0
 33 34  1  0  0  0  0
 33 36  1  0  0  0  0
 33 38  1  0  0  0  0
 34 35  2  0  0  0  0
 34 42  1  0  0  0  0
 36 39  1  0  0  0  0
 36 40  1  0  0  0  0
 36 41  1  0  0  0  0
 42 43  1  0  0  0  0
 42 44  1  0  0  0  0
 43 45  1  0  0  0  0
 43 46  1  0  0  0  0
 43 47  1  0  0  0  0
M  CHG  1  24  -1
M  END
$$$$

  -OEChem-05262216243D

 47 46  0     1  0  0  0  0  0999 V2000
    0.3832   -5.7871    1.3359 C   0  0  0  0  0  0  0  0  0  0  0  0
    1.3064   -5.7109    2.1320 O   0  0  0  0  0  0  0  0  0  0  0  0
   -0.5459   -6.9868    1.3658 C   0  0  0  0  0  0  0  0  0  0  0  0
   -0.5941   -7.4456    0.3752 H   0  0  0  0  0  0  0  0  0  0  0  0
   -0.1811   -7.7297    2.0807 H   0  0  0  0  0  0  0  0  0  0  0  0
   -1.5496   -6.6727    1.6629 H   0  0  0  0  0  0  0  0  0  0  0  0
    0.1684   -4.7863    0.4138 N   0  0  0  0  0  0  0  0  0  0  0  0
    0.8764   -3.4998    0.3926 C   0  0  2  0  0  0  0  0  0  0  0  0
   -0.0281   -2.3729   -0.1545 C   0  0  0  0  0  0  0  0  0  0  0  0
   -1.1292   -2.6664   -0.6072 O   0  0  0  0  0  0  0  0  0  0  0  0
    2.1359   -3.6506   -0.4679 C   0  0  0  0  0  0  0  0  0  0  0  0
   -0.6972   -4.8253   -0.1243 H   0  0  0  0  0  0  0  0  0  0  0  0
    1.1666   -3.2210    1.4111 H   0  0  0  0  0  0  0  0  0  0  0  0
    1.8670   -3.9021   -1.4990 H   0  0  0  0  0  0  0  0  0  0  0  0
    2.7127   -2.7205   -0.4764 H   0  0  0  0  0  0  0  0  0  0  0  0
    2.7746   -4.4453   -0.0699 H   0  0  0  0  0  0  0  0  0  0  0  0
    0.4418   -1.0697   -0.1400 N   0  0  0  0  0  0  0  0  0  0  0  0
   -0.1943    0.1626   -0.6523 C   0  0  2  0  0  0  0  0  0  0  0  0
   -1.5907    0.0341   -1.3099 C   0  0  0  0  0  0  0  0  0  0  0  0
   -2.5961    0.2724   -0.6472 O   0  0  0  0  0  0  0  0  0  0  0  0
    0.8183    0.8011   -1.6208 C   0  0  0  0  0  0  0  0  0  0  0  0
    2.0708    1.3008   -0.8791 C   0  0  0  0  0  0  0  0  0  0  0  0
    3.0668    1.9048   -1.8645 C   0  0  0  0  0  0  0  0  0  0  0  0
    2.9045    3.1016   -2.2036 O   0  5  0  0  0  0  0  0  0  0  0  0
    3.9662    1.1467   -2.3021 O   0  0  0  0  0  0  0  0  0  0  0  0
    1.4025   -0.9629    0.1756 H   0  0  0  0  0  0  0  0  0  0  0  0
   -0.3369    0.8435    0.1929 H   0  0  0  0  0  0  0  0  0  0  0  0
    0.3545    1.6557   -2.1274 H   0  0  0  0  0  0  0  0  0  0  0  0
    1.1124    0.0778   -2.3896 H   0  0  0  0  0  0  0  0  0  0  0  0
    1.7898    2.0585   -0.1417 H   0  0  0  0  0  0  0  0  0  0  0  0
    2.5593    0.4812   -0.3453 H   0  0  0  0  0  0  0  0  0  0  0  0
   -1.7246   -0.2019   -2.6669 N   0  0  0  0  0  0  0  0  0  0  0  0
   -3.0020   -0.5238   -3.3113 C   0  0  2  0  0  0  0  0  0  0  0  0
   -2.8797   -1.7281   -4.2670 C   0  0  0  0  0  0  0  0  0  0  0  0
   -1.8240   -1.9695   -4.8425 O   0  0  0  0  0  0  0  0  0  0  0  0
   -3.4762    0.7199   -4.0657 C   0  0  0  0  0  0  0  0  0  0  0  0
   -0.8823   -0.5154   -3.1471 H   0  0  0  0  0  0  0  0  0  0  0  0
   -3.7472   -0.7897   -2.5547 H   0  0  0  0  0  0  0  0  0  0  0  0
   -2.7443    1.0070   -4.8277 H   0  0  0  0  0  0  0  0  0  0  0  0
   -4.4355    0.5295   -4.5556 H   0  0  0  0  0  0  0  0  0  0  0  0
   -3.6015    1.5559   -3.3702 H   0  0  0  0  0  0  0  0  0  0  0  0
   -3.9807   -2.5301   -4.5117 N   0  0  0  0  0  0  0  0  0  0  0  0
   -3.9298   -3.7211   -5.3495 C   0  0  0  0  0  0  0  0  0  0  0  0
   -4.8078   -2.3604   -3.9474 H   0  0  0  0  0  0  0  0  0  0  0  0
   -3.5478   -3.4743   -6.3457 H   0  0  0  0  0  0  0  0  0  0  0  0
   -3.2781   -4.4768   -4.8988 H   0  0  0  0  0  0  0  0  0  0  0  0
   -4.9315   -4.1464   -5.4619 H   0  0  0  0  0  0  0  0  0  0  0  0
  1  2  2  0  0  0  0
  1  3  1  0  0  0  0
  1  7  1  0  0  0  0
  3  4  1  0  0  0  0
  3  5  1  0  0  0  0
  3  6  1  0  0  0  0
  7  8  1  0  0  0  0
  7 12  1  0  0  0  0
  8  9  1  0  0  0  0
  8 11  1  0  0  0  0
  8 13  1  0  0  0  0
  9 10  2  0  0  0  0
  9 17  1  0  0  0  0
 11 14  1  0  0  0  0
 11 15  1  0  0  0  0
 11 16  1  0  0  0  0
 17 18  1  0  0  0  0
 17 26  1  0  0  0  0
 18 19  1  0  0  0  0
 18 21  1  0  0  0  0
 18 27  1  0  0  0  0
 19 20  2  0  0  0  0
 19 32  1  0  0  0  0
 21 22  1  0  0  0  0
 21 28  1  0  0  0  0
 21 29  1  0  0  0  0
 22 23  1  0  0  0  0
 22 30  1  0  0  0  0
 22 31  1  0  0  0  0
 23 24  1  0  0  0  0
 23 25  2  0  0  0  0
 32 33  1  0  0  0  0
 32 37  1  0  0  0  0
 33 34  1  0  0  0  0
 33 36  1  0  0  0  0
 33 38  1  0  0  0  0
 34 35  2  0  0  0  0
 34 42  1  0  0  0  0
 36 39  1  0  0  0  0
 36 40  1  0  0  0  0
 36 41  1  0  0  0  0
 42 43  1  0  0  0  0
 42 44  1  0  0  0  0
 43 45  1  0  0  0  0
 43 46  1  0  0  0  0
 43 47  1  0  0  0  0
M  CHG  1  24  -1
M  END
$$$$

  -OEChem-05262216243D

 47 46  0     1  0  0  0  0  0999 V2000
    0.4544   -5.9977    0.8750 C   0  0  0  0  0  0  0  0  0  0  0  0
    1.1795   -5.8879    1.8512 O   0  0  0  0  0  0  0  0  0  0  0  0
   -0.2862   -7.2978    0.6210 C   0  0  0  0  0  0  0  0  0  0  0  0
   -0.0077   -7.7006   -0.3558 H   0  0  0  0  0  0  0  0  0  0  0  0
   -0.0334   -8.0327    1.3903 H   0  0  0  0  0  0  0  0  0  0  0  0
   -1.3648   -7.1232    0.6407 H   0  0  0  0  0  0  0  0  0  0  0  0
    0.2972   -4.9436    0.0015 N   0  0  0  0  0  0  0  0  0  0  0  0
    0.8196   -3.5888    0.2247 C   0  0  2  0  0  0  0  0  0  0  0  0
   -0.0902   -2.5220   -0.4241 C   0  0  0  0  0  0  0  0  0  0  0  0
   -1.0451   -2.8860   -1.1005 O   0  0  0  0  0  0  0  0  0  0  0  0
    2.2405   -3.5149   -0.3460 C   0  0  0  0  0  0  0  0  0  0  0  0
   -0.4262   -5.0345   -0.7110 H   0  0  0  0  0  0  0  0  0  0  0  0
    0.8521   -3.3783    1.2992 H   0  0  0  0  0  0  0  0  0  0  0  0
    2.2300   -3.6986   -1.4249 H   0  0  0  0  0  0  0  0  0  0  0  0
    2.6805   -2.5294   -0.1649 H   0  0  0  0  0  0  0  0  0  0  0  0
    2.8793   -4.2661    0.1292 H   0  0  0  0  0  0  0  0  0  0  0  0
    0.2048   -1.1815   -0.2493 N   0  0  0  0  0  0  0  0  0  0  0  0
   -0.5008    0.0167   -0.7538 C   0  0  2  0  0  0  0  0  0  0  0  0
   -1.7734   -0.1749   -1.6169 C   0  0  0  0  0  0  0  0  0  0  0  0
   -2.8719    0.1006   -1.1513 O   0  0  0  0  0  0  0  0  0  0  0  0
    0.5421    0.8114   -1.5591 C   0  0  0  0  0  0  0  0  0  0  0  0
    1.6594    1.3787   -0.6596 C   0  0  0  0  0  0  0  0  0  0  0  0
    2.7266    2.1545   -1.4388 C   0  0  0  0  0  0  0  0  0  0  0  0
    3.6484    2.6650   -0.7594 O   0  5  0  0  0  0  0  0  0  0  0  0
    2.6499    2.2013   -2.6924 O   0  0  0  0  0  0  0  0  0  0  0  0
    1.0536   -0.9931    0.2781 H   0  0  0  0  0  0  0  0  0  0  0  0
   -0.8140    0.6159    0.1077 H   0  0  0  0  0  0  0  0  0  0  0  0
    0.0503    1.6498   -2.0660 H   0  0  0  0  0  0  0  0  0  0  0  0
    0.9835    0.1720   -2.3318 H   0  0  0  0  0  0  0  0  0  0  0  0
    1.2190    2.0465    0.0865 H   0  0  0  0  0  0  0  0  0  0  0  0
    2.1622    0.5673   -0.1276 H   0  0  0  0  0  0  0  0  0  0  0  0
   -1.6936   -0.5863   -2.9361 N   0  0  0  0  0  0  0  0  0  0  0  0
   -2.8360   -0.6422   -3.8621 C   0  0  2  0  0  0  0  0  0  0  0  0
   -3.6450   -1.9603   -3.8008 C   0  0  0  0  0  0  0  0  0  0  0  0
   -4.5515   -2.1658   -4.6024 O   0  0  0  0  0  0  0  0  0  0  0  0
   -2.2752   -0.4022   -5.2675 C   0  0  0  0  0  0  0  0  0  0  0  0
   -0.7708   -0.8376   -3.2779 H   0  0  0  0  0  0  0  0  0  0  0  0
   -3.5313    0.1706   -3.6272 H   0  0  0  0  0  0  0  0  0  0  0  0
   -1.6055   -1.2177   -5.5574 H   0  0  0  0  0  0  0  0  0  0  0  0
   -3.0884   -0.3440   -5.9977 H   0  0  0  0  0  0  0  0  0  0  0  0
   -1.7170    0.5388   -5.2998 H   0  0  0  0  0  0  0  0  0  0  0  0
   -3.3230   -2.9546   -2.8967 N   0  0  0  0  0  0  0  0  0  0  0  0
   -4.0676   -4.1952   -2.7508 C   0  0  0  0  0  0  0  0  0  0  0  0
   -2.5833   -2.7393   -2.2209 H   0  0  0  0  0  0  0  0  0  0  0  0
   -5.1097   -3.9872   -2.4868 H   0  0  0  0  0  0  0  0  0  0  0  0
   -4.0454   -4.7667   -3.6842 H   0  0  0  0  0  0  0  0  0  0  0  0
   -3.6238   -4.8058   -1.9585 H   0  0  0  0  0  0  0  0  0  0  0  0
  1  2  2  0  0  0  0
  1  3  1  0  0  0  0
  1  7  1  0  0  0  0
  3  4  1  0  0  0  0
  3  5  1  0  0  0  0
  3  6  1  0  0  0  0
  7  8  1  0  0  0  0
  7 12  1  0  0  0  0
  8  9  1  0  0  0  0
  8 11  1  0  0  0  0
  8 13  1  0  0  0  0
  9 10  2  0  0  0  0
  9 17  1  0  0  0  0
 11 14  1  0  0  0  0
 11 15  1  0  0  0  0
 11 16  1  0  0  0  0
 17 18  1  0  0  0  0
 17 26  1  0  0  0  0
 18 19  1  0  0  0  0
 18 21  1  0  0  0  0
 18 27  1  0  0  0  0
 19 20  2  0  0  0  0
 19 32  1  0  0  0  0
 21 22  1  0  0  0  0
 21 28  1  0  0  0  0
 21 29  1  0  0  0  0
 22 23  1  0  0  0  0
 22 30  1  0  0  0  0
 22 31  1  0  0  0  0
 23 24  1  0  0  0  0
 23 25  2  0  0  0  0
 32 33  1  0  0  0  0
 32 37  1  0  0  0  0
 33 34  1  0  0  0  0
 33 36  1  0  0  0  0
 33 38  1  0  0  0  0
 34 35  2  0  0  0  0
 34 42  1  0  0  0  0
 36 39  1  0  0  0  0
 36 40  1  0  0  0  0
 36 41  1  0  0  0  0
 42 43  1  0  0  0  0
 42 44  1  0  0  0  0
 43 45  1  0  0  0  0
 43 46  1  0  0  0  0
 43 47  1  0  0  0  0
M  CHG  1  24  -1
M  END
$$$$

  -OEChem-05262216243D

 47 46  0     1  0  0  0  0  0999 V2000
    0.3270   -5.8241   -0.4244 C   0  0  0  0  0  0  0  0  0  0  0  0
    1.2714   -6.1169    0.2949 O   0  0  0  0  0  0  0  0  0  0  0  0
   -0.5424   -6.9139   -1.0232 C   0  0  0  0  0  0  0  0  0  0  0  0
   -0.4915   -6.8712   -2.1141 H   0  0  0  0  0  0  0  0  0  0  0  0
   -0.2031   -7.8979   -0.6891 H   0  0  0  0  0  0  0  0  0  0  0  0
   -1.5810   -6.7725   -0.7135 H   0  0  0  0  0  0  0  0  0  0  0  0
    0.0340   -4.5061   -0.6926 N   0  0  0  0  0  0  0  0  0  0  0  0
    0.6487   -3.3615    0.0012 C   0  0  2  0  0  0  0  0  0  0  0  0
   -0.3808   -2.2248    0.1883 C   0  0  0  0  0  0  0  0  0  0  0  0
   -1.5721   -2.4962    0.2204 O   0  0  0  0  0  0  0  0  0  0  0  0
    1.8718   -2.9173   -0.8133 C   0  0  0  0  0  0  0  0  0  0  0  0
   -0.8632   -4.3467   -1.1635 H   0  0  0  0  0  0  0  0  0  0  0  0
    0.9777   -3.6610    1.0020 H   0  0  0  0  0  0  0  0  0  0  0  0
    1.5733   -2.5982   -1.8164 H   0  0  0  0  0  0  0  0  0  0  0  0
    2.3907   -2.0883   -0.3218 H   0  0  0  0  0  0  0  0  0  0  0  0
    2.5787   -3.7474   -0.9118 H   0  0  0  0  0  0  0  0  0  0  0  0
   -0.0256   -0.8877    0.2215 N   0  0  0  0  0  0  0  0  0  0  0  0
   -0.5954    0.1218   -0.7029 C   0  0  2  0  0  0  0  0  0  0  0  0
   -1.6270   -0.3868   -1.7443 C   0  0  0  0  0  0  0  0  0  0  0  0
   -2.7997   -0.0276   -1.7336 O   0  0  0  0  0  0  0  0  0  0  0  0
    0.5959    0.7440   -1.4479 C   0  0  0  0  0  0  0  0  0  0  0  0
    1.5003    1.5624   -0.5121 C   0  0  0  0  0  0  0  0  0  0  0  0
    2.6763    2.1312   -1.2998 C   0  0  0  0  0  0  0  0  0  0  0  0
    3.5333    1.3024   -1.6953 O   0  5  0  0  0  0  0  0  0  0  0  0
    2.6998    3.3622   -1.5354 O   0  0  0  0  0  0  0  0  0  0  0  0
    0.9685   -0.7464    0.3871 H   0  0  0  0  0  0  0  0  0  0  0  0
   -1.0985    0.8939   -0.1121 H   0  0  0  0  0  0  0  0  0  0  0  0
    0.2228    1.4128   -2.2323 H   0  0  0  0  0  0  0  0  0  0  0  0
    1.1862   -0.0379   -1.9379 H   0  0  0  0  0  0  0  0  0  0  0  0
    0.9288    2.3788   -0.0600 H   0  0  0  0  0  0  0  0  0  0  0  0
    1.8924    0.9391    0.2961 H   0  0  0  0  0  0  0  0  0  0  0  0
   -1.2310   -1.3521   -2.6563 N   0  0  0  0  0  0  0  0  0  0  0  0
   -2.1614   -2.1496   -3.4580 C   0  0  2  0  0  0  0  0  0  0  0  0
   -2.8247   -3.2560   -2.6068 C   0  0  0  0  0  0  0  0  0  0  0  0
   -2.3640   -4.3964   -2.5690 O   0  0  0  0  0  0  0  0  0  0  0  0
   -1.3800   -2.7114   -4.6508 C   0  0  0  0  0  0  0  0  0  0  0  0
   -0.2832   -1.6990   -2.5481 H   0  0  0  0  0  0  0  0  0  0  0  0
   -2.9571   -1.5080   -3.8511 H   0  0  0  0  0  0  0  0  0  0  0  0
   -0.5487   -3.3370   -4.3101 H   0  0  0  0  0  0  0  0  0  0  0  0
   -2.0367   -3.3193   -5.2808 H   0  0  0  0  0  0  0  0  0  0  0  0
   -0.9760   -1.8952   -5.2576 H   0  0  0  0  0  0  0  0  0  0  0  0
   -3.9187   -2.9248   -1.8334 N   0  0  0  0  0  0  0  0  0  0  0  0
   -4.4753   -3.8328   -0.8404 C   0  0  0  0  0  0  0  0  0  0  0  0
   -4.0090   -1.9211   -1.6580 H   0  0  0  0  0  0  0  0  0  0  0  0
   -4.8349   -4.7495   -1.3183 H   0  0  0  0  0  0  0  0  0  0  0  0
   -3.7207   -4.0969   -0.0926 H   0  0  0  0  0  0  0  0  0  0  0  0
   -5.3173   -3.3568   -0.3293 H   0  0  0  0  0  0  0  0  0  0  0  0
  1  2  2  0  0  0  0
  1  3  1  0  0  0  0
  1  7  1  0  0  0  0
  3  4  1  0  0  0  0
  3  5  1  0  0  0  0
  3  6  1  0  0  0  0
  7  8  1  0  0  0  0
  7 12  1  0  0  0  0
  8  9  1  0  0  0  0
  8 11  1  0  0  0  0
  8 13  1  0  0  0  0
  9 10  2  0  0  0  0
  9 17  1  0  0  0  0
 11 14  1  0  0  0  0
 11 15  1  0  0  0  0
 11 16  1  0  0  0  0
 17 18  1  0  0  0  0
 17 26  1  0  0  0  0
 18 19  1  0  0  0  0
 18 21  1  0  0  0  0
 18 27  1  0  0  0  0
 19 20  2  0  0  0  0
 19 32  1  0  0  0  0
 21 22  1  0  0  0  0
 21 28  1  0  0  0  0
 21 29  1  0  0  0  0
 22 23  1  0  0  0  0
 22 30  1  0  0  0  0
 22 31  1  0  0  0  0
 23 24  1  0  0  0  0
 23 25  2  0  0  0  0
 32 33  1  0  0  0  0
 32 37  1  0  0  0  0
 33 34  1  0  0  0  0
 33 36  1  0  0  0  0
 33 38  1  0  0  0  0
 34 35  2  0  0  0  0
 34 42  1  0  0  0  0
 36 39  1  0  0  0  0
 36 40  1  0  0  0  0
 36 41  1  0  0  0  0
 42 43  1  0  0  0  0
 42 44  1  0  0  0  0
 43 45  1  0  0  0  0
 43 46  1  0  0  0  0
 43 47  1  0  0  0  0
M  CHG  1  24  -1
M  END
$$$$

  -OEChem-05262216243D

 47 46  0     1  0  0  0  0  0999 V2000
    0.1945   -5.8786    0.1447 C   0  0  0  0  0  0  0  0  0  0  0  0
    0.9566   -6.1268    1.0677 O   0  0  0  0  0  0  0  0  0  0  0  0
   -0.6433   -6.9849   -0.4691 C   0  0  0  0  0  0  0  0  0  0  0  0
   -0.4806   -7.0182   -1.5494 H   0  0  0  0  0  0  0  0  0  0  0  0
   -0.3695   -7.9522   -0.0399 H   0  0  0  0  0  0  0  0  0  0  0  0
   -1.7025   -6.7972   -0.2776 H   0  0  0  0  0  0  0  0  0  0  0  0
    0.0762   -4.5980   -0.3459 N   0  0  0  0  0  0  0  0  0  0  0  0
    0.6619   -3.4034    0.2845 C   0  0  2  0  0  0  0  0  0  0  0  0
   -0.3304   -2.2192    0.2526 C   0  0  0  0  0  0  0  0  0  0  0  0
   -1.5340   -2.4389    0.2444 O   0  0  0  0  0  0  0  0  0  0  0  0
    1.9723   -3.0860   -0.4484 C   0  0  0  0  0  0  0  0  0  0  0  0
   -0.6904   -4.4556   -1.0121 H   0  0  0  0  0  0  0  0  0  0  0  0
    0.8855   -3.6020    1.3381 H   0  0  0  0  0  0  0  0  0  0  0  0
    1.7776   -2.8333   -1.4954 H   0  0  0  0  0  0  0  0  0  0  0  0
    2.4919   -2.2462    0.0231 H   0  0  0  0  0  0  0  0  0  0  0  0
    2.6386   -3.9540   -0.4202 H   0  0  0  0  0  0  0  0  0  0  0  0
    0.0922   -0.9036    0.1936 N   0  0  0  0  0  0  0  0  0  0  0  0
   -0.4400    0.1278   -0.7311 C   0  0  2  0  0  0  0  0  0  0  0  0
   -1.5576   -0.2643   -1.7358 C   0  0  0  0  0  0  0  0  0  0  0  0
   -2.5709    0.4168   -1.8371 O   0  0  0  0  0  0  0  0  0  0  0  0
    0.7742    0.6028   -1.5449 C   0  0  0  0  0  0  0  0  0  0  0  0
    1.7975    1.3531   -0.6755 C   0  0  0  0  0  0  0  0  0  0  0  0
    2.9904    1.7762   -1.5268 C   0  0  0  0  0  0  0  0  0  0  0  0
    3.7755    0.8604   -1.8769 O   0  5  0  0  0  0  0  0  0  0  0  0
    3.1029    2.9838   -1.8442 O   0  0  0  0  0  0  0  0  0  0  0  0
    1.0913   -0.8015    0.3593 H   0  0  0  0  0  0  0  0  0  0  0  0
   -0.8321    0.9594   -0.1365 H   0  0  0  0  0  0  0  0  0  0  0  0
    0.4368    1.2832   -2.3358 H   0  0  0  0  0  0  0  0  0  0  0  0
    1.2577   -0.2508   -2.0333 H   0  0  0  0  0  0  0  0  0  0  0  0
    1.3311    2.2373   -0.2303 H   0  0  0  0  0  0  0  0  0  0  0  0
    2.1597    0.7198    0.1385 H   0  0  0  0  0  0  0  0  0  0  0  0
   -1.4600   -1.4387   -2.4646 N   0  0  0  0  0  0  0  0  0  0  0  0
   -2.5935   -2.1334   -3.0802 C   0  0  2  0  0  0  0  0  0  0  0  0
   -2.8557   -3.4677   -2.3501 C   0  0  0  0  0  0  0  0  0  0  0  0
   -2.0333   -4.3819   -2.4042 O   0  0  0  0  0  0  0  0  0  0  0  0
   -2.2699   -2.3533   -4.5599 C   0  0  0  0  0  0  0  0  0  0  0  0
   -0.6528   -2.0113   -2.2389 H   0  0  0  0  0  0  0  0  0  0  0  0
   -3.5036   -1.5288   -3.0169 H   0  0  0  0  0  0  0  0  0  0  0  0
   -1.3545   -2.9429   -4.6731 H   0  0  0  0  0  0  0  0  0  0  0  0
   -3.0896   -2.8842   -5.0529 H   0  0  0  0  0  0  0  0  0  0  0  0
   -2.1275   -1.3908   -5.0608 H   0  0  0  0  0  0  0  0  0  0  0  0
   -3.9853   -3.6112   -1.5674 N   0  0  0  0  0  0  0  0  0  0  0  0
   -4.1383   -4.7153   -0.6297 C   0  0  0  0  0  0  0  0  0  0  0  0
   -4.4595   -2.7395   -1.3434 H   0  0  0  0  0  0  0  0  0  0  0  0
   -4.0663   -5.6762   -1.1494 H   0  0  0  0  0  0  0  0  0  0  0  0
   -3.3620   -4.6702    0.1416 H   0  0  0  0  0  0  0  0  0  0  0  0
   -5.1161   -4.6605   -0.1424 H   0  0  0  0  0  0  0  0  0  0  0  0
  1  2  2  0  0  0  0
  1  3  1  0  0  0  0
  1  7  1  0  0  0  0
  3  4  1  0  0  0  0
  3  5  1  0  0  0  0
  3  6  1  0  0  0  0
  7  8  1  0  0  0  0
  7 12  1  0  0  0  0
  8  9  1  0  0  0  0
  8 11  1  0  0  0  0
  8 13  1  0  0  0  0
  9 10  2  0  0  0  0
  9 17  1  0  0  0  0
 11 14  1  0  0  0  0
 11 15  1  0  0  0  0
 11 16  1  0  0  0  0
 17 18  1  0  0  0  0
 17 26  1  0  0  0  0
 18 19  1  0  0  0  0
 18 21  1  0  0  0  0
 18 27  1  0  0  0  0
 19 20  2  0  0  0  0
 19 32  1  0  0  0  0
 21 22  1  0  0  0  0
 21 28  1  0  0  0  0
 21 29  1  0  0  0  0
 22 23  1  0  0  0  0
 22 30  1  0  0  0  0
 22 31  1  0  0  0  0
 23 24  1  0  0  0  0
 23 25  2  0  0  0  0
 32 33  1  0  0  0  0
 32 37  1  0  0  0  0
 33 34  1  0  0  0  0
 33 36  1  0  0  0  0
 33 38  1  0  0  0  0
 34 35  2  0  0  0  0
 34 42  1  0  0  0  0
 36 39  1  0  0  0  0
 36 40  1  0  0  0  0
 36 41  1  0  0  0  0
 42 43  1  0  0  0  0
 42 44  1  0  0  0  0
 43 45  1  0  0  0  0
 43 46  1  0  0  0  0
 43 47  1  0  0  0  0
M  CHG  1  24  -1
M  END
$$$$

  -OEChem-05262216243D

 47 46  0     1  0  0  0  0  0999 V2000
    0.3023   -5.6658    1.0274 C   0  0  0  0  0  0  0  0  0  0  0  0
    1.0930   -5.7767    1.9533 O   0  0  0  0  0  0  0  0  0  0  0  0
   -0.7420   -6.7412    0.7919 C   0  0  0  0  0  0  0  0  0  0  0  0
   -0.6276   -7.1566   -0.2124 H   0  0  0  0  0  0  0  0  0  0  0  0
   -0.6311   -7.5457    1.5239 H   0  0  0  0  0  0  0  0  0  0  0  0
   -1.7426   -6.3113    0.8859 H   0  0  0  0  0  0  0  0  0  0  0  0
    0.3410   -4.5771    0.1848 N   0  0  0  0  0  0  0  0  0  0  0  0
    1.0706   -3.3315    0.4832 C   0  0  2  0  0  0  0  0  0  0  0  0
    0.0996   -2.1340    0.6026 C   0  0  0  0  0  0  0  0  0  0  0  0
   -1.0816   -2.3333    0.8540 O   0  0  0  0  0  0  0  0  0  0  0  0
    2.1007   -3.1306   -0.6356 C   0  0  0  0  0  0  0  0  0  0  0  0
   -0.4670   -4.5027   -0.4420 H   0  0  0  0  0  0  0  0  0  0  0  0
    1.6030   -3.4096    1.4367 H   0  0  0  0  0  0  0  0  0  0  0  0
    1.6014   -2.9992   -1.6010 H   0  0  0  0  0  0  0  0  0  0  0  0
    2.7229   -2.2510   -0.4425 H   0  0  0  0  0  0  0  0  0  0  0  0
    2.7586   -4.0029   -0.7014 H   0  0  0  0  0  0  0  0  0  0  0  0
    0.4934   -0.8401    0.3159 N   0  0  0  0  0  0  0  0  0  0  0  0
   -0.1892    0.0977   -0.6141 C   0  0  2  0  0  0  0  0  0  0  0  0
   -1.4699   -0.3397   -1.3838 C   0  0  0  0  0  0  0  0  0  0  0  0
   -2.3074    0.4928   -1.7112 O   0  0  0  0  0  0  0  0  0  0  0  0
    0.8805    0.4587   -1.6598 C   0  0  0  0  0  0  0  0  0  0  0  0
    2.0328    1.2777   -1.0489 C   0  0  0  0  0  0  0  0  0  0  0  0
    3.0833    1.5910   -2.1107 C   0  0  0  0  0  0  0  0  0  0  0  0
    3.7663    0.6201   -2.5220 O   0  5  0  0  0  0  0  0  0  0  0  0
    3.2056    2.7759   -2.5027 O   0  0  0  0  0  0  0  0  0  0  0  0
    1.5061   -0.7446    0.2748 H   0  0  0  0  0  0  0  0  0  0  0  0
   -0.4671    0.9943   -0.0508 H   0  0  0  0  0  0  0  0  0  0  0  0
    0.4232    1.0584   -2.4556 H   0  0  0  0  0  0  0  0  0  0  0  0
    1.2732   -0.4524   -2.1251 H   0  0  0  0  0  0  0  0  0  0  0  0
    1.6423    2.2109   -0.6320 H   0  0  0  0  0  0  0  0  0  0  0  0
    2.5174    0.7264   -0.2391 H   0  0  0  0  0  0  0  0  0  0  0  0
   -1.6802   -1.6569   -1.7455 N   0  0  0  0  0  0  0  0  0  0  0  0
   -2.9413   -2.2098   -2.2351 C   0  0  2  0  0  0  0  0  0  0  0  0
   -3.0662   -3.7003   -1.8415 C   0  0  0  0  0  0  0  0  0  0  0  0
   -2.0730   -4.3658   -1.5459 O   0  0  0  0  0  0  0  0  0  0  0  0
   -2.9956   -2.0485   -3.7569 C   0  0  0  0  0  0  0  0  0  0  0  0
   -1.1041   -2.3168   -1.2270 H   0  0  0  0  0  0  0  0  0  0  0  0
   -3.7774   -1.6690   -1.7796 H   0  0  0  0  0  0  0  0  0  0  0  0
   -2.1629   -2.5811   -4.2275 H   0  0  0  0  0  0  0  0  0  0  0  0
   -3.9347   -2.4472   -4.1516 H   0  0  0  0  0  0  0  0  0  0  0  0
   -2.9282   -0.9902   -4.0287 H   0  0  0  0  0  0  0  0  0  0  0  0
   -4.3073   -4.3110   -1.8284 N   0  0  0  0  0  0  0  0  0  0  0  0
   -4.5163   -5.6944   -1.4215 C   0  0  0  0  0  0  0  0  0  0  0  0
   -5.1154   -3.7259   -2.0199 H   0  0  0  0  0  0  0  0  0  0  0  0
   -3.9432   -6.3725   -2.0623 H   0  0  0  0  0  0  0  0  0  0  0  0
   -4.2022   -5.8391   -0.3826 H   0  0  0  0  0  0  0  0  0  0  0  0
   -5.5756   -5.9561   -1.5027 H   0  0  0  0  0  0  0  0  0  0  0  0
  1  2  2  0  0  0  0
  1  3  1  0  0  0  0
  1  7  1  0  0  0  0
  3  4  1  0  0  0  0
  3  5  1  0  0  0  0
  3  6  1  0  0  0  0
  7  8  1  0  0  0  0
  7 12  1  0  0  0  0
  8  9  1  0  0  0  0
  8 11  1  0  0  0  0
  8 13  1  0  0  0  0
  9 10  2  0  0  0  0
  9 17  1  0  0  0  0
 11 14  1  0  0  0  0
 11 15  1  0  0  0  0
 11 16  1  0  0  0  0
 17 18  1  0  0  0  0
 17 26  1  0  0  0  0
 18 19  1  0  0  0  0
 18 21  1  0  0  0  0
 18 27  1  0  0  0  0
 19 20  2  0  0  0  0
 19 32  1  0  0  0  0
 21 22  1  0  0  0  0
 21 28  1  0  0  0  0
 21 29  1  0  0  0  0
 22 23  1  0  0  0  0
 22 30  1  0  0  0  0
 22 31  1  0  0  0  0
 23 24  1  0  0  0  0
 23 25  2  0  0  0  0
 32 33  1  0  0  0  0
 32 37  1  0  0  0  0
 33 34  1  0  0  0  0
 33 36  1  0  0  0  0
 33 38  1  0  0  0  0
 34 35  2  0  0  0  0
 34 42  1  0  0  0  0
 36 39  1  0  0  0  0
 36 40  1  0  0  0  0
 36 41  1  0  0  0  0
 42 43  1  0  0  0  0
 42 44  1  0  0  0  0
 43 45  1  0  0  0  0
 43 46  1  0  0  0  0
 43 47  1  0  0  0  0
M  CHG  1  24  -1
M  END
$$$$

  -OEChem-05262216243D

 47 46  0     1  0  0  0  0  0999 V2000
    0.4068   -5.7122    1.1481 C   0  0  0  0  0  0  0  0  0  0  0  0
    1.3661   -5.8761    1.8880 O   0  0  0  0  0  0  0  0  0  0  0  0
   -0.6923   -6.7571    1.0903 C   0  0  0  0  0  0  0  0  0  0  0  0
   -0.8696   -7.0543    0.0538 H   0  0  0  0  0  0  0  0  0  0  0  0
   -0.4079   -7.6401    1.6686 H   0  0  0  0  0  0  0  0  0  0  0  0
   -1.6162   -6.3432    1.5021 H   0  0  0  0  0  0  0  0  0  0  0  0
    0.3031   -4.5900    0.3565 N   0  0  0  0  0  0  0  0  0  0  0  0
    1.1305   -3.3805    0.5204 C   0  0  2  0  0  0  0  0  0  0  0  0
    0.2539   -2.1428    0.8238 C   0  0  0  0  0  0  0  0  0  0  0  0
   -0.8621   -2.2903    1.3073 O   0  0  0  0  0  0  0  0  0  0  0  0
    1.9446   -3.2144   -0.7688 C   0  0  0  0  0  0  0  0  0  0  0  0
   -0.6057   -4.4791   -0.1048 H   0  0  0  0  0  0  0  0  0  0  0  0
    1.8246   -3.4944    1.3598 H   0  0  0  0  0  0  0  0  0  0  0  0
    1.2811   -3.0534   -1.6248 H   0  0  0  0  0  0  0  0  0  0  0  0
    2.6307   -2.3648   -0.6934 H   0  0  0  0  0  0  0  0  0  0  0  0
    2.5393   -4.1138   -0.9565 H   0  0  0  0  0  0  0  0  0  0  0  0
    0.6235   -0.8626    0.4579 N   0  0  0  0  0  0  0  0  0  0  0  0
   -0.1343    0.0412   -0.4496 C   0  0  2  0  0  0  0  0  0  0  0  0
   -1.4786   -0.4016   -1.1082 C   0  0  0  0  0  0  0  0  0  0  0  0
   -2.1785    0.4229   -1.6836 O   0  0  0  0  0  0  0  0  0  0  0  0
    0.8637    0.3692   -1.5770 C   0  0  0  0  0  0  0  0  0  0  0  0
    2.0499    1.2112   -1.0708 C   0  0  0  0  0  0  0  0  0  0  0  0
    3.0281    1.4919   -2.2079 C   0  0  0  0  0  0  0  0  0  0  0  0
    3.6818    0.5079   -2.6355 O   0  5  0  0  0  0  0  0  0  0  0  0
    3.1299    2.6660   -2.6365 O   0  0  0  0  0  0  0  0  0  0  0  0
    1.6252   -0.7944    0.2889 H   0  0  0  0  0  0  0  0  0  0  0  0
   -0.3678    0.9550    0.1055 H   0  0  0  0  0  0  0  0  0  0  0  0
    0.3569    0.9442   -2.3609 H   0  0  0  0  0  0  0  0  0  0  0  0
    1.2276   -0.5547   -2.0394 H   0  0  0  0  0  0  0  0  0  0  0  0
    1.6826    2.1573   -0.6619 H   0  0  0  0  0  0  0  0  0  0  0  0
    2.5890    0.6904   -0.2752 H   0  0  0  0  0  0  0  0  0  0  0  0
   -1.8897   -1.7184   -1.1489 N   0  0  0  0  0  0  0  0  0  0  0  0
   -3.0745   -2.2623   -1.8105 C   0  0  2  0  0  0  0  0  0  0  0  0
   -3.3384   -3.7045   -1.3213 C   0  0  0  0  0  0  0  0  0  0  0  0
   -2.4222   -4.4022   -0.8862 O   0  0  0  0  0  0  0  0  0  0  0  0
   -2.8590   -2.2670   -3.3287 C   0  0  0  0  0  0  0  0  0  0  0  0
   -1.4772   -2.3090   -0.4257 H   0  0  0  0  0  0  0  0  0  0  0  0
   -3.9431   -1.6439   -1.5628 H   0  0  0  0  0  0  0  0  0  0  0  0
   -1.9746   -2.8591   -3.5854 H   0  0  0  0  0  0  0  0  0  0  0  0
   -3.7269   -2.6961   -3.8377 H   0  0  0  0  0  0  0  0  0  0  0  0
   -2.7133   -1.2481   -3.7004 H   0  0  0  0  0  0  0  0  0  0  0  0
   -4.6143   -4.2347   -1.3822 N   0  0  0  0  0  0  0  0  0  0  0  0
   -4.9532   -5.5670   -0.8992 C   0  0  0  0  0  0  0  0  0  0  0  0
   -5.3577   -3.6246   -1.7092 H   0  0  0  0  0  0  0  0  0  0  0  0
   -4.3741   -6.3273   -1.4337 H   0  0  0  0  0  0  0  0  0  0  0  0
   -4.7425   -5.6507    0.1722 H   0  0  0  0  0  0  0  0  0  0  0  0
   -6.0169   -5.7669   -1.0597 H   0  0  0  0  0  0  0  0  0  0  0  0
  1  2  2  0  0  0  0
  1  3  1  0  0  0  0
  1  7  1  0  0  0  0
  3  4  1  0  0  0  0
  3  5  1  0  0  0  0
  3  6  1  0  0  0  0
  7  8  1  0  0  0  0
  7 12  1  0  0  0  0
  8  9  1  0  0  0  0
  8 11  1  0  0  0  0
  8 13  1  0  0  0  0
  9 10  2  0  0  0  0
  9 17  1  0  0  0  0
 11 14  1  0  0  0  0
 11 15  1  0  0  0  0
 11 16  1  0  0  0  0
 17 18  1  0  0  0  0
 17 26  1  0  0  0  0
 18 19  1  0  0  0  0
 18 21  1  0  0  0  0
 18 27  1  0  0  0  0
 19 20  2  0  0  0  0
 19 32  1  0  0  0  0
 21 22  1  0  0  0  0
 21 28  1  0  0  0  0
 21 29  1  0  0  0  0
 22 23  1  0  0  0  0
 22 30  1  0  0  0  0
 22 31  1  0  0  0  0
 23 24  1  0  0  0  0
 23 25  2  0  0  0  0
 32 33  1  0  0  0  0
 32 37  1  0  0  0  0
 33 34  1  0  0  0  0
 33 36  1  0  0  0  0
 33 38  1  0  0  0  0
 34 35  2  0  0  0  0
 34 42  1  0  0  0  0
 36 39  1  0  0  0  0
 36 40  1  0  0  0  0
 36 41  1  0  0  0  0
 42 43  1  0  0  0  0
 42 44  1  0  0  0  0
 43 45  1  0  0  0  0
 43 46  1  0  0  0  0
 43 47  1  0  0  0  0
M  CHG  1  24  -1
M  END
$$$$

  -OEChem-05262216243D

 47 46  0     1  0  0  0  0  0999 V2000
    2.1288   -6.3361    1.1155 C   0  0  0  0  0  0  0  0  0  0  0  0
    3.0751   -5.9457    1.7808 O   0  0  0  0  0  0  0  0  0  0  0  0
    1.6662   -7.7771    1.2295 C   0  0  0  0  0  0  0  0  0  0  0  0
    1.7119   -8.2622    0.2515 H   0  0  0  0  0  0  0  0  0  0  0  0
    2.3073   -8.3253    1.9254 H   0  0  0  0  0  0  0  0  0  0  0  0
    0.6378   -7.8106    1.5975 H   0  0  0  0  0  0  0  0  0  0  0  0
    1.4639   -5.4729    0.2716 N   0  0  0  0  0  0  0  0  0  0  0  0
    1.6868   -4.0210    0.2209 C   0  0  2  0  0  0  0  0  0  0  0  0
    0.3730   -3.2546   -0.0502 C   0  0  0  0  0  0  0  0  0  0  0  0
   -0.6308   -3.8953   -0.3331 O   0  0  0  0  0  0  0  0  0  0  0  0
    2.7179   -3.7277   -0.8740 C   0  0  0  0  0  0  0  0  0  0  0  0
    0.5917   -5.8070   -0.1364 H   0  0  0  0  0  0  0  0  0  0  0  0
    2.0760   -3.6708    1.1832 H   0  0  0  0  0  0  0  0  0  0  0  0
    2.3444   -4.0543   -1.8498 H   0  0  0  0  0  0  0  0  0  0  0  0
    2.9342   -2.6556   -0.9267 H   0  0  0  0  0  0  0  0  0  0  0  0
    3.6535   -4.2556   -0.6640 H   0  0  0  0  0  0  0  0  0  0  0  0
    0.3694   -1.8780    0.0918 N   0  0  0  0  0  0  0  0  0  0  0  0
   -0.5789   -0.8037   -0.3048 C   0  0  2  0  0  0  0  0  0  0  0  0
   -1.9284   -1.0315   -1.0555 C   0  0  0  0  0  0  0  0  0  0  0  0
   -2.6541   -0.0628   -1.2564 O   0  0  0  0  0  0  0  0  0  0  0  0
    0.3056    0.1342   -1.1546 C   0  0  0  0  0  0  0  0  0  0  0  0
    1.3936    0.8269   -0.3086 C   0  0  0  0  0  0  0  0  0  0  0  0
    2.2639    1.7237   -1.1847 C   0  0  0  0  0  0  0  0  0  0  0  0
    3.0570    1.1423   -1.9663 O   0  5  0  0  0  0  0  0  0  0  0  0
    2.1511    2.9667   -1.0647 O   0  0  0  0  0  0  0  0  0  0  0  0
    1.2915   -1.5131    0.3226 H   0  0  0  0  0  0  0  0  0  0  0  0
   -0.8700   -0.2827    0.6127 H   0  0  0  0  0  0  0  0  0  0  0  0
   -0.3083    0.9202   -1.6093 H   0  0  0  0  0  0  0  0  0  0  0  0
    0.7676   -0.4286   -1.9739 H   0  0  0  0  0  0  0  0  0  0  0  0
    0.9235    1.4280    0.4756 H   0  0  0  0  0  0  0  0  0  0  0  0
    2.0437    0.0947    0.1762 H   0  0  0  0  0  0  0  0  0  0  0  0
   -2.4368   -2.2487   -1.4598 N   0  0  0  0  0  0  0  0  0  0  0  0
   -3.6738   -2.4557   -2.2284 C   0  0  2  0  0  0  0  0  0  0  0  0
   -4.9526   -2.3919   -1.3554 C   0  0  0  0  0  0  0  0  0  0  0  0
   -5.7953   -3.2846   -1.3675 O   0  0  0  0  0  0  0  0  0  0  0  0
   -3.5187   -3.7948   -2.9597 C   0  0  0  0  0  0  0  0  0  0  0  0
   -1.8934   -3.0698   -1.1904 H   0  0  0  0  0  0  0  0  0  0  0  0
   -3.7621   -1.6689   -2.9848 H   0  0  0  0  0  0  0  0  0  0  0  0
   -3.4442   -4.6172   -2.2409 H   0  0  0  0  0  0  0  0  0  0  0  0
   -4.3806   -3.9764   -3.6093 H   0  0  0  0  0  0  0  0  0  0  0  0
   -2.6161   -3.7884   -3.5783 H   0  0  0  0  0  0  0  0  0  0  0  0
   -5.1762   -1.2761   -0.5733 N   0  0  0  0  0  0  0  0  0  0  0  0
   -6.3458   -1.0791    0.2690 C   0  0  0  0  0  0  0  0  0  0  0  0
   -4.4548   -0.5501   -0.6184 H   0  0  0  0  0  0  0  0  0  0  0  0
   -7.2563   -1.0683   -0.3385 H   0  0  0  0  0  0  0  0  0  0  0  0
   -6.4225   -1.8807    1.0105 H   0  0  0  0  0  0  0  0  0  0  0  0
   -6.2707   -0.1245    0.7980 H   0  0  0  0  0  0  0  0  0  0  0  0
  1  2  2  0  0  0  0
  1  3  1  0  0  0  0
  1  7  1  0  0  0  0
  3  4  1  0  0  0  0
  3  5  1  0  0  0  0
  3  6  1  0  0  0  0
  7  8  1  0  0  0  0
  7 12  1  0  0  0  0
  8  9  1  0  0  0  0
  8 11  1  0  0  0  0
  8 13  1  0  0  0  0
  9 10  2  0  0  0  0
  9 17  1  0  0  0  0
 11 14  1  0  0  0  0
 11 15  1  0  0  0  0
 11 16  1  0  0  0  0
 17 18  1  0  0  0  0
 17 26  1  0  0  0  0
 18 19  1  0  0  0  0
 18 21  1  0  0  0  0
 18 27  1  0  0  0  0
 19 20  2  0  0  0  0
 19 32  1  0  0  0  0
 21 22  1  0  0  0  0
 21 28  1  0  0  0  0
 21 29  1  0  0  0  0
 22 23  1  0  0  0  0
 22 30  1  0  0  0  0
 22 31  1  0  0  0  0
 23 24  1  0  0  0  0
 23 25  2  0  0  0  0
 32 33  1  0  0  0  0
 32 37  1  0  0  0  0
 33 34  1  0  0  0  0
 33 36  1  0  0  0  0
 33 38  1  0  0  0  0
 34 35  2  0  0  0  0
 34 42  1  0  0  0  0
 36 39  1  0  0  0  0
 36 40  1  0  0  0  0
 36 41  1  0  0  0  0
 42 43  1  0  0  0  0
 42 44  1  0  0  0  0
 43 45  1  0  0  0  0
 43 46  1  0  0  0  0
 43 47  1  0  0  0  0
M  CHG  1  24  -1
M  END
$$$$

  -OEChem-05262216243D

 47 46  0     1  0  0  0  0  0999 V2000
    2.3606   -6.1544    1.0663 C   0  0  0  0  0  0  0  0  0  0  0  0
    3.2795   -5.7061    1.7335 O   0  0  0  0  0  0  0  0  0  0  0  0
    1.9749   -7.6168    1.1943 C   0  0  0  0  0  0  0  0  0  0  0  0
    0.9227   -7.7022    1.4773 H   0  0  0  0  0  0  0  0  0  0  0  0
    2.1313   -8.1279    0.2413 H   0  0  0  0  0  0  0  0  0  0  0  0
    2.5861   -8.1025    1.9602 H   0  0  0  0  0  0  0  0  0  0  0  0
    1.6580   -5.3395    0.2051 N   0  0  0  0  0  0  0  0  0  0  0  0
    1.7967   -3.8775    0.1437 C   0  0  2  0  0  0  0  0  0  0  0  0
    0.4335   -3.1874   -0.0875 C   0  0  0  0  0  0  0  0  0  0  0  0
   -0.5400   -3.8864   -0.3362 O   0  0  0  0  0  0  0  0  0  0  0  0
    2.7778   -3.5338   -0.9817 C   0  0  0  0  0  0  0  0  0  0  0  0
    0.8061   -5.7253   -0.2000 H   0  0  0  0  0  0  0  0  0  0  0  0
    2.1941   -3.5006    1.0923 H   0  0  0  0  0  0  0  0  0  0  0  0
    2.3950   -3.8854   -1.9449 H   0  0  0  0  0  0  0  0  0  0  0  0
    2.9340   -2.4521   -1.0440 H   0  0  0  0  0  0  0  0  0  0  0  0
    3.7463   -4.0093   -0.7965 H   0  0  0  0  0  0  0  0  0  0  0  0
    0.3625   -1.8105    0.0371 N   0  0  0  0  0  0  0  0  0  0  0  0
   -0.6803   -0.7931   -0.2617 C   0  0  2  0  0  0  0  0  0  0  0  0
   -2.0916   -1.1105   -0.8545 C   0  0  0  0  0  0  0  0  0  0  0  0
   -2.8219   -0.1801   -1.1810 O   0  0  0  0  0  0  0  0  0  0  0  0
    0.0708    0.1944   -1.1854 C   0  0  0  0  0  0  0  0  0  0  0  0
    1.1916    0.9432   -0.4332 C   0  0  0  0  0  0  0  0  0  0  0  0
    1.9332    1.8900   -1.3724 C   0  0  0  0  0  0  0  0  0  0  0  0
    2.7026    1.3580   -2.2104 O   0  5  0  0  0  0  0  0  0  0  0  0
    1.7516    3.1238   -1.2414 O   0  0  0  0  0  0  0  0  0  0  0  0
    1.2751   -1.3917    0.2069 H   0  0  0  0  0  0  0  0  0  0  0  0
   -0.9054   -0.2862    0.6813 H   0  0  0  0  0  0  0  0  0  0  0  0
   -0.6198    0.9494   -1.5780 H   0  0  0  0  0  0  0  0  0  0  0  0
    0.4870   -0.3410   -2.0465 H   0  0  0  0  0  0  0  0  0  0  0  0
    0.7612    1.5146    0.3947 H   0  0  0  0  0  0  0  0  0  0  0  0
    1.9207    0.2459   -0.0133 H   0  0  0  0  0  0  0  0  0  0  0  0
   -2.6766   -2.3593   -0.9105 N   0  0  0  0  0  0  0  0  0  0  0  0
   -3.9775   -2.6707   -1.5237 C   0  0  2  0  0  0  0  0  0  0  0  0
   -5.1764   -2.3735   -0.5880 C   0  0  0  0  0  0  0  0  0  0  0  0
   -6.0403   -3.2123   -0.3489 O   0  0  0  0  0  0  0  0  0  0  0  0
   -3.9177   -4.1369   -1.9684 C   0  0  0  0  0  0  0  0  0  0  0  0
   -2.0779   -3.1396   -0.6368 H   0  0  0  0  0  0  0  0  0  0  0  0
   -4.1099   -2.0559   -2.4200 H   0  0  0  0  0  0  0  0  0  0  0  0
   -3.8036   -4.7963   -1.1020 H   0  0  0  0  0  0  0  0  0  0  0  0
   -4.8356   -4.4117   -2.4974 H   0  0  0  0  0  0  0  0  0  0  0  0
   -3.0700   -4.2957   -2.6420 H   0  0  0  0  0  0  0  0  0  0  0  0
   -5.3005   -1.1141   -0.0354 N   0  0  0  0  0  0  0  0  0  0  0  0
   -6.3881   -0.6977    0.8366 C   0  0  0  0  0  0  0  0  0  0  0  0
   -4.5674   -0.4443   -0.2869 H   0  0  0  0  0  0  0  0  0  0  0  0
   -7.3444   -0.7483    0.3063 H   0  0  0  0  0  0  0  0  0  0  0  0
   -6.4376   -1.3423    1.7201 H   0  0  0  0  0  0  0  0  0  0  0  0
   -6.2295    0.3328    1.1686 H   0  0  0  0  0  0  0  0  0  0  0  0
  1  2  2  0  0  0  0
  1  3  1  0  0  0  0
  1  7  1  0  0  0  0
  3  4  1  0  0  0  0
  3  5  1  0  0  0  0
  3  6  1  0  0  0  0
  7  8  1  0  0  0  0
  7 12  1  0  0  0  0
  8  9  1  0  0  0  0
  8 11  1  0  0  0  0
  8 13  1  0  0  0  0
  9 10  2  0  0  0  0
  9 17  1  0  0  0  0
 11 14  1  0  0  0  0
 11 15  1  0  0  0  0
 11 16  1  0  0  0  0
 17 18  1  0  0  0  0
 17 26  1  0  0  0  0
 18 19  1  0  0  0  0
 18 21  1  0  0  0  0
 18 27  1  0  0  0  0
 19 20  2  0  0  0  0
 19 32  1  0  0  0  0
 21 22  1  0  0  0  0
 21 28  1  0  0  0  0
 21 29  1  0  0  0  0
 22 23  1  0  0  0  0
 22 30  1  0  0  0  0
 22 31  1  0  0  0  0
 23 24  1  0  0  0  0
 23 25  2  0  0  0  0
 32 33  1  0  0  0  0
 32 37  1  0  0  0  0
 33 34  1  0  0  0  0
 33 36  1  0  0  0  0
 33 38  1  0  0  0  0
 34 35  2  0  0  0  0
 34 42  1  0  0  0  0
 36 39  1  0  0  0  0
 36 40  1  0  0  0  0
 36 41  1  0  0  0  0
 42 43  1  0  0  0  0
 42 44  1  0  0  0  0
 43 45  1  0  0  0  0
 43 46  1  0  0  0  0
 43 47  1  0  0  0  0
M  CHG  1  24  -1
M  END
$$$$

  -OEChem-05262216243D

 47 46  0     1  0  0  0  0  0999 V2000
    1.8368   -5.8760    1.6375 C   0  0  0  0  0  0  0  0  0  0  0  0
    2.9096   -5.5319    2.1084 O   0  0  0  0  0  0  0  0  0  0  0  0
    1.1910   -7.1718    2.0930 C   0  0  0  0  0  0  0  0  0  0  0  0
    1.0048   -7.8193    1.2328 H   0  0  0  0  0  0  0  0  0  0  0  0
    1.8479   -7.6957    2.7931 H   0  0  0  0  0  0  0  0  0  0  0  0
    0.2420   -6.9594    2.5914 H   0  0  0  0  0  0  0  0  0  0  0  0
    1.1985   -5.0901    0.7028 N   0  0  0  0  0  0  0  0  0  0  0  0
    1.6147   -3.7310    0.3302 C   0  0  2  0  0  0  0  0  0  0  0  0
    0.3934   -2.8320    0.0350 C   0  0  0  0  0  0  0  0  0  0  0  0
   -0.7033   -3.3596   -0.0839 O   0  0  0  0  0  0  0  0  0  0  0  0
    2.5278   -3.8219   -0.8968 C   0  0  0  0  0  0  0  0  0  0  0  0
    0.2411   -5.3446    0.4609 H   0  0  0  0  0  0  0  0  0  0  0  0
    2.1681   -3.2723    1.1567 H   0  0  0  0  0  0  0  0  0  0  0  0
    1.9911   -4.2659   -1.7413 H   0  0  0  0  0  0  0  0  0  0  0  0
    2.8798   -2.8283   -1.1925 H   0  0  0  0  0  0  0  0  0  0  0  0
    3.4014   -4.4422   -0.6731 H   0  0  0  0  0  0  0  0  0  0  0  0
    0.5854   -1.4651   -0.0647 N   0  0  0  0  0  0  0  0  0  0  0  0
   -0.2964   -0.3327   -0.4494 C   0  0  2  0  0  0  0  0  0  0  0  0
   -1.7947   -0.5055   -0.8636 C   0  0  0  0  0  0  0  0  0  0  0  0
   -2.3427    0.3500   -1.5506 O   0  0  0  0  0  0  0  0  0  0  0  0
    0.5214    0.3776   -1.5551 C   0  0  0  0  0  0  0  0  0  0  0  0
    1.8077    1.0163   -0.9896 C   0  0  0  0  0  0  0  0  0  0  0  0
    2.6141    1.6889   -2.0974 C   0  0  0  0  0  0  0  0  0  0  0  0
    3.2465    0.9302   -2.8734 O   0  5  0  0  0  0  0  0  0  0  0  0
    2.6199    2.9423   -2.1515 O   0  0  0  0  0  0  0  0  0  0  0  0
    1.5670   -1.2014   -0.0111 H   0  0  0  0  0  0  0  0  0  0  0  0
   -0.3508    0.3327    0.4172 H   0  0  0  0  0  0  0  0  0  0  0  0
   -0.0662    1.1820   -2.0107 H   0  0  0  0  0  0  0  0  0  0  0  0
    0.7704   -0.3332   -2.3515 H   0  0  0  0  0  0  0  0  0  0  0  0
    1.5455    1.7584   -0.2296 H   0  0  0  0  0  0  0  0  0  0  0  0
    2.4459    0.2661   -0.5161 H   0  0  0  0  0  0  0  0  0  0  0  0
   -2.6184   -1.5066   -0.3869 N   0  0  0  0  0  0  0  0  0  0  0  0
   -4.0172   -1.7137   -0.7845 C   0  0  2  0  0  0  0  0  0  0  0  0
   -4.8803   -2.3441    0.3288 C   0  0  0  0  0  0  0  0  0  0  0  0
   -4.3997   -3.0947    1.1708 O   0  0  0  0  0  0  0  0  0  0  0  0
   -4.0246   -2.6028   -2.0307 C   0  0  0  0  0  0  0  0  0  0  0  0
   -2.1415   -2.2886    0.0706 H   0  0  0  0  0  0  0  0  0  0  0  0
   -4.4752   -0.7508   -1.0316 H   0  0  0  0  0  0  0  0  0  0  0  0
   -3.5662   -3.5722   -1.8095 H   0  0  0  0  0  0  0  0  0  0  0  0
   -5.0485   -2.7698   -2.3774 H   0  0  0  0  0  0  0  0  0  0  0  0
   -3.4593   -2.1269   -2.8383 H   0  0  0  0  0  0  0  0  0  0  0  0
   -6.2394   -2.0843    0.3656 N   0  0  0  0  0  0  0  0  0  0  0  0
   -7.1277   -2.6061    1.3957 C   0  0  0  0  0  0  0  0  0  0  0  0
   -6.6041   -1.4222   -0.3127 H   0  0  0  0  0  0  0  0  0  0  0  0
   -7.1213   -3.7012    1.3877 H   0  0  0  0  0  0  0  0  0  0  0  0
   -6.8115   -2.2580    2.3846 H   0  0  0  0  0  0  0  0  0  0  0  0
   -8.1522   -2.2650    1.2194 H   0  0  0  0  0  0  0  0  0  0  0  0
  1  2  2  0  0  0  0
  1  3  1  0  0  0  0
  1  7  1  0  0  0  0
  3  4  1  0  0  0  0
  3  5  1  0  0  0  0
  3  6  1  0  0  0  0
  7  8  1  0  0  0  0
  7 12  1  0  0  0  0
  8  9  1  0  0  0  0
  8 11  1  0  0  0  0
  8 13  1  0  0  0  0
  9 10  2  0  0  0  0
  9 17  1  0  0  0  0
 11 14  1  0  0  0  0
 11 15  1  0  0  0  0
 11 16  1  0  0  0  0
 17 18  1  0  0  0  0
 17 26  1  0  0  0  0
 18 19  1  0  0  0  0
 18 21  1  0  0  0  0
 18 27  1  0  0  0  0
 19 20  2  0  0  0  0
 19 32  1  0  0  0  0
 21 22  1  0  0  0  0
 21 28  1  0  0  0  0
 21 29  1  0  0  0  0
 22 23  1  0  0  0  0
 22 30  1  0  0  0  0
 22 31  1  0  0  0  0
 23 24  1  0  0  0  0
 23 25  2  0  0  0  0
 32 33  1  0  0  0  0
 32 37  1  0  0  0  0
 33 34  1  0  0  0  0
 33 36  1  0  0  0  0
 33 38  1  0  0  0  0
 34 35  2  0  0  0  0
 34 42  1  0  0  0  0
 36 39  1  0  0  0  0
 36 40  1  0  0  0  0
 36 41  1  0  0  0  0
 42 43  1  0  0  0  0
 42 44  1  0  0  0  0
 43 45  1  0  0  0  0
 43 46  1  0  0  0  0
 43 47  1  0  0  0  0
M  CHG  1  24  -1
M  END
$$$$

  -OEChem-05262216243D

 47 46  0     1  0  0  0  0  0999 V2000
    1.5862   -5.9520    1.5014 C   0  0  0  0  0  0  0  0  0  0  0  0
    2.7144   -5.7116    1.9021 O   0  0  0  0  0  0  0  0  0  0  0  0
    0.8726   -7.2119    1.9557 C   0  0  0  0  0  0  0  0  0  0  0  0
    0.5692   -7.8025    1.0879 H   0  0  0  0  0  0  0  0  0  0  0  0
    1.5353   -7.8173    2.5803 H   0  0  0  0  0  0  0  0  0  0  0  0
   -0.0149   -6.9469    2.5356 H   0  0  0  0  0  0  0  0  0  0  0  0
    0.9465   -5.0810    0.6466 N   0  0  0  0  0  0  0  0  0  0  0  0
    1.4439   -3.7459    0.2871 C   0  0  2  0  0  0  0  0  0  0  0  0
    0.2804   -2.7529    0.0718 C   0  0  0  0  0  0  0  0  0  0  0  0
   -0.8631   -3.1875    0.0453 O   0  0  0  0  0  0  0  0  0  0  0  0
    2.2901   -3.8661   -0.9845 C   0  0  0  0  0  0  0  0  0  0  0  0
   -0.0433   -5.2503    0.4693 H   0  0  0  0  0  0  0  0  0  0  0  0
    2.0662   -3.3516    1.0977 H   0  0  0  0  0  0  0  0  0  0  0  0
    1.6832   -4.2439   -1.8136 H   0  0  0  0  0  0  0  0  0  0  0  0
    2.7000   -2.8919   -1.2700 H   0  0  0  0  0  0  0  0  0  0  0  0
    3.1252   -4.5548   -0.8209 H   0  0  0  0  0  0  0  0  0  0  0  0
    0.5662   -1.4037   -0.0442 N   0  0  0  0  0  0  0  0  0  0  0  0
   -0.2630   -0.2364   -0.4373 C   0  0  2  0  0  0  0  0  0  0  0  0
   -1.7682   -0.3921   -0.8242 C   0  0  0  0  0  0  0  0  0  0  0  0
   -2.2672    0.2831   -1.7184 O   0  0  0  0  0  0  0  0  0  0  0  0
    0.5644    0.4375   -1.5565 C   0  0  0  0  0  0  0  0  0  0  0  0
    1.8798    1.0294   -1.0078 C   0  0  0  0  0  0  0  0  0  0  0  0
    2.6982    1.6680   -2.1265 C   0  0  0  0  0  0  0  0  0  0  0  0
    3.3193    0.8850   -2.8873 O   0  5  0  0  0  0  0  0  0  0  0  0
    2.7223    2.9198   -2.2047 O   0  0  0  0  0  0  0  0  0  0  0  0
    1.5646   -1.2058   -0.0506 H   0  0  0  0  0  0  0  0  0  0  0  0
   -0.2872    0.4425    0.4202 H   0  0  0  0  0  0  0  0  0  0  0  0
   -0.0015    1.2618   -2.0040 H   0  0  0  0  0  0  0  0  0  0  0  0
    0.7753   -0.2839   -2.3539 H   0  0  0  0  0  0  0  0  0  0  0  0
    1.6553    1.7830   -0.2468 H   0  0  0  0  0  0  0  0  0  0  0  0
    2.4932    0.2560   -0.5389 H   0  0  0  0  0  0  0  0  0  0  0  0
   -2.6379   -1.1667   -0.0808 N   0  0  0  0  0  0  0  0  0  0  0  0
   -4.0520   -1.3846   -0.4111 C   0  0  2  0  0  0  0  0  0  0  0  0
   -4.9110   -1.7457    0.8195 C   0  0  0  0  0  0  0  0  0  0  0  0
   -4.4328   -2.3164    1.7941 O   0  0  0  0  0  0  0  0  0  0  0  0
   -4.1321   -2.5033   -1.4549 C   0  0  0  0  0  0  0  0  0  0  0  0
   -2.1819   -1.8909    0.4804 H   0  0  0  0  0  0  0  0  0  0  0  0
   -4.4707   -0.4670   -0.8365 H   0  0  0  0  0  0  0  0  0  0  0  0
   -3.7142   -3.4311   -1.0508 H   0  0  0  0  0  0  0  0  0  0  0  0
   -5.1711   -2.6839   -1.7453 H   0  0  0  0  0  0  0  0  0  0  0  0
   -3.5659   -2.2289   -2.3507 H   0  0  0  0  0  0  0  0  0  0  0  0
   -6.2626   -1.4476    0.8188 N   0  0  0  0  0  0  0  0  0  0  0  0
   -7.1466   -1.7230    1.9439 C   0  0  0  0  0  0  0  0  0  0  0  0
   -6.6251   -0.9377    0.0187 H   0  0  0  0  0  0  0  0  0  0  0  0
   -7.1501   -2.7932    2.1759 H   0  0  0  0  0  0  0  0  0  0  0  0
   -6.8197   -1.1706    2.8310 H   0  0  0  0  0  0  0  0  0  0  0  0
   -8.1695   -1.4189    1.7030 H   0  0  0  0  0  0  0  0  0  0  0  0
  1  2  2  0  0  0  0
  1  3  1  0  0  0  0
  1  7  1  0  0  0  0
  3  4  1  0  0  0  0
  3  5  1  0  0  0  0
  3  6  1  0  0  0  0
  7  8  1  0  0  0  0
  7 12  1  0  0  0  0
  8  9  1  0  0  0  0
  8 11  1  0  0  0  0
  8 13  1  0  0  0  0
  9 10  2  0  0  0  0
  9 17  1  0  0  0  0
 11 14  1  0  0  0  0
 11 15  1  0  0  0  0
 11 16  1  0  0  0  0
 17 18  1  0  0  0  0
 17 26  1  0  0  0  0
 18 19  1  0  0  0  0
 18 21  1  0  0  0  0
 18 27  1  0  0  0  0
 19 20  2  0  0  0  0
 19 32  1  0  0  0  0
 21 22  1  0  0  0  0
 21 28  1  0  0  0  0
 21 29  1  0  0  0  0
 22 23  1  0  0  0  0
 22 30  1  0  0  0  0
 22 31  1  0  0  0  0
 23 24  1  0  0  0  0
 23 25  2  0  0  0  0
 32 33  1  0  0  0  0
 32 37  1  0  0  0  0
 33 34  1  0  0  0  0
 33 36  1  0  0  0  0
 33 38  1  0  0  0  0
 34 35  2  0  0  0  0
 34 42  1  0  0  0  0
 36 39  1  0  0  0  0
 36 40  1  0  0  0  0
 36 41  1  0  0  0  0
 42 43  1  0  0  0  0
 42 44  1  0  0  0  0
 43 45  1  0  0  0  0
 43 46  1  0  0  0  0
 43 47  1  0  0  0  0
M  CHG  1  24  -1
M  END
$$$$

  -OEChem-05262216243D

 47 46  0     1  0  0  0  0  0999 V2000
    1.3512   -5.9789    1.4196 C   0  0  0  0  0  0  0  0  0  0  0  0
    2.5156   -5.8270    1.7544 O   0  0  0  0  0  0  0  0  0  0  0  0
    0.5672   -7.1774    1.9224 C   0  0  0  0  0  0  0  0  0  0  0  0
    0.1911   -7.7586    1.0768 H   0  0  0  0  0  0  0  0  0  0  0  0
    1.2081   -7.8189    2.5339 H   0  0  0  0  0  0  0  0  0  0  0  0
   -0.2779   -6.8415    2.5288 H   0  0  0  0  0  0  0  0  0  0  0  0
    0.7322   -5.0613    0.5992 N   0  0  0  0  0  0  0  0  0  0  0  0
    1.3002   -3.7585    0.2266 C   0  0  2  0  0  0  0  0  0  0  0  0
    0.1985   -2.6812    0.1171 C   0  0  0  0  0  0  0  0  0  0  0  0
   -0.9746   -3.0221    0.2049 O   0  0  0  0  0  0  0  0  0  0  0  0
    2.0427   -3.9109   -1.1053 C   0  0  0  0  0  0  0  0  0  0  0  0
   -0.2768   -5.1538    0.4848 H   0  0  0  0  0  0  0  0  0  0  0  0
    2.0067   -3.4260    0.9948 H   0  0  0  0  0  0  0  0  0  0  0  0
    1.3536   -4.2283   -1.8946 H   0  0  0  0  0  0  0  0  0  0  0  0
    2.4999   -2.9618   -1.4042 H   0  0  0  0  0  0  0  0  0  0  0  0
    2.8364   -4.6591   -1.0130 H   0  0  0  0  0  0  0  0  0  0  0  0
    0.5651   -1.3524    0.0014 N   0  0  0  0  0  0  0  0  0  0  0  0
   -0.2258   -0.1699   -0.4129 C   0  0  2  0  0  0  0  0  0  0  0  0
   -1.7254   -0.3332   -0.8054 C   0  0  0  0  0  0  0  0  0  0  0  0
   -2.1683    0.1071   -1.8615 O   0  0  0  0  0  0  0  0  0  0  0  0
    0.6114    0.4762   -1.5384 C   0  0  0  0  0  0  0  0  0  0  0  0
    1.9385    1.0457   -0.9976 C   0  0  0  0  0  0  0  0  0  0  0  0
    2.7655    1.6566   -2.1250 C   0  0  0  0  0  0  0  0  0  0  0  0
    3.4515    0.8625   -2.8150 O   0  5  0  0  0  0  0  0  0  0  0  0
    2.7205    2.8998   -2.2875 O   0  0  0  0  0  0  0  0  0  0  0  0
    1.5706   -1.2153   -0.0795 H   0  0  0  0  0  0  0  0  0  0  0  0
   -0.2448    0.5239    0.4328 H   0  0  0  0  0  0  0  0  0  0  0  0
    0.0549    1.3048   -1.9911 H   0  0  0  0  0  0  0  0  0  0  0  0
    0.8069   -0.2568   -2.3291 H   0  0  0  0  0  0  0  0  0  0  0  0
    1.7326    1.8122   -0.2445 H   0  0  0  0  0  0  0  0  0  0  0  0
    2.5352    0.2639   -0.5208 H   0  0  0  0  0  0  0  0  0  0  0  0
   -2.6394   -0.8304    0.1046 N   0  0  0  0  0  0  0  0  0  0  0  0
   -4.0665   -1.0229   -0.1819 C   0  0  2  0  0  0  0  0  0  0  0  0
   -4.9336   -1.0657    1.0937 C   0  0  0  0  0  0  0  0  0  0  0  0
   -4.4735   -1.4323    2.1701 O   0  0  0  0  0  0  0  0  0  0  0  0
   -4.2341   -2.3256   -0.9717 C   0  0  0  0  0  0  0  0  0  0  0  0
   -2.2314   -1.4343    0.8204 H   0  0  0  0  0  0  0  0  0  0  0  0
   -4.4267   -0.1865   -0.7895 H   0  0  0  0  0  0  0  0  0  0  0  0
   -3.8644   -3.1748   -0.3879 H   0  0  0  0  0  0  0  0  0  0  0  0
   -5.2876   -2.4967   -1.2105 H   0  0  0  0  0  0  0  0  0  0  0  0
   -3.6714   -2.2784   -1.9092 H   0  0  0  0  0  0  0  0  0  0  0  0
   -6.2701   -0.7126    1.0234 N   0  0  0  0  0  0  0  0  0  0  0  0
   -7.1583   -0.7022    2.1780 C   0  0  0  0  0  0  0  0  0  0  0  0
   -6.6170   -0.3782    0.1291 H   0  0  0  0  0  0  0  0  0  0  0  0
   -7.1951   -1.6935    2.6416 H   0  0  0  0  0  0  0  0  0  0  0  0
   -6.8108    0.0228    2.9214 H   0  0  0  0  0  0  0  0  0  0  0  0
   -8.1719   -0.4269    1.8718 H   0  0  0  0  0  0  0  0  0  0  0  0
  1  2  2  0  0  0  0
  1  3  1  0  0  0  0
  1  7  1  0  0  0  0
  3  4  1  0  0  0  0
  3  5  1  0  0  0  0
  3  6  1  0  0  0  0
  7  8  1  0  0  0  0
  7 12  1  0  0  0  0
  8  9  1  0  0  0  0
  8 11  1  0  0  0  0
  8 13  1  0  0  0  0
  9 10  2  0  0  0  0
  9 17  1  0  0  0  0
 11 14  1  0  0  0  0
 11 15  1  0  0  0  0
 11 16  1  0  0  0  0
 17 18  1  0  0  0  0
 17 26  1  0  0  0  0
 18 19  1  0  0  0  0
 18 21  1  0  0  0  0
 18 27  1  0  0  0  0
 19 20  2  0  0  0  0
 19 32  1  0  0  0  0
 21 22  1  0  0  0  0
 21 28  1  0  0  0  0
 21 29  1  0  0  0  0
 22 23  1  0  0  0  0
 22 30  1  0  0  0  0
 22 31  1  0  0  0  0
 23 24  1  0  0  0  0
 23 25  2  0  0  0  0
 32 33  1  0  0  0  0
 32 37  1  0  0  0  0
 33 34  1  0  0  0  0
 33 36  1  0  0  0  0
 33 38  1  0  0  0  0
 34 35  2  0  0  0  0
 34 42  1  0  0  0  0
 36 39  1  0  0  0  0
 36 40  1  0  0  0  0
 36 41  1  0  0  0  0
 42 43  1  0  0  0  0
 42 44  1  0  0  0  0
 43 45  1  0  0  0  0
 43 46  1  0  0  0  0
 43 47  1  0  0  0  0
M  CHG  1  24  -1
M  END
$$$$

  -OEChem-05262216243D

 47 46  0     1  0  0  0  0  0999 V2000
    1.1514   -5.9820    1.3709 C   0  0  0  0  0  0  0  0  0  0  0  0
    2.3301   -5.8944    1.6773 O   0  0  0  0  0  0  0  0  0  0  0  0
    0.3266   -7.1568    1.8636 C   0  0  0  0  0  0  0  0  0  0  0  0
   -0.1097   -7.6879    1.0141 H   0  0  0  0  0  0  0  0  0  0  0  0
    0.9563   -7.8511    2.4272 H   0  0  0  0  0  0  0  0  0  0  0  0
   -0.4767   -6.8012    2.5138 H   0  0  0  0  0  0  0  0  0  0  0  0
    0.5560   -5.0156    0.5898 N   0  0  0  0  0  0  0  0  0  0  0  0
    1.1797   -3.7358    0.2282 C   0  0  2  0  0  0  0  0  0  0  0  0
    0.1372   -2.5969    0.1915 C   0  0  0  0  0  0  0  0  0  0  0  0
   -1.0475   -2.8680    0.3510 O   0  0  0  0  0  0  0  0  0  0  0  0
    1.8550   -3.8937   -1.1378 C   0  0  0  0  0  0  0  0  0  0  0  0
   -0.4591   -5.0532    0.5030 H   0  0  0  0  0  0  0  0  0  0  0  0
    1.9350   -3.4645    0.9735 H   0  0  0  0  0  0  0  0  0  0  0  0
    1.1149   -4.1407   -1.9057 H   0  0  0  0  0  0  0  0  0  0  0  0
    2.3607   -2.9673   -1.4287 H   0  0  0  0  0  0  0  0  0  0  0  0
    2.6003   -4.6943   -1.1011 H   0  0  0  0  0  0  0  0  0  0  0  0
    0.5679   -1.2883    0.0653 N   0  0  0  0  0  0  0  0  0  0  0  0
   -0.1956   -0.1036   -0.3836 C   0  0  2  0  0  0  0  0  0  0  0  0
   -1.6872   -0.2881   -0.7834 C   0  0  0  0  0  0  0  0  0  0  0  0
   -2.0699   -0.1562   -1.9420 O   0  0  0  0  0  0  0  0  0  0  0  0
    0.6401    0.5012   -1.5300 C   0  0  0  0  0  0  0  0  0  0  0  0
    1.9789    1.0646   -1.0146 C   0  0  0  0  0  0  0  0  0  0  0  0
    2.8046    1.6354   -2.1637 C   0  0  0  0  0  0  0  0  0  0  0  0
    3.4542    0.8127   -2.8555 O   0  5  0  0  0  0  0  0  0  0  0  0
    2.7931    2.8776   -2.3412 O   0  0  0  0  0  0  0  0  0  0  0  0
    1.5730   -1.2002   -0.0691 H   0  0  0  0  0  0  0  0  0  0  0  0
   -0.2112    0.6171    0.4392 H   0  0  0  0  0  0  0  0  0  0  0  0
    0.0854    1.3210   -2.0002 H   0  0  0  0  0  0  0  0  0  0  0  0
    0.8212   -0.2555   -2.3019 H   0  0  0  0  0  0  0  0  0  0  0  0
    1.7904    1.8515   -0.2779 H   0  0  0  0  0  0  0  0  0  0  0  0
    2.5677    0.2846   -0.5248 H   0  0  0  0  0  0  0  0  0  0  0  0
   -2.6459   -0.4640    0.1980 N   0  0  0  0  0  0  0  0  0  0  0  0
   -4.0739   -0.6693   -0.0732 C   0  0  2  0  0  0  0  0  0  0  0  0
   -4.9650   -0.3297    1.1393 C   0  0  0  0  0  0  0  0  0  0  0  0
   -4.5343   -0.3967    2.2859 O   0  0  0  0  0  0  0  0  0  0  0  0
   -4.2931   -2.1279   -0.4896 C   0  0  0  0  0  0  0  0  0  0  0  0
   -2.2967   -0.7788    1.1016 H   0  0  0  0  0  0  0  0  0  0  0  0
   -4.3789   -0.0128   -0.8944 H   0  0  0  0  0  0  0  0  0  0  0  0
   -3.9922   -2.8038    0.3171 H   0  0  0  0  0  0  0  0  0  0  0  0
   -5.3469   -2.3064   -0.7219 H   0  0  0  0  0  0  0  0  0  0  0  0
   -3.6997   -2.3648   -1.3783 H   0  0  0  0  0  0  0  0  0  0  0  0
   -6.2848    0.0343    0.9377 N   0  0  0  0  0  0  0  0  0  0  0  0
   -7.1961    0.3856    2.0188 C   0  0  0  0  0  0  0  0  0  0  0  0
   -6.6058    0.1074   -0.0232 H   0  0  0  0  0  0  0  0  0  0  0  0
   -7.3284   -0.4626    2.6984 H   0  0  0  0  0  0  0  0  0  0  0  0
   -6.8064    1.2368    2.5871 H   0  0  0  0  0  0  0  0  0  0  0  0
   -8.1745    0.6594    1.6128 H   0  0  0  0  0  0  0  0  0  0  0  0
  1  2  2  0  0  0  0
  1  3  1  0  0  0  0
  1  7  1  0  0  0  0
  3  4  1  0  0  0  0
  3  5  1  0  0  0  0
  3  6  1  0  0  0  0
  7  8  1  0  0  0  0
  7 12  1  0  0  0  0
  8  9  1  0  0  0  0
  8 11  1  0  0  0  0
  8 13  1  0  0  0  0
  9 10  2  0  0  0  0
  9 17  1  0  0  0  0
 11 14  1  0  0  0  0
 11 15  1  0  0  0  0
 11 16  1  0  0  0  0
 17 18  1  0  0  0  0
 17 26  1  0  0  0  0
 18 19  1  0  0  0  0
 18 21  1  0  0  0  0
 18 27  1  0  0  0  0
 19 20  2  0  0  0  0
 19 32  1  0  0  0  0
 21 22  1  0  0  0  0
 21 28  1  0  0  0  0
 21 29  1  0  0  0  0
 22 23  1  0  0  0  0
 22 30  1  0  0  0  0
 22 31  1  0  0  0  0
 23 24  1  0  0  0  0
 23 25  2  0  0  0  0
 32 33  1  0  0  0  0
 32 37  1  0  0  0  0
 33 34  1  0  0  0  0
 33 36  1  0  0  0  0
 33 38  1  0  0  0  0
 34 35  2  0  0  0  0
 34 42  1  0  0  0  0
 36 39  1  0  0  0  0
 36 40  1  0  0  0  0
 36 41  1  0  0  0  0
 42 43  1  0  0  0  0
 42 44  1  0  0  0  0
 43 45  1  0  0  0  0
 43 46  1  0  0  0  0
 43 47  1  0  0  0  0
M  CHG  1  24  -1
M  END
$$$$

  -OEChem-05262216243D

 47 46  0     1  0  0  0  0  0999 V2000
    0.9458   -5.9518    1.3612 C   0  0  0  0  0  0  0  0  0  0  0  0
    2.1273   -5.9253    1.6687 O   0  0  0  0  0  0  0  0  0  0  0  0
    0.0558   -7.0722    1.8667 C   0  0  0  0  0  0  0  0  0  0  0  0
   -0.3930   -7.6009    1.0223 H   0  0  0  0  0  0  0  0  0  0  0  0
    0.6409   -7.7822    2.4578 H   0  0  0  0  0  0  0  0  0  0  0  0
   -0.7392   -6.6615    2.4941 H   0  0  0  0  0  0  0  0  0  0  0  0
    0.4023   -4.9641    0.5699 N   0  0  0  0  0  0  0  0  0  0  0  0
    1.0823   -3.7097    0.2214 C   0  0  2  0  0  0  0  0  0  0  0  0
    0.0938   -2.5236    0.2331 C   0  0  0  0  0  0  0  0  0  0  0  0
   -1.0944   -2.7387    0.4500 O   0  0  0  0  0  0  0  0  0  0  0  0
    1.7174   -3.8712   -1.1632 C   0  0  0  0  0  0  0  0  0  0  0  0
   -0.6146   -4.9456    0.4978 H   0  0  0  0  0  0  0  0  0  0  0  0
    1.8660   -3.4890    0.9542 H   0  0  0  0  0  0  0  0  0  0  0  0
    0.9505   -4.0878   -1.9139 H   0  0  0  0  0  0  0  0  0  0  0  0
    2.2424   -2.9568   -1.4577 H   0  0  0  0  0  0  0  0  0  0  0  0
    2.4398   -4.6932   -1.1535 H   0  0  0  0  0  0  0  0  0  0  0  0
    0.5779   -1.2334    0.1066 N   0  0  0  0  0  0  0  0  0  0  0  0
   -0.1573   -0.0428   -0.3682 C   0  0  2  0  0  0  0  0  0  0  0  0
   -1.6413   -0.2339   -0.7814 C   0  0  0  0  0  0  0  0  0  0  0  0
   -1.9686   -0.4140   -1.9505 O   0  0  0  0  0  0  0  0  0  0  0  0
    0.6804    0.5324   -1.5259 C   0  0  0  0  0  0  0  0  0  0  0  0
    2.0283    1.0833   -1.0228 C   0  0  0  0  0  0  0  0  0  0  0  0
    2.8576    1.6259   -2.1824 C   0  0  0  0  0  0  0  0  0  0  0  0
    3.5996    0.8086   -2.7806 O   0  5  0  0  0  0  0  0  0  0  0  0
    2.7453    2.8420   -2.4694 O   0  0  0  0  0  0  0  0  0  0  0  0
    1.5810   -1.1878   -0.0599 H   0  0  0  0  0  0  0  0  0  0  0  0
   -0.1680    0.6944    0.4399 H   0  0  0  0  0  0  0  0  0  0  0  0
    0.1304    1.3496   -2.0067 H   0  0  0  0  0  0  0  0  0  0  0  0
    0.8504   -0.2386   -2.2862 H   0  0  0  0  0  0  0  0  0  0  0  0
    1.8551    1.8844   -0.2981 H   0  0  0  0  0  0  0  0  0  0  0  0
    2.6054    0.3016   -0.5218 H   0  0  0  0  0  0  0  0  0  0  0  0
   -2.6390   -0.0821    0.1643 N   0  0  0  0  0  0  0  0  0  0  0  0
   -4.0653   -0.3046   -0.0972 C   0  0  2  0  0  0  0  0  0  0  0  0
   -4.9656    0.3664    0.9605 C   0  0  0  0  0  0  0  0  0  0  0  0
   -4.5504    0.5942    2.0924 O   0  0  0  0  0  0  0  0  0  0  0  0
   -4.3338   -1.8137   -0.1277 C   0  0  0  0  0  0  0  0  0  0  0  0
   -2.3435   -0.0625    1.1379 H   0  0  0  0  0  0  0  0  0  0  0  0
   -4.3218    0.1259   -1.0706 H   0  0  0  0  0  0  0  0  0  0  0  0
   -4.0658   -2.2681    0.8315 H   0  0  0  0  0  0  0  0  0  0  0  0
   -5.3908   -2.0120   -0.3268 H   0  0  0  0  0  0  0  0  0  0  0  0
   -3.7400   -2.2912   -0.9136 H   0  0  0  0  0  0  0  0  0  0  0  0
   -6.2715    0.6972    0.6443 N   0  0  0  0  0  0  0  0  0  0  0  0
   -7.1859    1.3385    1.5798 C   0  0  0  0  0  0  0  0  0  0  0  0
   -6.5785    0.5244   -0.3084 H   0  0  0  0  0  0  0  0  0  0  0  0
   -7.3610    0.6923    2.4462 H   0  0  0  0  0  0  0  0  0  0  0  0
   -6.7734    2.2914    1.9275 H   0  0  0  0  0  0  0  0  0  0  0  0
   -8.1463    1.5342    1.0939 H   0  0  0  0  0  0  0  0  0  0  0  0
  1  2  2  0  0  0  0
  1  3  1  0  0  0  0
  1  7  1  0  0  0  0
  3  4  1  0  0  0  0
  3  5  1  0  0  0  0
  3  6  1  0  0  0  0
  7  8  1  0  0  0  0
  7 12  1  0  0  0  0
  8  9  1  0  0  0  0
  8 11  1  0  0  0  0
  8 13  1  0  0  0  0
  9 10  2  0  0  0  0
  9 17  1  0  0  0  0
 11 14  1  0  0  0  0
 11 15  1  0  0  0  0
 11 16  1  0  0  0  0
 17 18  1  0  0  0  0
 17 26  1  0  0  0  0
 18 19  1  0  0  0  0
 18 21  1  0  0  0  0
 18 27  1  0  0  0  0
 19 20  2  0  0  0  0
 19 32  1  0  0  0  0
 21 22  1  0  0  0  0
 21 28  1  0  0  0  0
 21 29  1  0  0  0  0
 22 23  1  0  0  0  0
 22 30  1  0  0  0  0
 22 31  1  0  0  0  0
 23 24  1  0  0  0  0
 23 25  2  0  0  0  0
 32 33  1  0  0  0  0
 32 37  1  0  0  0  0
 33 34  1  0  0  0  0
 33 36  1  0  0  0  0
 33 38  1  0  0  0  0
 34 35  2  0  0  0  0
 34 42  1  0  0  0  0
 36 39  1  0  0  0  0
 36 40  1  0  0  0  0
 36 41  1  0  0  0  0
 42 43  1  0  0  0  0
 42 44  1  0  0  0  0
 43 45  1  0  0  0  0
 43 46  1  0  0  0  0
 43 47  1  0  0  0  0
M  CHG  1  24  -1
M  END
$$$$

  -OEChem-05262216243D

 47 46  0     1  0  0  0  0  0999 V2000
    0.9113   -5.9520    1.3261 C   0  0  0  0  0  0  0  0  0  0  0  0
    2.1178   -5.9899    1.5113 O   0  0  0  0  0  0  0  0  0  0  0  0
    0.0275   -7.0651    1.8577 C   0  0  0  0  0  0  0  0  0  0  0  0
   -0.5285   -7.5234    1.0361 H   0  0  0  0  0  0  0  0  0  0  0  0
    0.6364   -7.8326    2.3433 H   0  0  0  0  0  0  0  0  0  0  0  0
   -0.6798   -6.6617    2.5866 H   0  0  0  0  0  0  0  0  0  0  0  0
    0.3354   -4.8981    0.6521 N   0  0  0  0  0  0  0  0  0  0  0  0
    1.0346   -3.6604    0.2845 C   0  0  2  0  0  0  0  0  0  0  0  0
    0.0881   -2.4441    0.3816 C   0  0  0  0  0  0  0  0  0  0  0  0
   -1.0791   -2.6167    0.7220 O   0  0  0  0  0  0  0  0  0  0  0  0
    1.5770   -3.8118   -1.1406 C   0  0  0  0  0  0  0  0  0  0  0  0
   -0.6822   -4.8368    0.6771 H   0  0  0  0  0  0  0  0  0  0  0  0
    1.8691   -3.4830    0.9713 H   0  0  0  0  0  0  0  0  0  0  0  0
    0.7558   -3.9650   -1.8481 H   0  0  0  0  0  0  0  0  0  0  0  0
    2.1312   -2.9167   -1.4407 H   0  0  0  0  0  0  0  0  0  0  0  0
    2.2540   -4.6698   -1.2002 H   0  0  0  0  0  0  0  0  0  0  0  0
    0.5913   -1.1658    0.2154 N   0  0  0  0  0  0  0  0  0  0  0  0
   -0.1518   -0.0063   -0.3184 C   0  0  2  0  0  0  0  0  0  0  0  0
   -1.6270   -0.2391   -0.7358 C   0  0  0  0  0  0  0  0  0  0  0  0
   -1.9092   -0.7363   -1.8222 O   0  0  0  0  0  0  0  0  0  0  0  0
    0.6744    0.5286   -1.5013 C   0  0  0  0  0  0  0  0  0  0  0  0
    2.0138    1.1197   -1.0244 C   0  0  0  0  0  0  0  0  0  0  0  0
    2.8336    1.6226   -2.2083 C   0  0  0  0  0  0  0  0  0  0  0  0
    2.7360    2.8340   -2.5210 O   0  5  0  0  0  0  0  0  0  0  0  0
    3.5445    0.7774   -2.8056 O   0  0  0  0  0  0  0  0  0  0  0  0
    1.5821   -1.1499   -0.0168 H   0  0  0  0  0  0  0  0  0  0  0  0
   -0.1745    0.7654    0.4564 H   0  0  0  0  0  0  0  0  0  0  0  0
    0.1112    1.3145   -2.0174 H   0  0  0  0  0  0  0  0  0  0  0  0
    0.8561   -0.2735   -2.2263 H   0  0  0  0  0  0  0  0  0  0  0  0
    1.8286    1.9499   -0.3362 H   0  0  0  0  0  0  0  0  0  0  0  0
    2.6022    0.3701   -0.4891 H   0  0  0  0  0  0  0  0  0  0  0  0
   -2.6545    0.2247    0.0653 N   0  0  0  0  0  0  0  0  0  0  0  0
   -4.0786   -0.0008   -0.2036 C   0  0  2  0  0  0  0  0  0  0  0  0
   -4.9805    1.0055    0.5395 C   0  0  0  0  0  0  0  0  0  0  0  0
   -4.6088    1.5340    1.5825 O   0  0  0  0  0  0  0  0  0  0  0  0
   -4.4344   -1.4323    0.2136 C   0  0  0  0  0  0  0  0  0  0  0  0
   -2.4035    0.5812    0.9844 H   0  0  0  0  0  0  0  0  0  0  0  0
   -4.2653    0.1188   -1.2756 H   0  0  0  0  0  0  0  0  0  0  0  0
   -4.2247   -1.5824    1.2776 H   0  0  0  0  0  0  0  0  0  0  0  0
   -5.4944   -1.6337    0.0334 H   0  0  0  0  0  0  0  0  0  0  0  0
   -3.8441   -2.1543   -0.3599 H   0  0  0  0  0  0  0  0  0  0  0  0
   -6.2333    1.3104    0.0374 N   0  0  0  0  0  0  0  0  0  0  0  0
   -7.1258    2.2862    0.6491 C   0  0  0  0  0  0  0  0  0  0  0  0
   -6.4928    0.8917   -0.8510 H   0  0  0  0  0  0  0  0  0  0  0  0
   -7.3980    1.9738    1.6626 H   0  0  0  0  0  0  0  0  0  0  0  0
   -6.6427    3.2677    0.6998 H   0  0  0  0  0  0  0  0  0  0  0  0
   -8.0423    2.3814    0.0590 H   0  0  0  0  0  0  0  0  0  0  0  0
  1  2  2  0  0  0  0
  1  3  1  0  0  0  0
  1  7  1  0  0  0  0
  3  4  1  0  0  0  0
  3  5  1  0  0  0  0
  3  6  1  0  0  0  0
  7  8  1  0  0  0  0
  7 12  1  0  0  0  0
  8  9  1  0  0  0  0
  8 11  1  0  0  0  0
  8 13  1  0  0  0  0
  9 10  2  0  0  0  0
  9 17  1  0  0  0  0
 11 14  1  0  0  0  0
 11 15  1  0  0  0  0
 11 16  1  0  0  0  0
 17 18  1  0  0  0  0
 17 26  1  0  0  0  0
 18 19  1  0  0  0  0
 18 21  1  0  0  0  0
 18 27  1  0  0  0  0
 19 20  2  0  0  0  0
 19 32  1  0  0  0  0
 21 22  1  0  0  0  0
 21 28  1  0  0  0  0
 21 29  1  0  0  0  0
 22 23  1  0  0  0  0
 22 30  1  0  0  0  0
 22 31  1  0  0  0  0
 23 24  1  0  0  0  0
 23 25  2  0  0  0  0
 32 33  1  0  0  0  0
 32 37  1  0  0  0  0
 33 34  1  0  0  0  0
 33 36  1  0  0  0  0
 33 38  1  0  0  0  0
 34 35  2  0  0  0  0
 34 42  1  0  0  0  0
 36 39  1  0  0  0  0
 36 40  1  0  0  0  0
 36 41  1  0  0  0  0
 42 43  1  0  0  0  0
 42 44  1  0  0  0  0
 43 45  1  0  0  0  0
 43 46  1  0  0  0  0
 43 47  1  0  0  0  0
M  CHG  1  24  -1
M  END
$$$$

  -OEChem-05262216243D

 47 46  0     1  0  0  0  0  0999 V2000
    0.8278   -5.9271    1.3458 C   0  0  0  0  0  0  0  0  0  0  0  0
    2.0322   -5.9801    1.5412 O   0  0  0  0  0  0  0  0  0  0  0  0
   -0.0745   -7.0219    1.8854 C   0  0  0  0  0  0  0  0  0  0  0  0
   -0.6193   -7.4943    1.0642 H   0  0  0  0  0  0  0  0  0  0  0  0
    0.5196   -7.7829    2.3991 H   0  0  0  0  0  0  0  0  0  0  0  0
   -0.7921   -6.5981    2.5924 H   0  0  0  0  0  0  0  0  0  0  0  0
    0.2720   -4.8738    0.6536 N   0  0  0  0  0  0  0  0  0  0  0  0
    0.9893   -3.6432    0.2950 C   0  0  2  0  0  0  0  0  0  0  0  0
    0.0782   -2.4063    0.4506 C   0  0  0  0  0  0  0  0  0  0  0  0
   -1.0724   -2.5499    0.8563 O   0  0  0  0  0  0  0  0  0  0  0  0
    1.4818   -3.7727   -1.1498 C   0  0  0  0  0  0  0  0  0  0  0  0
   -0.7443   -4.7963    0.6788 H   0  0  0  0  0  0  0  0  0  0  0  0
    1.8495   -3.5009    0.9578 H   0  0  0  0  0  0  0  0  0  0  0  0
    0.6352   -3.8857   -1.8350 H   0  0  0  0  0  0  0  0  0  0  0  0
    2.0512   -2.8858   -1.4459 H   0  0  0  0  0  0  0  0  0  0  0  0
    2.1322   -4.6471   -1.2499 H   0  0  0  0  0  0  0  0  0  0  0  0
    0.6014   -1.1366    0.2808 N   0  0  0  0  0  0  0  0  0  0  0  0
   -0.1341    0.0157   -0.2783 C   0  0  2  0  0  0  0  0  0  0  0  0
   -1.6030   -0.2196   -0.7133 C   0  0  0  0  0  0  0  0  0  0  0  0
   -1.8667   -0.9153   -1.6905 O   0  0  0  0  0  0  0  0  0  0  0  0
    0.6901    0.5305   -1.4700 C   0  0  0  0  0  0  0  0  0  0  0  0
    2.0311    1.1293   -1.0105 C   0  0  0  0  0  0  0  0  0  0  0  0
    2.8396    1.6088   -2.2119 C   0  0  0  0  0  0  0  0  0  0  0  0
    2.6840    2.7955   -2.5887 O   0  5  0  0  0  0  0  0  0  0  0  0
    3.5911    0.7682   -2.7640 O   0  0  0  0  0  0  0  0  0  0  0  0
    1.5868   -1.1421    0.0274 H   0  0  0  0  0  0  0  0  0  0  0  0
   -0.1605    0.7971    0.4864 H   0  0  0  0  0  0  0  0  0  0  0  0
    0.1254    1.3067   -1.9989 H   0  0  0  0  0  0  0  0  0  0  0  0
    0.8697   -0.2846   -2.1809 H   0  0  0  0  0  0  0  0  0  0  0  0
    1.8500    1.9725   -0.3372 H   0  0  0  0  0  0  0  0  0  0  0  0
    2.6222    0.3896   -0.4638 H   0  0  0  0  0  0  0  0  0  0  0  0
   -2.6263    0.5009   -0.1249 N   0  0  0  0  0  0  0  0  0  0  0  0
   -4.0460    0.3477   -0.4596 C   0  0  2  0  0  0  0  0  0  0  0  0
   -4.8876    1.5523    0.0080 C   0  0  0  0  0  0  0  0  0  0  0  0
   -4.5109    2.2587    0.9377 O   0  0  0  0  0  0  0  0  0  0  0  0
   -4.5683   -0.9374    0.1931 C   0  0  0  0  0  0  0  0  0  0  0  0
   -2.3932    1.0866    0.6743 H   0  0  0  0  0  0  0  0  0  0  0  0
   -4.1519    0.2704   -1.5467 H   0  0  0  0  0  0  0  0  0  0  0  0
   -4.4579   -0.8841    1.2809 H   0  0  0  0  0  0  0  0  0  0  0  0
   -5.6253   -1.0867   -0.0452 H   0  0  0  0  0  0  0  0  0  0  0  0
   -4.0082   -1.8058   -0.1689 H   0  0  0  0  0  0  0  0  0  0  0  0
   -6.0947    1.8320   -0.6072 N   0  0  0  0  0  0  0  0  0  0  0  0
   -6.9370    2.9635   -0.2434 C   0  0  0  0  0  0  0  0  0  0  0  0
   -6.3595    1.2531   -1.3988 H   0  0  0  0  0  0  0  0  0  0  0  0
   -7.2677    2.8747    0.7966 H   0  0  0  0  0  0  0  0  0  0  0  0
   -6.3875    3.9034   -0.3611 H   0  0  0  0  0  0  0  0  0  0  0  0
   -7.8215    2.9974   -0.8865 H   0  0  0  0  0  0  0  0  0  0  0  0
  1  2  2  0  0  0  0
  1  3  1  0  0  0  0
  1  7  1  0  0  0  0
  3  4  1  0  0  0  0
  3  5  1  0  0  0  0
  3  6  1  0  0  0  0
  7  8  1  0  0  0  0
  7 12  1  0  0  0  0
  8  9  1  0  0  0  0
  8 11  1  0  0  0  0
  8 13  1  0  0  0  0
  9 10  2  0  0  0  0
  9 17  1  0  0  0  0
 11 14  1  0  0  0  0
 11 15  1  0  0  0  0
 11 16  1  0  0  0  0
 17 18  1  0  0  0  0
 17 26  1  0  0  0  0
 18 19  1  0  0  0  0
 18 21  1  0  0  0  0
 18 27  1  0  0  0  0
 19 20  2  0  0  0  0
 19 32  1  0  0  0  0
 21 22  1  0  0  0  0
 21 28  1  0  0  0  0
 21 29  1  0  0  0  0
 22 23  1  0  0  0  0
 22 30  1  0  0  0  0
 22 31  1  0  0  0  0
 23 24  1  0  0  0  0
 23 25  2  0  0  0  0
 32 33  1  0  0  0  0
 32 37  1  0  0  0  0
 33 34  1  0  0  0  0
 33 36  1  0  0  0  0
 33 38  1  0  0  0  0
 34 35  2  0  0  0  0
 34 42  1  0  0  0  0
 36 39  1  0  0  0  0
 36 40  1  0  0  0  0
 36 41  1  0  0  0  0
 42 43  1  0  0  0  0
 42 44  1  0  0  0  0
 43 45  1  0  0  0  0
 43 46  1  0  0  0  0
 43 47  1  0  0  0  0
M  CHG  1  24  -1
M  END
$$$$

  -OEChem-05262216243D

 47 46  0     1  0  0  0  0  0999 V2000
    0.8473   -5.9446    1.2963 C   0  0  0  0  0  0  0  0  0  0  0  0
    2.0624   -6.0295    1.3849 O   0  0  0  0  0  0  0  0  0  0  0  0
   -0.0308   -7.0476    1.8579 C   0  0  0  0  0  0  0  0  0  0  0  0
   -0.6440   -7.4764    1.0616 H   0  0  0  0  0  0  0  0  0  0  0  0
    0.5870   -7.8380    2.2930 H   0  0  0  0  0  0  0  0  0  0  0  0
   -0.6849   -6.6435    2.6345 H   0  0  0  0  0  0  0  0  0  0  0  0
    0.2592   -4.8490    0.7039 N   0  0  0  0  0  0  0  0  0  0  0  0
    0.9723   -3.6195    0.3344 C   0  0  2  0  0  0  0  0  0  0  0  0
    0.0866   -2.3781    0.5738 C   0  0  0  0  0  0  0  0  0  0  0  0
   -1.0230   -2.5115    1.0845 O   0  0  0  0  0  0  0  0  0  0  0  0
    1.3815   -3.7163   -1.1388 C   0  0  0  0  0  0  0  0  0  0  0  0
   -0.7495   -4.7520    0.8189 H   0  0  0  0  0  0  0  0  0  0  0  0
    1.8702   -3.5055    0.9509 H   0  0  0  0  0  0  0  0  0  0  0  0
    0.4959   -3.7943   -1.7779 H   0  0  0  0  0  0  0  0  0  0  0  0
    1.9507   -2.8316   -1.4414 H   0  0  0  0  0  0  0  0  0  0  0  0
    2.0087   -4.5986   -1.2999 H   0  0  0  0  0  0  0  0  0  0  0  0
    0.5974   -1.1084    0.3761 N   0  0  0  0  0  0  0  0  0  0  0  0
   -0.1683    0.0157   -0.1997 C   0  0  2  0  0  0  0  0  0  0  0  0
   -1.6389   -0.2444   -0.6172 C   0  0  0  0  0  0  0  0  0  0  0  0
   -1.9121   -1.1015   -1.4538 O   0  0  0  0  0  0  0  0  0  0  0  0
    0.6243    0.5155   -1.4182 C   0  0  0  0  0  0  0  0  0  0  0  0
    1.9612    1.1509   -1.0002 C   0  0  0  0  0  0  0  0  0  0  0  0
    2.7351    1.6137   -2.2304 C   0  0  0  0  0  0  0  0  0  0  0  0
    2.5122    2.7703   -2.6625 O   0  5  0  0  0  0  0  0  0  0  0  0
    3.5207    0.7865   -2.7536 O   0  0  0  0  0  0  0  0  0  0  0  0
    1.5690   -1.1174    0.0740 H   0  0  0  0  0  0  0  0  0  0  0  0
   -0.1971    0.8115    0.5500 H   0  0  0  0  0  0  0  0  0  0  0  0
    0.0362    1.2679   -1.9556 H   0  0  0  0  0  0  0  0  0  0  0  0
    0.8057   -0.3135   -2.1117 H   0  0  0  0  0  0  0  0  0  0  0  0
    1.7770    2.0084   -0.3461 H   0  0  0  0  0  0  0  0  0  0  0  0
    2.5761    0.4363   -0.4459 H   0  0  0  0  0  0  0  0  0  0  0  0
   -2.6241    0.6653   -0.2778 N   0  0  0  0  0  0  0  0  0  0  0  0
   -4.0149    0.5991   -0.7400 C   0  0  2  0  0  0  0  0  0  0  0  0
   -4.7279    1.9619   -0.6318 C   0  0  0  0  0  0  0  0  0  0  0  0
   -4.3545    2.8008    0.1817 O   0  0  0  0  0  0  0  0  0  0  0  0
   -4.7595   -0.4488    0.0938 C   0  0  0  0  0  0  0  0  0  0  0  0
   -2.3681    1.4391    0.3327 H   0  0  0  0  0  0  0  0  0  0  0  0
   -4.0304    0.3012   -1.7935 H   0  0  0  0  0  0  0  0  0  0  0  0
   -4.7402   -0.1763    1.1538 H   0  0  0  0  0  0  0  0  0  0  0  0
   -5.8017   -0.5258   -0.2291 H   0  0  0  0  0  0  0  0  0  0  0  0
   -4.2895   -1.4308   -0.0206 H   0  0  0  0  0  0  0  0  0  0  0  0
   -5.8147    2.2403   -1.4413 N   0  0  0  0  0  0  0  0  0  0  0  0
   -6.5191    3.5155   -1.4243 C   0  0  0  0  0  0  0  0  0  0  0  0
   -6.0647    1.5475   -2.1409 H   0  0  0  0  0  0  0  0  0  0  0  0
   -6.9485    3.7019   -0.4344 H   0  0  0  0  0  0  0  0  0  0  0  0
   -5.8352    4.3339   -1.6727 H   0  0  0  0  0  0  0  0  0  0  0  0
   -7.3316    3.5082   -2.1571 H   0  0  0  0  0  0  0  0  0  0  0  0
  1  2  2  0  0  0  0
  1  3  1  0  0  0  0
  1  7  1  0  0  0  0
  3  4  1  0  0  0  0
  3  5  1  0  0  0  0
  3  6  1  0  0  0  0
  7  8  1  0  0  0  0
  7 12  1  0  0  0  0
  8  9  1  0  0  0  0
  8 11  1  0  0  0  0
  8 13  1  0  0  0  0
  9 10  2  0  0  0  0
  9 17  1  0  0  0  0
 11 14  1  0  0  0  0
 11 15  1  0  0  0  0
 11 16  1  0  0  0  0
 17 18  1  0  0  0  0
 17 26  1  0  0  0  0
 18 19  1  0  0  0  0
 18 21  1  0  0  0  0
 18 27  1  0  0  0  0
 19 20  2  0  0  0  0
 19 32  1  0  0  0  0
 21 22  1  0  0  0  0
 21 28  1  0  0  0  0
 21 29  1  0  0  0  0
 22 23  1  0  0  0  0
 22 30  1  0  0  0  0
 22 31  1  0  0  0  0
 23 24  1  0  0  0  0
 23 25  2  0  0  0  0
 32 33  1  0  0  0  0
 32 37  1  0  0  0  0
 33 34  1  0  0  0  0
 33 36  1  0  0  0  0
 33 38  1  0  0  0  0
 34 35  2  0  0  0  0
 34 42  1  0  0  0  0
 36 39  1  0  0  0  0
 36 40  1  0  0  0  0
 36 41  1  0  0  0  0
 42 43  1  0  0  0  0
 42 44  1  0  0  0  0
 43 45  1  0  0  0  0
 43 46  1  0  0  0  0
 43 47  1  0  0  0  0
M  CHG  1  24  -1
M  END
$$$$

  -OEChem-05262216243D

 47 46  0     1  0  0  0  0  0999 V2000
    0.8209   -5.8931    1.3080 C   0  0  0  0  0  0  0  0  0  0  0  0
    2.0373   -5.9859    1.3676 O   0  0  0  0  0  0  0  0  0  0  0  0
   -0.0503   -6.9834    1.9039 C   0  0  0  0  0  0  0  0  0  0  0  0
   -0.7205   -7.3835    1.1392 H   0  0  0  0  0  0  0  0  0  0  0  0
    0.5713   -7.7967    2.2885 H   0  0  0  0  0  0  0  0  0  0  0  0
   -0.6465   -6.5757    2.7241 H   0  0  0  0  0  0  0  0  0  0  0  0
    0.2243   -4.8014    0.7171 N   0  0  0  0  0  0  0  0  0  0  0  0
    0.9337   -3.5745    0.3318 C   0  0  2  0  0  0  0  0  0  0  0  0
    0.0837   -2.3268    0.6530 C   0  0  0  0  0  0  0  0  0  0  0  0
   -0.9838   -2.4485    1.2496 O   0  0  0  0  0  0  0  0  0  0  0  0
    1.2470   -3.6443   -1.1658 C   0  0  0  0  0  0  0  0  0  0  0  0
   -0.7793   -4.6963    0.8648 H   0  0  0  0  0  0  0  0  0  0  0  0
    1.8703   -3.4862    0.8923 H   0  0  0  0  0  0  0  0  0  0  0  0
    0.3209   -3.6804   -1.7489 H   0  0  0  0  0  0  0  0  0  0  0  0
    1.8223   -2.7682   -1.4817 H   0  0  0  0  0  0  0  0  0  0  0  0
    1.8364   -4.5390   -1.3882 H   0  0  0  0  0  0  0  0  0  0  0  0
    0.5880   -1.0583    0.4368 N   0  0  0  0  0  0  0  0  0  0  0  0
   -0.1907    0.0458   -0.1608 C   0  0  2  0  0  0  0  0  0  0  0  0
   -1.6593   -0.2247   -0.5822 C   0  0  0  0  0  0  0  0  0  0  0  0
   -1.9519   -1.2012   -1.2679 O   0  0  0  0  0  0  0  0  0  0  0  0
    0.6028    0.5111   -1.3929 C   0  0  0  0  0  0  0  0  0  0  0  0
    1.9399    1.1617   -0.9957 C   0  0  0  0  0  0  0  0  0  0  0  0
    2.7145    1.5888   -2.2389 C   0  0  0  0  0  0  0  0  0  0  0  0
    2.7408    2.8092   -2.5277 O   0  5  0  0  0  0  0  0  0  0  0  0
    3.2490    0.6757   -2.9145 O   0  0  0  0  0  0  0  0  0  0  0  0
    1.5477   -1.0770    0.1000 H   0  0  0  0  0  0  0  0  0  0  0  0
   -0.2256    0.8593    0.5697 H   0  0  0  0  0  0  0  0  0  0  0  0
    0.0155    1.2466   -1.9541 H   0  0  0  0  0  0  0  0  0  0  0  0
    0.7836   -0.3383   -2.0621 H   0  0  0  0  0  0  0  0  0  0  0  0
    1.7523    2.0360   -0.3651 H   0  0  0  0  0  0  0  0  0  0  0  0
    2.5598    0.4666   -0.4234 H   0  0  0  0  0  0  0  0  0  0  0  0
   -2.5763    0.8104   -0.5386 N   0  0  0  0  0  0  0  0  0  0  0  0
   -3.9197    0.7658   -1.1279 C   0  0  2  0  0  0  0  0  0  0  0  0
   -4.5114    2.1765   -1.3223 C   0  0  0  0  0  0  0  0  0  0  0  0
   -4.1289    3.1143   -0.6304 O   0  0  0  0  0  0  0  0  0  0  0  0
   -4.8348   -0.0618   -0.2182 C   0  0  0  0  0  0  0  0  0  0  0  0
   -2.2856    1.6845   -0.1033 H   0  0  0  0  0  0  0  0  0  0  0  0
   -3.8633    0.2923   -2.1134 H   0  0  0  0  0  0  0  0  0  0  0  0
   -4.8977    0.3939    0.7751 H   0  0  0  0  0  0  0  0  0  0  0  0
   -5.8420   -0.1219   -0.6406 H   0  0  0  0  0  0  0  0  0  0  0  0
   -4.4466   -1.0795   -0.1091 H   0  0  0  0  0  0  0  0  0  0  0  0
   -5.4986    2.3902   -2.2677 N   0  0  0  0  0  0  0  0  0  0  0  0
   -6.0748    3.7005   -2.5395 C   0  0  0  0  0  0  0  0  0  0  0  0
   -5.7520    1.6069   -2.8627 H   0  0  0  0  0  0  0  0  0  0  0  0
   -6.5429    4.1078   -1.6373 H   0  0  0  0  0  0  0  0  0  0  0  0
   -5.3004    4.3956   -2.8811 H   0  0  0  0  0  0  0  0  0  0  0  0
   -6.8387    3.6220   -3.3187 H   0  0  0  0  0  0  0  0  0  0  0  0
  1  2  2  0  0  0  0
  1  3  1  0  0  0  0
  1  7  1  0  0  0  0
  3  4  1  0  0  0  0
  3  5  1  0  0  0  0
  3  6  1  0  0  0  0
  7  8  1  0  0  0  0
  7 12  1  0  0  0  0
  8  9  1  0  0  0  0
  8 11  1  0  0  0  0
  8 13  1  0  0  0  0
  9 10  2  0  0  0  0
  9 17  1  0  0  0  0
 11 14  1  0  0  0  0
 11 15  1  0  0  0  0
 11 16  1  0  0  0  0
 17 18  1  0  0  0  0
 17 26  1  0  0  0  0
 18 19  1  0  0  0  0
 18 21  1  0  0  0  0
 18 27  1  0  0  0  0
 19 20  2  0  0  0  0
 19 32  1  0  0  0  0
 21 22  1  0  0  0  0
 21 28  1  0  0  0  0
 21 29  1  0  0  0  0
 22 23  1  0  0  0  0
 22 30  1  0  0  0  0
 22 31  1  0  0  0  0
 23 24  1  0  0  0  0
 23 25  2  0  0  0  0
 32 33  1  0  0  0  0
 32 37  1  0  0  0  0
 33 34  1  0  0  0  0
 33 36  1  0  0  0  0
 33 38  1  0  0  0  0
 34 35  2  0  0  0  0
 34 42  1  0  0  0  0
 36 39  1  0  0  0  0
 36 40  1  0  0  0  0
 36 41  1  0  0  0  0
 42 43  1  0  0  0  0
 42 44  1  0  0  0  0
 43 45  1  0  0  0  0
 43 46  1  0  0  0  0
 43 47  1  0  0  0  0
M  CHG  1  24  -1
M  END
$$$$

  -OEChem-05262216243D

 47 46  0     1  0  0  0  0  0999 V2000
    0.8415   -5.8876    1.2439 C   0  0  0  0  0  0  0  0  0  0  0  0
    2.0555   -6.0021    1.1746 O   0  0  0  0  0  0  0  0  0  0  0  0
    0.0144   -6.9904    1.8788 C   0  0  0  0  0  0  0  0  0  0  0  0
   -0.7366   -7.3477    1.1700 H   0  0  0  0  0  0  0  0  0  0  0  0
    0.6566   -7.8281    2.1641 H   0  0  0  0  0  0  0  0  0  0  0  0
   -0.4887   -6.6113    2.7717 H   0  0  0  0  0  0  0  0  0  0  0  0
    0.2114   -4.7605    0.7652 N   0  0  0  0  0  0  0  0  0  0  0  0
    0.9018   -3.5348    0.3439 C   0  0  2  0  0  0  0  0  0  0  0  0
    0.0698   -2.2875    0.7129 C   0  0  0  0  0  0  0  0  0  0  0  0
   -0.9402   -2.4078    1.4023 O   0  0  0  0  0  0  0  0  0  0  0  0
    1.1394   -3.6025   -1.1683 C   0  0  0  0  0  0  0  0  0  0  0  0
   -0.7717   -4.6450    1.0114 H   0  0  0  0  0  0  0  0  0  0  0  0
    1.8659   -3.4507    0.8565 H   0  0  0  0  0  0  0  0  0  0  0  0
    0.1853   -3.6412   -1.7041 H   0  0  0  0  0  0  0  0  0  0  0  0
    1.6953   -2.7247   -1.5128 H   0  0  0  0  0  0  0  0  0  0  0  0
    1.7195   -4.4953   -1.4214 H   0  0  0  0  0  0  0  0  0  0  0  0
    0.5516   -1.0163    0.4664 N   0  0  0  0  0  0  0  0  0  0  0  0
   -0.2539    0.0764   -0.1203 C   0  0  2  0  0  0  0  0  0  0  0  0
   -1.7376   -0.1805   -0.5072 C   0  0  0  0  0  0  0  0  0  0  0  0
   -2.0996   -1.2449   -1.0006 O   0  0  0  0  0  0  0  0  0  0  0  0
    0.5105    0.5221   -1.3797 C   0  0  0  0  0  0  0  0  0  0  0  0
    1.8559    1.1807   -1.0279 C   0  0  0  0  0  0  0  0  0  0  0  0
    2.5939    1.5845   -2.3005 C   0  0  0  0  0  0  0  0  0  0  0  0
    2.5867    2.7953   -2.6277 O   0  5  0  0  0  0  0  0  0  0  0  0
    3.1247    0.6605   -2.9641 O   0  0  0  0  0  0  0  0  0  0  0  0
    1.4979   -1.0325    0.0936 H   0  0  0  0  0  0  0  0  0  0  0  0
   -0.2690    0.8980    0.6015 H   0  0  0  0  0  0  0  0  0  0  0  0
   -0.0865    1.2492   -1.9417 H   0  0  0  0  0  0  0  0  0  0  0  0
    0.6752   -0.3387   -2.0383 H   0  0  0  0  0  0  0  0  0  0  0  0
    1.6831    2.0669   -0.4094 H   0  0  0  0  0  0  0  0  0  0  0  0
    2.4925    0.4973   -0.4597 H   0  0  0  0  0  0  0  0  0  0  0  0
   -2.5579    0.9093   -0.7469 N   0  0  0  0  0  0  0  0  0  0  0  0
   -3.8477    0.8544   -1.4467 C   0  0  2  0  0  0  0  0  0  0  0  0
   -4.2457    2.2293   -2.0193 C   0  0  0  0  0  0  0  0  0  0  0  0
   -3.8653    3.2613   -1.4770 O   0  0  0  0  0  0  0  0  0  0  0  0
   -4.9222    0.3618   -0.4714 C   0  0  0  0  0  0  0  0  0  0  0  0
   -2.1933    1.8335   -0.5186 H   0  0  0  0  0  0  0  0  0  0  0  0
   -3.7742    0.1563   -2.2872 H   0  0  0  0  0  0  0  0  0  0  0  0
   -5.0098    1.0477    0.3772 H   0  0  0  0  0  0  0  0  0  0  0  0
   -5.8928    0.2985   -0.9720 H   0  0  0  0  0  0  0  0  0  0  0  0
   -4.6657   -0.6319   -0.0901 H   0  0  0  0  0  0  0  0  0  0  0  0
   -5.0510    2.3088   -3.1412 N   0  0  0  0  0  0  0  0  0  0  0  0
   -5.4000    3.5699   -3.7823 C   0  0  0  0  0  0  0  0  0  0  0  0
   -5.2801    1.4381   -3.6116 H   0  0  0  0  0  0  0  0  0  0  0  0
   -5.9391    4.2182   -3.0837 H   0  0  0  0  0  0  0  0  0  0  0  0
   -4.4975    4.0892   -4.1218 H   0  0  0  0  0  0  0  0  0  0  0  0
   -6.0421    3.3876   -4.6493 H   0  0  0  0  0  0  0  0  0  0  0  0
  1  2  2  0  0  0  0
  1  3  1  0  0  0  0
  1  7  1  0  0  0  0
  3  4  1  0  0  0  0
  3  5  1  0  0  0  0
  3  6  1  0  0  0  0
  7  8  1  0  0  0  0
  7 12  1  0  0  0  0
  8  9  1  0  0  0  0
  8 11  1  0  0  0  0
  8 13  1  0  0  0  0
  9 10  2  0  0  0  0
  9 17  1  0  0  0  0
 11 14  1  0  0  0  0
 11 15  1  0  0  0  0
 11 16  1  0  0  0  0
 17 18  1  0  0  0  0
 17 26  1  0  0  0  0
 18 19  1  0  0  0  0
 18 21  1  0  0  0  0
 18 27  1  0  0  0  0
 19 20  2  0  0  0  0
 19 32  1  0  0  0  0
 21 22  1  0  0  0  0
 21 28  1  0  0  0  0
 21 29  1  0  0  0  0
 22 23  1  0  0  0  0
 22 30  1  0  0  0  0
 22 31  1  0  0  0  0
 23 24  1  0  0  0  0
 23 25  2  0  0  0  0
 32 33  1  0  0  0  0
 32 37  1  0  0  0  0
 33 34  1  0  0  0  0
 33 36  1  0  0  0  0
 33 38  1  0  0  0  0
 34 35  2  0  0  0  0
 34 42  1  0  0  0  0
 36 39  1  0  0  0  0
 36 40  1  0  0  0  0
 36 41  1  0  0  0  0
 42 43  1  0  0  0  0
 42 44  1  0  0  0  0
 43 45  1  0  0  0  0
 43 46  1  0  0  0  0
 43 47  1  0  0  0  0
M  CHG  1  24  -1
M  END
$$$$

  -OEChem-05262216243D

 47 46  0     1  0  0  0  0  0999 V2000
    0.0122   -5.7169    1.4744 C   0  0  0  0  0  0  0  0  0  0  0  0
    0.7506   -5.5759    2.4379 O   0  0  0  0  0  0  0  0  0  0  0  0
   -1.0612   -6.7897    1.4925 C   0  0  0  0  0  0  0  0  0  0  0  0
   -0.9074   -7.4850    0.6637 H   0  0  0  0  0  0  0  0  0  0  0  0
   -1.0229   -7.3465    2.4327 H   0  0  0  0  0  0  0  0  0  0  0  0
   -2.0481   -6.3303    1.3943 H   0  0  0  0  0  0  0  0  0  0  0  0
    0.1398   -4.9061    0.3683 N   0  0  0  0  0  0  0  0  0  0  0  0
    0.9513   -3.6843    0.3225 C   0  0  2  0  0  0  0  0  0  0  0  0
    0.2341   -2.5909   -0.4963 C   0  0  0  0  0  0  0  0  0  0  0  0
   -0.6283   -2.9253   -1.3028 O   0  0  0  0  0  0  0  0  0  0  0  0
    2.3102   -4.0243   -0.2963 C   0  0  0  0  0  0  0  0  0  0  0  0
   -0.5976   -4.9648   -0.3350 H   0  0  0  0  0  0  0  0  0  0  0  0
    1.0990   -3.2939    1.3348 H   0  0  0  0  0  0  0  0  0  0  0  0
    2.1818   -4.4038   -1.3152 H   0  0  0  0  0  0  0  0  0  0  0  0
    2.9487   -3.1365   -0.3350 H   0  0  0  0  0  0  0  0  0  0  0  0
    2.8172   -4.7891    0.3004 H   0  0  0  0  0  0  0  0  0  0  0  0
    0.6863   -1.2840   -0.4416 N   0  0  0  0  0  0  0  0  0  0  0  0
   -0.0922   -0.0498   -0.6931 C   0  0  2  0  0  0  0  0  0  0  0  0
   -1.6475   -0.1096   -0.7102 C   0  0  0  0  0  0  0  0  0  0  0  0
   -2.2599   -0.9578   -0.0686 O   0  0  0  0  0  0  0  0  0  0  0  0
    0.4580    0.5443   -2.0052 C   0  0  0  0  0  0  0  0  0  0  0  0
    1.9100    1.0342   -1.8288 C   0  0  0  0  0  0  0  0  0  0  0  0
    2.4774    1.6043   -3.1284 C   0  0  0  0  0  0  0  0  0  0  0  0
    1.8407    2.5356   -3.6796 O   0  5  0  0  0  0  0  0  0  0  0  0
    3.5619    1.1299   -3.5461 O   0  0  0  0  0  0  0  0  0  0  0  0
    1.5333   -1.1563    0.1014 H   0  0  0  0  0  0  0  0  0  0  0  0
    0.1387    0.6493    0.1158 H   0  0  0  0  0  0  0  0  0  0  0  0
   -0.1517    1.3939   -2.3283 H   0  0  0  0  0  0  0  0  0  0  0  0
    0.4138   -0.2102   -2.7988 H   0  0  0  0  0  0  0  0  0  0  0  0
    1.9419    1.8145   -1.0632 H   0  0  0  0  0  0  0  0  0  0  0  0
    2.5500    0.2113   -1.4978 H   0  0  0  0  0  0  0  0  0  0  0  0
   -2.3615    1.0536   -0.9529 N   0  0  0  0  0  0  0  0  0  0  0  0
   -3.8201    1.1779   -0.8182 C   0  0  2  0  0  0  0  0  0  0  0  0
   -4.4291    2.1003   -1.8921 C   0  0  0  0  0  0  0  0  0  0  0  0
   -3.8336    3.1065   -2.2574 O   0  0  0  0  0  0  0  0  0  0  0  0
   -4.1335    1.7157    0.5807 C   0  0  0  0  0  0  0  0  0  0  0  0
   -1.8730    1.8053   -1.4399 H   0  0  0  0  0  0  0  0  0  0  0  0
   -4.2854    0.1936   -0.9357 H   0  0  0  0  0  0  0  0  0  0  0  0
   -3.6775    2.7007    0.7223 H   0  0  0  0  0  0  0  0  0  0  0  0
   -5.2146    1.8070    0.7210 H   0  0  0  0  0  0  0  0  0  0  0  0
   -3.7412    1.0367    1.3444 H   0  0  0  0  0  0  0  0  0  0  0  0
   -5.6716    1.8146   -2.4296 N   0  0  0  0  0  0  0  0  0  0  0  0
   -6.2760    2.6002   -3.4979 C   0  0  0  0  0  0  0  0  0  0  0  0
   -6.0980    0.9308   -2.1675 H   0  0  0  0  0  0  0  0  0  0  0  0
   -6.3785    3.6472   -3.1934 H   0  0  0  0  0  0  0  0  0  0  0  0
   -5.6599    2.5547   -4.4022 H   0  0  0  0  0  0  0  0  0  0  0  0
   -7.2709    2.2116   -3.7351 H   0  0  0  0  0  0  0  0  0  0  0  0
  1  2  2  0  0  0  0
  1  3  1  0  0  0  0
  1  7  1  0  0  0  0
  3  4  1  0  0  0  0
  3  5  1  0  0  0  0
  3  6  1  0  0  0  0
  7  8  1  0  0  0  0
  7 12  1  0  0  0  0
  8  9  1  0  0  0  0
  8 11  1  0  0  0  0
  8 13  1  0  0  0  0
  9 10  2  0  0  0  0
  9 17  1  0  0  0  0
 11 14  1  0  0  0  0
 11 15  1  0  0  0  0
 11 16  1  0  0  0  0
 17 18  1  0  0  0  0
 17 26  1  0  0  0  0
 18 19  1  0  0  0  0
 18 21  1  0  0  0  0
 18 27  1  0  0  0  0
 19 20  2  0  0  0  0
 19 32  1  0  0  0  0
 21 22  1  0  0  0  0
 21 28  1  0  0  0  0
 21 29  1  0  0  0  0
 22 23  1  0  0  0  0
 22 30  1  0  0  0  0
 22 31  1  0  0  0  0
 23 24  1  0  0  0  0
 23 25  2  0  0  0  0
 32 33  1  0  0  0  0
 32 37  1  0  0  0  0
 33 34  1  0  0  0  0
 33 36  1  0  0  0  0
 33 38  1  0  0  0  0
 34 35  2  0  0  0  0
 34 42  1  0  0  0  0
 36 39  1  0  0  0  0
 36 40  1  0  0  0  0
 36 41  1  0  0  0  0
 42 43  1  0  0  0  0
 42 44  1  0  0  0  0
 43 45  1  0  0  0  0
 43 46  1  0  0  0  0
 43 47  1  0  0  0  0
M  CHG  1  24  -1
M  END
$$$$

  -OEChem-05262216243D

 47 46  0     1  0  0  0  0  0999 V2000
   -0.0023   -5.7074    1.4270 C   0  0  0  0  0  0  0  0  0  0  0  0
    0.7746   -5.6013    2.3642 O   0  0  0  0  0  0  0  0  0  0  0  0
   -1.0868   -6.7682    1.4577 C   0  0  0  0  0  0  0  0  0  0  0  0
   -0.9595   -7.4546    0.6172 H   0  0  0  0  0  0  0  0  0  0  0  0
   -1.0334   -7.3368    2.3901 H   0  0  0  0  0  0  0  0  0  0  0  0
   -2.0699   -6.2960    1.3877 H   0  0  0  0  0  0  0  0  0  0  0  0
    0.0921   -4.8687    0.3386 N   0  0  0  0  0  0  0  0  0  0  0  0
    0.9260   -3.6621    0.2882 C   0  0  2  0  0  0  0  0  0  0  0  0
    0.2019   -2.5319   -0.4729 C   0  0  0  0  0  0  0  0  0  0  0  0
   -0.7114   -2.8239   -1.2397 O   0  0  0  0  0  0  0  0  0  0  0  0
    2.2509   -4.0150   -0.3938 C   0  0  0  0  0  0  0  0  0  0  0  0
   -0.6722   -4.8996   -0.3367 H   0  0  0  0  0  0  0  0  0  0  0  0
    1.1242   -3.3003    1.3024 H   0  0  0  0  0  0  0  0  0  0  0  0
    2.0728   -4.3707   -1.4138 H   0  0  0  0  0  0  0  0  0  0  0  0
    2.9050   -3.1389   -0.4412 H   0  0  0  0  0  0  0  0  0  0  0  0
    2.7665   -4.8016    0.1660 H   0  0  0  0  0  0  0  0  0  0  0  0
    0.6873   -1.2374   -0.3989 N   0  0  0  0  0  0  0  0  0  0  0  0
   -0.0486    0.0180   -0.6683 C   0  0  2  0  0  0  0  0  0  0  0  0
   -1.6022   -0.0425   -0.7254 C   0  0  0  0  0  0  0  0  0  0  0  0
   -2.2127   -0.7394    0.0814 O   0  0  0  0  0  0  0  0  0  0  0  0
    0.5681    0.6003   -1.9569 C   0  0  0  0  0  0  0  0  0  0  0  0
    2.0258    1.0448   -1.7205 C   0  0  0  0  0  0  0  0  0  0  0  0
    2.6533    1.6007   -2.9972 C   0  0  0  0  0  0  0  0  0  0  0  0
    2.1291    2.6248   -3.4995 O   0  5  0  0  0  0  0  0  0  0  0  0
    3.6648    1.0134   -3.4527 O   0  0  0  0  0  0  0  0  0  0  0  0
    1.5502   -1.1351    0.1248 H   0  0  0  0  0  0  0  0  0  0  0  0
    0.1639    0.7129    0.1491 H   0  0  0  0  0  0  0  0  0  0  0  0
    0.0028    1.4735   -2.2965 H   0  0  0  0  0  0  0  0  0  0  0  0
    0.5306   -0.1481   -2.7565 H   0  0  0  0  0  0  0  0  0  0  0  0
    2.0533    1.8206   -0.9501 H   0  0  0  0  0  0  0  0  0  0  0  0
    2.6294    0.2026   -1.3702 H   0  0  0  0  0  0  0  0  0  0  0  0
   -2.3310    1.0009   -1.2736 N   0  0  0  0  0  0  0  0  0  0  0  0
   -3.7981    1.0858   -1.2478 C   0  0  2  0  0  0  0  0  0  0  0  0
   -4.3779    1.6285   -2.5689 C   0  0  0  0  0  0  0  0  0  0  0  0
   -3.7712    2.4735   -3.2156 O   0  0  0  0  0  0  0  0  0  0  0  0
   -4.2077    1.9833   -0.0774 C   0  0  0  0  0  0  0  0  0  0  0  0
   -1.8415    1.6163   -1.9235 H   0  0  0  0  0  0  0  0  0  0  0  0
   -4.2229    0.0877   -1.0978 H   0  0  0  0  0  0  0  0  0  0  0  0
   -3.7963    2.9898   -0.2052 H   0  0  0  0  0  0  0  0  0  0  0  0
   -5.2975    2.0560   -0.0145 H   0  0  0  0  0  0  0  0  0  0  0  0
   -3.8331    1.5702    0.8645 H   0  0  0  0  0  0  0  0  0  0  0  0
   -5.6056    1.1805   -3.0233 N   0  0  0  0  0  0  0  0  0  0  0  0
   -6.1761    1.5865   -4.3011 C   0  0  0  0  0  0  0  0  0  0  0  0
   -6.0378    0.4167   -2.5121 H   0  0  0  0  0  0  0  0  0  0  0  0
   -6.2674    2.6766   -4.3512 H   0  0  0  0  0  0  0  0  0  0  0  0
   -5.5425    1.2468   -5.1271 H   0  0  0  0  0  0  0  0  0  0  0  0
   -7.1722    1.1517   -4.4252 H   0  0  0  0  0  0  0  0  0  0  0  0
  1  2  2  0  0  0  0
  1  3  1  0  0  0  0
  1  7  1  0  0  0  0
  3  4  1  0  0  0  0
  3  5  1  0  0  0  0
  3  6  1  0  0  0  0
  7  8  1  0  0  0  0
  7 12  1  0  0  0  0
  8  9  1  0  0  0  0
  8 11  1  0  0  0  0
  8 13  1  0  0  0  0
  9 10  2  0  0  0  0
  9 17  1  0  0  0  0
 11 14  1  0  0  0  0
 11 15  1  0  0  0  0
 11 16  1  0  0  0  0
 17 18  1  0  0  0  0
 17 26  1  0  0  0  0
 18 19  1  0  0  0  0
 18 21  1  0  0  0  0
 18 27  1  0  0  0  0
 19 20  2  0  0  0  0
 19 32  1  0  0  0  0
 21 22  1  0  0  0  0
 21 28  1  0  0  0  0
 21 29  1  0  0  0  0
 22 23  1  0  0  0  0
 22 30  1  0  0  0  0
 22 31  1  0  0  0  0
 23 24  1  0  0  0  0
 23 25  2  0  0  0  0
 32 33  1  0  0  0  0
 32 37  1  0  0  0  0
 33 34  1  0  0  0  0
 33 36  1  0  0  0  0
 33 38  1  0  0  0  0
 34 35  2  0  0  0  0
 34 42  1  0  0  0  0
 36 39  1  0  0  0  0
 36 40  1  0  0  0  0
 36 41  1  0  0  0  0
 42 43  1  0  0  0  0
 42 44  1  0  0  0  0
 43 45  1  0  0  0  0
 43 46  1  0  0  0  0
 43 47  1  0  0  0  0
M  CHG  1  24  -1
M  END
$$$$

  -OEChem-05262216243D

 47 46  0     1  0  0  0  0  0999 V2000
    0.0158   -5.7216    1.3744 C   0  0  0  0  0  0  0  0  0  0  0  0
    0.8233   -5.6405    2.2878 O   0  0  0  0  0  0  0  0  0  0  0  0
   -1.0773   -6.7734    1.4202 C   0  0  0  0  0  0  0  0  0  0  0  0
   -1.0014   -7.4280    0.5486 H   0  0  0  0  0  0  0  0  0  0  0  0
   -0.9825   -7.3783    2.3262 H   0  0  0  0  0  0  0  0  0  0  0  0
   -2.0574   -6.2897    1.4197 H   0  0  0  0  0  0  0  0  0  0  0  0
    0.0787   -4.8572    0.3038 N   0  0  0  0  0  0  0  0  0  0  0  0
    0.9102   -3.6484    0.2602 C   0  0  2  0  0  0  0  0  0  0  0  0
    0.1609   -2.4947   -0.4395 C   0  0  0  0  0  0  0  0  0  0  0  0
   -0.8059   -2.7592   -1.1484 O   0  0  0  0  0  0  0  0  0  0  0  0
    2.2098   -3.9793   -0.4788 C   0  0  0  0  0  0  0  0  0  0  0  0
   -0.7094   -4.8680   -0.3442 H   0  0  0  0  0  0  0  0  0  0  0  0
    1.1446   -3.3168    1.2773 H   0  0  0  0  0  0  0  0  0  0  0  0
    1.9957   -4.2995   -1.5036 H   0  0  0  0  0  0  0  0  0  0  0  0
    2.8643   -3.1032   -0.5189 H   0  0  0  0  0  0  0  0  0  0  0  0
    2.7424   -4.7853    0.0355 H   0  0  0  0  0  0  0  0  0  0  0  0
    0.6655   -1.2080   -0.3579 N   0  0  0  0  0  0  0  0  0  0  0  0
   -0.0367    0.0616   -0.6458 C   0  0  2  0  0  0  0  0  0  0  0  0
   -1.5879    0.0082   -0.7358 C   0  0  0  0  0  0  0  0  0  0  0  0
   -2.2160   -0.5228    0.1773 O   0  0  0  0  0  0  0  0  0  0  0  0
    0.6244    0.6436   -1.9121 C   0  0  0  0  0  0  0  0  0  0  0  0
    2.0809    1.0624   -1.6313 C   0  0  0  0  0  0  0  0  0  0  0  0
    2.7491    1.6175   -2.8871 C   0  0  0  0  0  0  0  0  0  0  0  0
    2.2897    2.6849   -3.3618 O   0  5  0  0  0  0  0  0  0  0  0  0
    3.7231    0.9811   -3.3578 O   0  0  0  0  0  0  0  0  0  0  0  0
    1.5539   -1.1220    0.1252 H   0  0  0  0  0  0  0  0  0  0  0  0
    0.1605    0.7503    0.1806 H   0  0  0  0  0  0  0  0  0  0  0  0
    0.0857    1.5337   -2.2520 H   0  0  0  0  0  0  0  0  0  0  0  0
    0.5936   -0.0939   -2.7223 H   0  0  0  0  0  0  0  0  0  0  0  0
    2.1007    1.8304   -0.8529 H   0  0  0  0  0  0  0  0  0  0  0  0
    2.6613    0.2074   -1.2734 H   0  0  0  0  0  0  0  0  0  0  0  0
   -2.3008    0.8715   -1.5514 N   0  0  0  0  0  0  0  0  0  0  0  0
   -3.7671    0.9016   -1.6348 C   0  0  2  0  0  0  0  0  0  0  0  0
   -4.2663    1.0071   -3.0897 C   0  0  0  0  0  0  0  0  0  0  0  0
   -3.6082    1.6031   -3.9337 O   0  0  0  0  0  0  0  0  0  0  0  0
   -4.2676    2.0891   -0.8091 C   0  0  0  0  0  0  0  0  0  0  0  0
   -1.7871    1.2999   -2.3217 H   0  0  0  0  0  0  0  0  0  0  0  0
   -4.1827   -0.0224   -1.2199 H   0  0  0  0  0  0  0  0  0  0  0  0
   -3.8721    3.0278   -1.2103 H   0  0  0  0  0  0  0  0  0  0  0  0
   -5.3604    2.1339   -0.8269 H   0  0  0  0  0  0  0  0  0  0  0  0
   -3.9416    1.9895    0.2311 H   0  0  0  0  0  0  0  0  0  0  0  0
   -5.4776    0.4442   -3.4510 N   0  0  0  0  0  0  0  0  0  0  0  0
   -5.9650    0.4254   -4.8244 C   0  0  0  0  0  0  0  0  0  0  0  0
   -5.9500   -0.1230   -2.7534 H   0  0  0  0  0  0  0  0  0  0  0  0
   -6.0160    1.4421   -5.2285 H   0  0  0  0  0  0  0  0  0  0  0  0
   -5.3002   -0.1721   -5.4569 H   0  0  0  0  0  0  0  0  0  0  0  0
   -6.9677   -0.0104   -4.8636 H   0  0  0  0  0  0  0  0  0  0  0  0
  1  2  2  0  0  0  0
  1  3  1  0  0  0  0
  1  7  1  0  0  0  0
  3  4  1  0  0  0  0
  3  5  1  0  0  0  0
  3  6  1  0  0  0  0
  7  8  1  0  0  0  0
  7 12  1  0  0  0  0
  8  9  1  0  0  0  0
  8 11  1  0  0  0  0
  8 13  1  0  0  0  0
  9 10  2  0  0  0  0
  9 17  1  0  0  0  0
 11 14  1  0  0  0  0
 11 15  1  0  0  0  0
 11 16  1  0  0  0  0
 17 18  1  0  0  0  0
 17 26  1  0  0  0  0
 18 19  1  0  0  0  0
 18 21  1  0  0  0  0
 18 27  1  0  0  0  0
 19 20  2  0  0  0  0
 19 32  1  0  0  0  0
 21 22  1  0  0  0  0
 21 28  1  0  0  0  0
 21 29  1  0  0  0  0
 22 23  1  0  0  0  0
 22 30  1  0  0  0  0
 22 31  1  0  0  0  0
 23 24  1  0  0  0  0
 23 25  2  0  0  0  0
 32 33  1  0  0  0  0
 32 37  1  0  0  0  0
 33 34  1  0  0  0  0
 33 36  1  0  0  0  0
 33 38  1  0  0  0  0
 34 35  2  0  0  0  0
 34 42  1  0  0  0  0
 36 39  1  0  0  0  0
 36 40  1  0  0  0  0
 36 41  1  0  0  0  0
 42 43  1  0  0  0  0
 42 44  1  0  0  0  0
 43 45  1  0  0  0  0
 43 46  1  0  0  0  0
 43 47  1  0  0  0  0
M  CHG  1  24  -1
M  END
$$$$

  -OEChem-05262216243D

 47 46  0     1  0  0  0  0  0999 V2000
    0.1185   -5.7466    1.3785 C   0  0  0  0  0  0  0  0  0  0  0  0
    0.9762   -5.6698    2.2452 O   0  0  0  0  0  0  0  0  0  0  0  0
   -0.9372   -6.8346    1.4514 C   0  0  0  0  0  0  0  0  0  0  0  0
   -0.8609   -7.4866    0.5777 H   0  0  0  0  0  0  0  0  0  0  0  0
   -0.7986   -7.4358    2.3545 H   0  0  0  0  0  0  0  0  0  0  0  0
   -1.9333   -6.3852    1.4766 H   0  0  0  0  0  0  0  0  0  0  0  0
    0.0918   -4.8464    0.3362 N   0  0  0  0  0  0  0  0  0  0  0  0
    0.8988   -3.6218    0.2744 C   0  0  2  0  0  0  0  0  0  0  0  0
    0.1008   -2.4660   -0.3655 C   0  0  0  0  0  0  0  0  0  0  0  0
   -0.9174   -2.7287   -0.9986 O   0  0  0  0  0  0  0  0  0  0  0  0
    2.1663   -3.9158   -0.5337 C   0  0  0  0  0  0  0  0  0  0  0  0
   -0.7298   -4.8616   -0.2681 H   0  0  0  0  0  0  0  0  0  0  0  0
    1.1775   -3.3060    1.2853 H   0  0  0  0  0  0  0  0  0  0  0  0
    1.9078   -4.2136   -1.5552 H   0  0  0  0  0  0  0  0  0  0  0  0
    2.8071   -3.0298   -0.5828 H   0  0  0  0  0  0  0  0  0  0  0  0
    2.7342   -4.7261   -0.0661 H   0  0  0  0  0  0  0  0  0  0  0  0
    0.6092   -1.1795   -0.3007 N   0  0  0  0  0  0  0  0  0  0  0  0
   -0.0646    0.0907   -0.6431 C   0  0  2  0  0  0  0  0  0  0  0  0
   -1.6101    0.0424   -0.7853 C   0  0  0  0  0  0  0  0  0  0  0  0
   -2.2779   -0.2883    0.1917 O   0  0  0  0  0  0  0  0  0  0  0  0
    0.6493    0.6430   -1.8929 C   0  0  0  0  0  0  0  0  0  0  0  0
    2.0983    1.0539   -1.5650 C   0  0  0  0  0  0  0  0  0  0  0  0
    2.8189    1.5792   -2.8048 C   0  0  0  0  0  0  0  0  0  0  0  0
    2.3881    2.6404   -3.3188 O   0  5  0  0  0  0  0  0  0  0  0  0
    3.8014    0.9217   -3.2268 O   0  0  0  0  0  0  0  0  0  0  0  0
    1.5271   -1.0950    0.1243 H   0  0  0  0  0  0  0  0  0  0  0  0
    0.1081    0.7945    0.1764 H   0  0  0  0  0  0  0  0  0  0  0  0
    0.1283    1.5316   -2.2650 H   0  0  0  0  0  0  0  0  0  0  0  0
    0.6442   -0.1079   -2.6909 H   0  0  0  0  0  0  0  0  0  0  0  0
    2.0960    1.8366   -0.8008 H   0  0  0  0  0  0  0  0  0  0  0  0
    2.6564    0.2007   -1.1691 H   0  0  0  0  0  0  0  0  0  0  0  0
   -2.2791    0.6488   -1.8352 N   0  0  0  0  0  0  0  0  0  0  0  0
   -3.7366    0.6004   -2.0083 C   0  0  2  0  0  0  0  0  0  0  0  0
   -4.1451    0.3308   -3.4706 C   0  0  0  0  0  0  0  0  0  0  0  0
   -3.4316    0.6952   -4.3977 O   0  0  0  0  0  0  0  0  0  0  0  0
   -4.3180    1.9307   -1.5246 C   0  0  0  0  0  0  0  0  0  0  0  0
   -1.7240    0.8709   -2.6618 H   0  0  0  0  0  0  0  0  0  0  0  0
   -4.1552   -0.2123   -1.4056 H   0  0  0  0  0  0  0  0  0  0  0  0
   -3.9215    2.7596   -2.1198 H   0  0  0  0  0  0  0  0  0  0  0  0
   -5.4084    1.9262   -1.6123 H   0  0  0  0  0  0  0  0  0  0  0  0
   -4.0550    2.0976   -0.4751 H   0  0  0  0  0  0  0  0  0  0  0  0
   -5.3412   -0.3070   -3.7488 N   0  0  0  0  0  0  0  0  0  0  0  0
   -5.7621   -0.6548   -5.0997 C   0  0  0  0  0  0  0  0  0  0  0  0
   -5.8651   -0.6727   -2.9595 H   0  0  0  0  0  0  0  0  0  0  0  0
   -5.8112    0.2405   -5.7283 H   0  0  0  0  0  0  0  0  0  0  0  0
   -5.0578   -1.3630   -5.5486 H   0  0  0  0  0  0  0  0  0  0  0  0
   -6.7538   -1.1161   -5.0793 H   0  0  0  0  0  0  0  0  0  0  0  0
  1  2  2  0  0  0  0
  1  3  1  0  0  0  0
  1  7  1  0  0  0  0
  3  4  1  0  0  0  0
  3  5  1  0  0  0  0
  3  6  1  0  0  0  0
  7  8  1  0  0  0  0
  7 12  1  0  0  0  0
  8  9  1  0  0  0  0
  8 11  1  0  0  0  0
  8 13  1  0  0  0  0
  9 10  2  0  0  0  0
  9 17  1  0  0  0  0
 11 14  1  0  0  0  0
 11 15  1  0  0  0  0
 11 16  1  0  0  0  0
 17 18  1  0  0  0  0
 17 26  1  0  0  0  0
 18 19  1  0  0  0  0
 18 21  1  0  0  0  0
 18 27  1  0  0  0  0
 19 20  2  0  0  0  0
 19 32  1  0  0  0  0
 21 22  1  0  0  0  0
 21 28  1  0  0  0  0
 21 29  1  0  0  0  0
 22 23  1  0  0  0  0
 22 30  1  0  0  0  0
 22 31  1  0  0  0  0
 23 24  1  0  0  0  0
 23 25  2  0  0  0  0
 32 33  1  0  0  0  0
 32 37  1  0  0  0  0
 33 34  1  0  0  0  0
 33 36  1  0  0  0  0
 33 38  1  0  0  0  0
 34 35  2  0  0  0  0
 34 42  1  0  0  0  0
 36 39  1  0  0  0  0
 36 40  1  0  0  0  0
 36 41  1  0  0  0  0
 42 43  1  0  0  0  0
 42 44  1  0  0  0  0
 43 45  1  0  0  0  0
 43 46  1  0  0  0  0
 43 47  1  0  0  0  0
M  CHG  1  24  -1
M  END
$$$$

  -OEChem-05262216243D

 47 46  0     1  0  0  0  0  0999 V2000
    0.2197   -5.7605    1.3896 C   0  0  0  0  0  0  0  0  0  0  0  0
    1.1282   -5.6854    2.2027 O   0  0  0  0  0  0  0  0  0  0  0  0
   -0.7998   -6.8794    1.4960 C   0  0  0  0  0  0  0  0  0  0  0  0
   -0.7345   -7.5273    0.6184 H   0  0  0  0  0  0  0  0  0  0  0  0
   -0.6118   -7.4774    2.3922 H   0  0  0  0  0  0  0  0  0  0  0  0
   -1.8076   -6.4610    1.5568 H   0  0  0  0  0  0  0  0  0  0  0  0
    0.1070   -4.8326    0.3777 N   0  0  0  0  0  0  0  0  0  0  0  0
    0.8954   -3.5974    0.2884 C   0  0  2  0  0  0  0  0  0  0  0  0
    0.0492   -2.4407   -0.2860 C   0  0  0  0  0  0  0  0  0  0  0  0
   -1.0161   -2.7036   -0.8351 O   0  0  0  0  0  0  0  0  0  0  0  0
    2.1178   -3.8661   -0.5950 C   0  0  0  0  0  0  0  0  0  0  0  0
   -0.7485   -4.8510   -0.1776 H   0  0  0  0  0  0  0  0  0  0  0  0
    1.2293   -3.2939    1.2863 H   0  0  0  0  0  0  0  0  0  0  0  0
    1.8044   -4.1517   -1.6043 H   0  0  0  0  0  0  0  0  0  0  0  0
    2.7469   -2.9732   -0.6665 H   0  0  0  0  0  0  0  0  0  0  0  0
    2.7188   -4.6777   -0.1733 H   0  0  0  0  0  0  0  0  0  0  0  0
    0.5515   -1.1509   -0.2365 N   0  0  0  0  0  0  0  0  0  0  0  0
   -0.1095    0.1119   -0.6276 C   0  0  2  0  0  0  0  0  0  0  0  0
   -1.6488    0.0672   -0.8193 C   0  0  0  0  0  0  0  0  0  0  0  0
   -2.3634   -0.0563    0.1721 O   0  0  0  0  0  0  0  0  0  0  0  0
    0.6337    0.6269   -1.8751 C   0  0  0  0  0  0  0  0  0  0  0  0
    2.0765    1.0421   -1.5300 C   0  0  0  0  0  0  0  0  0  0  0  0
    2.8186    1.5286   -2.7722 C   0  0  0  0  0  0  0  0  0  0  0  0
    2.4252    2.5961   -3.3023 O   0  5  0  0  0  0  0  0  0  0  0  0
    3.7745    0.8280   -3.1856 O   0  0  0  0  0  0  0  0  0  0  0  0
    1.5014   -1.0655    0.1131 H   0  0  0  0  0  0  0  0  0  0  0  0
    0.0454    0.8360    0.1779 H   0  0  0  0  0  0  0  0  0  0  0  0
    0.1191    1.5047   -2.2815 H   0  0  0  0  0  0  0  0  0  0  0  0
    0.6427   -0.1458   -2.6522 H   0  0  0  0  0  0  0  0  0  0  0  0
    2.0620    1.8474   -0.7899 H   0  0  0  0  0  0  0  0  0  0  0  0
    2.6249    0.2001   -1.0983 H   0  0  0  0  0  0  0  0  0  0  0  0
   -2.2548    0.3764   -2.0253 N   0  0  0  0  0  0  0  0  0  0  0  0
   -3.6953    0.2421   -2.2709 C   0  0  2  0  0  0  0  0  0  0  0  0
   -3.9962   -0.3858   -3.6468 C   0  0  0  0  0  0  0  0  0  0  0  0
   -3.2331   -0.2216   -4.5917 O   0  0  0  0  0  0  0  0  0  0  0  0
   -4.3303    1.6303   -2.1650 C   0  0  0  0  0  0  0  0  0  0  0  0
   -1.6482    0.3955   -2.8450 H   0  0  0  0  0  0  0  0  0  0  0  0
   -4.1400   -0.4135   -1.5152 H   0  0  0  0  0  0  0  0  0  0  0  0
   -3.9062    2.3040   -2.9167 H   0  0  0  0  0  0  0  0  0  0  0  0
   -5.4114    1.5690   -2.3202 H   0  0  0  0  0  0  0  0  0  0  0  0
   -4.1457    2.0540   -1.1729 H   0  0  0  0  0  0  0  0  0  0  0  0
   -5.1566   -1.1158   -3.8360 N   0  0  0  0  0  0  0  0  0  0  0  0
   -5.4853   -1.7795   -5.0907 C   0  0  0  0  0  0  0  0  0  0  0  0
   -5.7237   -1.3046   -3.0151 H   0  0  0  0  0  0  0  0  0  0  0  0
   -5.5059   -1.0561   -5.9126 H   0  0  0  0  0  0  0  0  0  0  0  0
   -4.7449   -2.5531   -5.3195 H   0  0  0  0  0  0  0  0  0  0  0  0
   -6.4705   -2.2501   -5.0222 H   0  0  0  0  0  0  0  0  0  0  0  0
  1  2  2  0  0  0  0
  1  3  1  0  0  0  0
  1  7  1  0  0  0  0
  3  4  1  0  0  0  0
  3  5  1  0  0  0  0
  3  6  1  0  0  0  0
  7  8  1  0  0  0  0
  7 12  1  0  0  0  0
  8  9  1  0  0  0  0
  8 11  1  0  0  0  0
  8 13  1  0  0  0  0
  9 10  2  0  0  0  0
  9 17  1  0  0  0  0
 11 14  1  0  0  0  0
 11 15  1  0  0  0  0
 11 16  1  0  0  0  0
 17 18  1  0  0  0  0
 17 26  1  0  0  0  0
 18 19  1  0  0  0  0
 18 21  1  0  0  0  0
 18 27  1  0  0  0  0
 19 20  2  0  0  0  0
 19 32  1  0  0  0  0
 21 22  1  0  0  0  0
 21 28  1  0  0  0  0
 21 29  1  0  0  0  0
 22 23  1  0  0  0  0
 22 30  1  0  0  0  0
 22 31  1  0  0  0  0
 23 24  1  0  0  0  0
 23 25  2  0  0  0  0
 32 33  1  0  0  0  0
 32 37  1  0  0  0  0
 33 34  1  0  0  0  0
 33 36  1  0  0  0  0
 33 38  1  0  0  0  0
 34 35  2  0  0  0  0
 34 42  1  0  0  0  0
 36 39  1  0  0  0  0
 36 40  1  0  0  0  0
 36 41  1  0  0  0  0
 42 43  1  0  0  0  0
 42 44  1  0  0  0  0
 43 45  1  0  0  0  0
 43 46  1  0  0  0  0
 43 47  1  0  0  0  0
M  CHG  1  24  -1
M  END
$$$$

  -OEChem-05262216243D

 47 46  0     1  0  0  0  0  0999 V2000
    0.2833   -5.7800    1.3584 C   0  0  0  0  0  0  0  0  0  0  0  0
    1.2125   -5.7108    2.1482 O   0  0  0  0  0  0  0  0  0  0  0  0
   -0.7002   -6.9328    1.4453 C   0  0  0  0  0  0  0  0  0  0  0  0
   -0.7295   -7.4704    0.4941 H   0  0  0  0  0  0  0  0  0  0  0  0
   -0.3992   -7.6277    2.2344 H   0  0  0  0  0  0  0  0  0  0  0  0
   -1.6996   -6.5529    1.6721 H   0  0  0  0  0  0  0  0  0  0  0  0
    0.1125   -4.8143    0.3909 N   0  0  0  0  0  0  0  0  0  0  0  0
    0.8723   -3.5602    0.3180 C   0  0  2  0  0  0  0  0  0  0  0  0
   -0.0011   -2.4096   -0.2280 C   0  0  0  0  0  0  0  0  0  0  0  0
   -1.0955   -2.6759   -0.7144 O   0  0  0  0  0  0  0  0  0  0  0  0
    2.0948   -3.7865   -0.5778 C   0  0  0  0  0  0  0  0  0  0  0  0
   -0.7543   -4.8392   -0.1458 H   0  0  0  0  0  0  0  0  0  0  0  0
    1.2065   -3.2686    1.3193 H   0  0  0  0  0  0  0  0  0  0  0  0
    1.7812   -4.0629   -1.5897 H   0  0  0  0  0  0  0  0  0  0  0  0
    2.7040   -2.8792   -0.6393 H   0  0  0  0  0  0  0  0  0  0  0  0
    2.7174   -4.5908   -0.1732 H   0  0  0  0  0  0  0  0  0  0  0  0
    0.4968   -1.1173   -0.1985 N   0  0  0  0  0  0  0  0  0  0  0  0
   -0.1499    0.1338   -0.6464 C   0  0  2  0  0  0  0  0  0  0  0  0
   -1.6792    0.0899   -0.8917 C   0  0  0  0  0  0  0  0  0  0  0  0
   -2.4381    0.1988    0.0675 O   0  0  0  0  0  0  0  0  0  0  0  0
    0.6278    0.6149   -1.8855 C   0  0  0  0  0  0  0  0  0  0  0  0
    2.0594    1.0410   -1.5097 C   0  0  0  0  0  0  0  0  0  0  0  0
    2.8387    1.4944   -2.7416 C   0  0  0  0  0  0  0  0  0  0  0  0
    2.4644    2.5474   -3.3128 O   0  5  0  0  0  0  0  0  0  0  0  0
    3.8020    0.7785   -3.1089 O   0  0  0  0  0  0  0  0  0  0  0  0
    1.4624   -1.0309    0.1056 H   0  0  0  0  0  0  0  0  0  0  0  0
   -0.0177    0.8799    0.1435 H   0  0  0  0  0  0  0  0  0  0  0  0
    0.1188    1.4774   -2.3309 H   0  0  0  0  0  0  0  0  0  0  0  0
    0.6637   -0.1786   -2.6404 H   0  0  0  0  0  0  0  0  0  0  0  0
    2.0227    1.8662   -0.7925 H   0  0  0  0  0  0  0  0  0  0  0  0
    2.5954    0.2119   -1.0390 H   0  0  0  0  0  0  0  0  0  0  0  0
   -2.2181    0.0675   -2.1664 N   0  0  0  0  0  0  0  0  0  0  0  0
   -3.6428   -0.1496   -2.4394 C   0  0  2  0  0  0  0  0  0  0  0  0
   -3.8684   -1.1288   -3.6089 C   0  0  0  0  0  0  0  0  0  0  0  0
   -3.0680   -1.1979   -4.5350 O   0  0  0  0  0  0  0  0  0  0  0  0
   -4.2831    1.2068   -2.7406 C   0  0  0  0  0  0  0  0  0  0  0  0
   -1.5690   -0.1459   -2.9229 H   0  0  0  0  0  0  0  0  0  0  0  0
   -4.1267   -0.5858   -1.5597 H   0  0  0  0  0  0  0  0  0  0  0  0
   -3.8135    1.6648   -3.6171 H   0  0  0  0  0  0  0  0  0  0  0  0
   -5.3528    1.0899   -2.9374 H   0  0  0  0  0  0  0  0  0  0  0  0
   -4.1585    1.8800   -1.8865 H   0  0  0  0  0  0  0  0  0  0  0  0
   -5.0034   -1.9199   -3.6373 N   0  0  0  0  0  0  0  0  0  0  0  0
   -5.2477   -2.9239   -4.6643 C   0  0  0  0  0  0  0  0  0  0  0  0
   -5.5987   -1.9012   -2.8148 H   0  0  0  0  0  0  0  0  0  0  0  0
   -5.2736   -2.4598   -5.6559 H   0  0  0  0  0  0  0  0  0  0  0  0
   -4.4592   -3.6837   -4.6505 H   0  0  0  0  0  0  0  0  0  0  0  0
   -6.2083   -3.4173   -4.4887 H   0  0  0  0  0  0  0  0  0  0  0  0
  1  2  2  0  0  0  0
  1  3  1  0  0  0  0
  1  7  1  0  0  0  0
  3  4  1  0  0  0  0
  3  5  1  0  0  0  0
  3  6  1  0  0  0  0
  7  8  1  0  0  0  0
  7 12  1  0  0  0  0
  8  9  1  0  0  0  0
  8 11  1  0  0  0  0
  8 13  1  0  0  0  0
  9 10  2  0  0  0  0
  9 17  1  0  0  0  0
 11 14  1  0  0  0  0
 11 15  1  0  0  0  0
 11 16  1  0  0  0  0
 17 18  1  0  0  0  0
 17 26  1  0  0  0  0
 18 19  1  0  0  0  0
 18 21  1  0  0  0  0
 18 27  1  0  0  0  0
 19 20  2  0  0  0  0
 19 32  1  0  0  0  0
 21 22  1  0  0  0  0
 21 28  1  0  0  0  0
 21 29  1  0  0  0  0
 22 23  1  0  0  0  0
 22 30  1  0  0  0  0
 22 31  1  0  0  0  0
 23 24  1  0  0  0  0
 23 25  2  0  0  0  0
 32 33  1  0  0  0  0
 32 37  1  0  0  0  0
 33 34  1  0  0  0  0
 33 36  1  0  0  0  0
 33 38  1  0  0  0  0
 34 35  2  0  0  0  0
 34 42  1  0  0  0  0
 36 39  1  0  0  0  0
 36 40  1  0  0  0  0
 36 41  1  0  0  0  0
 42 43  1  0  0  0  0
 42 44  1  0  0  0  0
 43 45  1  0  0  0  0
 43 46  1  0  0  0  0
 43 47  1  0  0  0  0
M  CHG  1  24  -1
M  END
$$$$

  -OEChem-05262216243D

 47 46  0     1  0  0  0  0  0999 V2000
    0.1005   -6.0523    0.5413 C   0  0  0  0  0  0  0  0  0  0  0  0
    0.8230   -6.0491    1.5261 O   0  0  0  0  0  0  0  0  0  0  0  0
   -0.7845   -7.2508    0.2518 C   0  0  0  0  0  0  0  0  0  0  0  0
   -0.5332   -7.6722   -0.7246 H   0  0  0  0  0  0  0  0  0  0  0  0
   -0.6415   -8.0202    1.0156 H   0  0  0  0  0  0  0  0  0  0  0  0
   -1.8342   -6.9465    0.2498 H   0  0  0  0  0  0  0  0  0  0  0  0
    0.0697   -4.9677   -0.3076 N   0  0  0  0  0  0  0  0  0  0  0  0
    0.7041   -3.6720   -0.0304 C   0  0  2  0  0  0  0  0  0  0  0  0
   -0.1781   -2.5061   -0.5275 C   0  0  0  0  0  0  0  0  0  0  0  0
   -1.1624   -2.7591   -1.2117 O   0  0  0  0  0  0  0  0  0  0  0  0
    2.0733   -3.6507   -0.7174 C   0  0  0  0  0  0  0  0  0  0  0  0
   -0.6649   -4.9576   -1.0152 H   0  0  0  0  0  0  0  0  0  0  0  0
    0.8396   -3.5427    1.0487 H   0  0  0  0  0  0  0  0  0  0  0  0
    1.9595   -3.7522   -1.8016 H   0  0  0  0  0  0  0  0  0  0  0  0
    2.5967   -2.7120   -0.5104 H   0  0  0  0  0  0  0  0  0  0  0  0
    2.6924   -4.4765   -0.3528 H   0  0  0  0  0  0  0  0  0  0  0  0
    0.1806   -1.2018   -0.2324 N   0  0  0  0  0  0  0  0  0  0  0  0
   -0.4825    0.0554   -0.6401 C   0  0  2  0  0  0  0  0  0  0  0  0
   -1.9252   -0.0363   -1.1996 C   0  0  0  0  0  0  0  0  0  0  0  0
   -2.8790    0.0605   -0.4344 O   0  0  0  0  0  0  0  0  0  0  0  0
    0.4556    0.7303   -1.6561 C   0  0  0  0  0  0  0  0  0  0  0  0
    1.7670    1.1922   -0.9988 C   0  0  0  0  0  0  0  0  0  0  0  0
    2.6764    1.8310   -2.0438 C   0  0  0  0  0  0  0  0  0  0  0  0
    2.5034    3.0451   -2.3064 O   0  5  0  0  0  0  0  0  0  0  0  0
    3.5010    1.0790   -2.6178 O   0  0  0  0  0  0  0  0  0  0  0  0
    1.0746   -1.0953    0.2395 H   0  0  0  0  0  0  0  0  0  0  0  0
   -0.5564    0.7002    0.2413 H   0  0  0  0  0  0  0  0  0  0  0  0
   -0.0400    1.6081   -2.0874 H   0  0  0  0  0  0  0  0  0  0  0  0
    0.6821    0.0393   -2.4758 H   0  0  0  0  0  0  0  0  0  0  0  0
    1.5539    1.9203   -0.2105 H   0  0  0  0  0  0  0  0  0  0  0  0
    2.2922    0.3490   -0.5417 H   0  0  0  0  0  0  0  0  0  0  0  0
   -2.1756   -0.2061   -2.5505 N   0  0  0  0  0  0  0  0  0  0  0  0
   -3.5184   -0.2986   -3.1448 C   0  0  2  0  0  0  0  0  0  0  0  0
   -4.1775   -1.6902   -2.9620 C   0  0  0  0  0  0  0  0  0  0  0  0
   -4.6678   -2.3025   -3.9071 O   0  0  0  0  0  0  0  0  0  0  0  0
   -3.3803    0.1055   -4.6176 C   0  0  0  0  0  0  0  0  0  0  0  0
   -1.3784   -0.4863   -3.1153 H   0  0  0  0  0  0  0  0  0  0  0  0
   -4.1760    0.4294   -2.6587 H   0  0  0  0  0  0  0  0  0  0  0  0
   -2.7451   -0.6074   -5.1533 H   0  0  0  0  0  0  0  0  0  0  0  0
   -4.3625    0.1268   -5.1000 H   0  0  0  0  0  0  0  0  0  0  0  0
   -2.9348    1.1018   -4.6991 H   0  0  0  0  0  0  0  0  0  0  0  0
   -4.2551   -2.2395   -1.6979 N   0  0  0  0  0  0  0  0  0  0  0  0
   -4.6628   -3.6112   -1.4400 C   0  0  0  0  0  0  0  0  0  0  0  0
   -3.7224   -1.7423   -0.9795 H   0  0  0  0  0  0  0  0  0  0  0  0
   -5.6676   -3.7941   -1.8339 H   0  0  0  0  0  0  0  0  0  0  0  0
   -3.9633   -4.3097   -1.9103 H   0  0  0  0  0  0  0  0  0  0  0  0
   -4.6739   -3.8017   -0.3629 H   0  0  0  0  0  0  0  0  0  0  0  0
  1  2  2  0  0  0  0
  1  3  1  0  0  0  0
  1  7  1  0  0  0  0
  3  4  1  0  0  0  0
  3  5  1  0  0  0  0
  3  6  1  0  0  0  0
  7  8  1  0  0  0  0
  7 12  1  0  0  0  0
  8  9  1  0  0  0  0
  8 11  1  0  0  0  0
  8 13  1  0  0  0  0
  9 10  2  0  0  0  0
  9 17  1  0  0  0  0
 11 14  1  0  0  0  0
 11 15  1  0  0  0  0
 11 16  1  0  0  0  0
 17 18  1  0  0  0  0
 17 26  1  0  0  0  0
 18 19  1  0  0  0  0
 18 21  1  0  0  0  0
 18 27  1  0  0  0  0
 19 20  2  0  0  0  0
 19 32  1  0  0  0  0
 21 22  1  0  0  0  0
 21 28  1  0  0  0  0
 21 29  1  0  0  0  0
 22 23  1  0  0  0  0
 22 30  1  0  0  0  0
 22 31  1  0  0  0  0
 23 24  1  0  0  0  0
 23 25  2  0  0  0  0
 32 33  1  0  0  0  0
 32 37  1  0  0  0  0
 33 34  1  0  0  0  0
 33 36  1  0  0  0  0
 33 38  1  0  0  0  0
 34 35  2  0  0  0  0
 34 42  1  0  0  0  0
 36 39  1  0  0  0  0
 36 40  1  0  0  0  0
 36 41  1  0  0  0  0
 42 43  1  0  0  0  0
 42 44  1  0  0  0  0
 43 45  1  0  0  0  0
 43 46  1  0  0  0  0
 43 47  1  0  0  0  0
M  CHG  1  24  -1
M  END
$$$$

  -OEChem-05262216243D

 47 46  0     1  0  0  0  0  0999 V2000
    0.4089   -6.0214    0.9482 C   0  0  0  0  0  0  0  0  0  0  0  0
    1.2028   -5.9054    1.8686 O   0  0  0  0  0  0  0  0  0  0  0  0
   -0.3630   -7.3162    0.7706 C   0  0  0  0  0  0  0  0  0  0  0  0
   -0.2092   -7.7074   -0.2381 H   0  0  0  0  0  0  0  0  0  0  0  0
   -0.0202   -8.0626    1.4929 H   0  0  0  0  0  0  0  0  0  0  0  0
   -1.4300   -7.1379    0.9260 H   0  0  0  0  0  0  0  0  0  0  0  0
    0.1993   -4.9778    0.0726 N   0  0  0  0  0  0  0  0  0  0  0  0
    0.7675   -3.6317    0.2246 C   0  0  2  0  0  0  0  0  0  0  0  0
   -0.1655   -2.5524   -0.3665 C   0  0  0  0  0  0  0  0  0  0  0  0
   -1.1359   -2.8991   -1.0301 O   0  0  0  0  0  0  0  0  0  0  0  0
    2.1348   -3.6000   -0.4666 C   0  0  0  0  0  0  0  0  0  0  0  0
   -0.5596   -5.0761   -0.6005 H   0  0  0  0  0  0  0  0  0  0  0  0
    0.8960   -3.4040    1.2883 H   0  0  0  0  0  0  0  0  0  0  0  0
    2.0287   -3.8129   -1.5352 H   0  0  0  0  0  0  0  0  0  0  0  0
    2.6034   -2.6176   -0.3526 H   0  0  0  0  0  0  0  0  0  0  0  0
    2.8003   -4.3489   -0.0259 H   0  0  0  0  0  0  0  0  0  0  0  0
    0.1333   -1.2174   -0.1641 N   0  0  0  0  0  0  0  0  0  0  0  0
   -0.5674   -0.0054   -0.6421 C   0  0  2  0  0  0  0  0  0  0  0  0
   -2.0098   -0.1313   -1.1981 C   0  0  0  0  0  0  0  0  0  0  0  0
   -2.9477    0.2898   -0.5329 O   0  0  0  0  0  0  0  0  0  0  0  0
    0.3407    0.6121   -1.7202 C   0  0  0  0  0  0  0  0  0  0  0  0
    1.6606    1.1456   -1.1255 C   0  0  0  0  0  0  0  0  0  0  0  0
    2.6004    1.7457   -2.1762 C   0  0  0  0  0  0  0  0  0  0  0  0
    3.7130    2.1472   -1.7592 O   0  5  0  0  0  0  0  0  0  0  0  0
    2.2349    1.7693   -3.3783 O   0  0  0  0  0  0  0  0  0  0  0  0
    1.0107   -1.0452    0.3203 H   0  0  0  0  0  0  0  0  0  0  0  0
   -0.6391    0.6939    0.1975 H   0  0  0  0  0  0  0  0  0  0  0  0
   -0.1814    1.4469   -2.2024 H   0  0  0  0  0  0  0  0  0  0  0  0
    0.5607   -0.1306   -2.4954 H   0  0  0  0  0  0  0  0  0  0  0  0
    1.4370    1.9149   -0.3810 H   0  0  0  0  0  0  0  0  0  0  0  0
    2.1981    0.3381   -0.6215 H   0  0  0  0  0  0  0  0  0  0  0  0
   -2.2694   -0.6589   -2.4511 N   0  0  0  0  0  0  0  0  0  0  0  0
   -3.6014   -0.7087   -3.0760 C   0  0  2  0  0  0  0  0  0  0  0  0
   -4.4219   -1.9731   -2.7275 C   0  0  0  0  0  0  0  0  0  0  0  0
   -5.5359   -2.1393   -3.2145 O   0  0  0  0  0  0  0  0  0  0  0  0
   -3.3890   -0.5909   -4.5884 C   0  0  0  0  0  0  0  0  0  0  0  0
   -1.4924   -1.1291   -2.9077 H   0  0  0  0  0  0  0  0  0  0  0  0
   -4.1894    0.1548   -2.7467 H   0  0  0  0  0  0  0  0  0  0  0  0
   -2.8319   -1.4535   -4.9667 H   0  0  0  0  0  0  0  0  0  0  0  0
   -4.3524   -0.5454   -5.1059 H   0  0  0  0  0  0  0  0  0  0  0  0
   -2.8288    0.3195   -4.8238 H   0  0  0  0  0  0  0  0  0  0  0  0
   -3.8921   -2.9695   -1.9297 N   0  0  0  0  0  0  0  0  0  0  0  0
   -4.6096   -4.1747   -1.5453 C   0  0  0  0  0  0  0  0  0  0  0  0
   -2.9606   -2.7985   -1.5397 H   0  0  0  0  0  0  0  0  0  0  0  0
   -5.5265   -3.9172   -1.0052 H   0  0  0  0  0  0  0  0  0  0  0  0
   -4.8715   -4.7626   -2.4307 H   0  0  0  0  0  0  0  0  0  0  0  0
   -3.9841   -4.7903   -0.8924 H   0  0  0  0  0  0  0  0  0  0  0  0
  1  2  2  0  0  0  0
  1  3  1  0  0  0  0
  1  7  1  0  0  0  0
  3  4  1  0  0  0  0
  3  5  1  0  0  0  0
  3  6  1  0  0  0  0
  7  8  1  0  0  0  0
  7 12  1  0  0  0  0
  8  9  1  0  0  0  0
  8 11  1  0  0  0  0
  8 13  1  0  0  0  0
  9 10  2  0  0  0  0
  9 17  1  0  0  0  0
 11 14  1  0  0  0  0
 11 15  1  0  0  0  0
 11 16  1  0  0  0  0
 17 18  1  0  0  0  0
 17 26  1  0  0  0  0
 18 19  1  0  0  0  0
 18 21  1  0  0  0  0
 18 27  1  0  0  0  0
 19 20  2  0  0  0  0
 19 32  1  0  0  0  0
 21 22  1  0  0  0  0
 21 28  1  0  0  0  0
 21 29  1  0  0  0  0
 22 23  1  0  0  0  0
 22 30  1  0  0  0  0
 22 31  1  0  0  0  0
 23 24  1  0  0  0  0
 23 25  2  0  0  0  0
 32 33  1  0  0  0  0
 32 37  1  0  0  0  0
 33 34  1  0  0  0  0
 33 36  1  0  0  0  0
 33 38  1  0  0  0  0
 34 35  2  0  0  0  0
 34 42  1  0  0  0  0
 36 39  1  0  0  0  0
 36 40  1  0  0  0  0
 36 41  1  0  0  0  0
 42 43  1  0  0  0  0
 42 44  1  0  0  0  0
 43 45  1  0  0  0  0
 43 46  1  0  0  0  0
 43 47  1  0  0  0  0
M  CHG  1  24  -1
M  END
$$$$

  -OEChem-05262216243D

 47 46  0     1  0  0  0  0  0999 V2000
    0.7596   -6.0588    1.0283 C   0  0  0  0  0  0  0  0  0  0  0  0
    1.3215   -5.8393    2.0902 O   0  0  0  0  0  0  0  0  0  0  0  0
    0.1524   -7.4231    0.7575 C   0  0  0  0  0  0  0  0  0  0  0  0
    0.5725   -7.8430   -0.1599 H   0  0  0  0  0  0  0  0  0  0  0  0
    0.3660   -8.1036    1.5865 H   0  0  0  0  0  0  0  0  0  0  0  0
   -0.9311   -7.3333    0.6447 H   0  0  0  0  0  0  0  0  0  0  0  0
    0.6581   -5.0695    0.0747 N   0  0  0  0  0  0  0  0  0  0  0  0
    1.0117   -3.6606    0.2951 C   0  0  2  0  0  0  0  0  0  0  0  0
    0.0279   -2.7184   -0.4320 C   0  0  0  0  0  0  0  0  0  0  0  0
   -0.7595   -3.1960   -1.2385 O   0  0  0  0  0  0  0  0  0  0  0  0
    2.4436   -3.4374   -0.2015 C   0  0  0  0  0  0  0  0  0  0  0  0
    0.0443   -5.2568   -0.7182 H   0  0  0  0  0  0  0  0  0  0  0  0
    0.9597   -3.4250    1.3635 H   0  0  0  0  0  0  0  0  0  0  0  0
    2.5161   -3.6538   -1.2722 H   0  0  0  0  0  0  0  0  0  0  0  0
    2.7538   -2.4010   -0.0352 H   0  0  0  0  0  0  0  0  0  0  0  0
    3.1365   -4.0933    0.3350 H   0  0  0  0  0  0  0  0  0  0  0  0
    0.0861   -1.3571   -0.1894 N   0  0  0  0  0  0  0  0  0  0  0  0
   -0.7275   -0.2425   -0.7302 C   0  0  2  0  0  0  0  0  0  0  0  0
   -2.0679   -0.5250   -1.4596 C   0  0  0  0  0  0  0  0  0  0  0  0
   -3.1029   -0.0377   -1.0151 O   0  0  0  0  0  0  0  0  0  0  0  0
    0.1963    0.5354   -1.6830 C   0  0  0  0  0  0  0  0  0  0  0  0
    1.3426    1.2331   -0.9199 C   0  0  0  0  0  0  0  0  0  0  0  0
    2.3067    2.0025   -1.8288 C   0  0  0  0  0  0  0  0  0  0  0  0
    3.3028    2.5174   -1.2661 O   0  5  0  0  0  0  0  0  0  0  0  0
    2.0766    2.0525   -3.0629 O   0  0  0  0  0  0  0  0  0  0  0  0
    0.8575   -1.0697    0.4076 H   0  0  0  0  0  0  0  0  0  0  0  0
   -0.9886    0.4104    0.1092 H   0  0  0  0  0  0  0  0  0  0  0  0
   -0.3831    1.3018   -2.2108 H   0  0  0  0  0  0  0  0  0  0  0  0
    0.6097   -0.1413   -2.4394 H   0  0  0  0  0  0  0  0  0  0  0  0
    0.9196    1.9343   -0.1949 H   0  0  0  0  0  0  0  0  0  0  0  0
    1.9282    0.4934   -0.3676 H   0  0  0  0  0  0  0  0  0  0  0  0
   -2.1480   -1.2974   -2.6026 N   0  0  0  0  0  0  0  0  0  0  0  0
   -3.4030   -1.6179   -3.2997 C   0  0  2  0  0  0  0  0  0  0  0  0
   -4.2343   -2.7125   -2.5822 C   0  0  0  0  0  0  0  0  0  0  0  0
   -4.6446   -3.7104   -3.1683 O   0  0  0  0  0  0  0  0  0  0  0  0
   -3.0284   -2.0013   -4.7361 C   0  0  0  0  0  0  0  0  0  0  0  0
   -1.3844   -1.9719   -2.6830 H   0  0  0  0  0  0  0  0  0  0  0  0
   -4.0275   -0.7199   -3.3454 H   0  0  0  0  0  0  0  0  0  0  0  0
   -2.4162   -2.9088   -4.7434 H   0  0  0  0  0  0  0  0  0  0  0  0
   -3.9302   -2.1843   -5.3283 H   0  0  0  0  0  0  0  0  0  0  0  0
   -2.4622   -1.1933   -5.2097 H   0  0  0  0  0  0  0  0  0  0  0  0
   -4.5741   -2.5345   -1.2554 N   0  0  0  0  0  0  0  0  0  0  0  0
   -5.3115   -3.5014   -0.4574 C   0  0  0  0  0  0  0  0  0  0  0  0
   -4.2087   -1.6869   -0.8133 H   0  0  0  0  0  0  0  0  0  0  0  0
   -6.2963   -3.6894   -0.8970 H   0  0  0  0  0  0  0  0  0  0  0  0
   -4.7621   -4.4466   -0.3994 H   0  0  0  0  0  0  0  0  0  0  0  0
   -5.4529   -3.1193    0.5579 H   0  0  0  0  0  0  0  0  0  0  0  0
  1  2  2  0  0  0  0
  1  3  1  0  0  0  0
  1  7  1  0  0  0  0
  3  4  1  0  0  0  0
  3  5  1  0  0  0  0
  3  6  1  0  0  0  0
  7  8  1  0  0  0  0
  7 12  1  0  0  0  0
  8  9  1  0  0  0  0
  8 11  1  0  0  0  0
  8 13  1  0  0  0  0
  9 10  2  0  0  0  0
  9 17  1  0  0  0  0
 11 14  1  0  0  0  0
 11 15  1  0  0  0  0
 11 16  1  0  0  0  0
 17 18  1  0  0  0  0
 17 26  1  0  0  0  0
 18 19  1  0  0  0  0
 18 21  1  0  0  0  0
 18 27  1  0  0  0  0
 19 20  2  0  0  0  0
 19 32  1  0  0  0  0
 21 22  1  0  0  0  0
 21 28  1  0  0  0  0
 21 29  1  0  0  0  0
 22 23  1  0  0  0  0
 22 30  1  0  0  0  0
 22 31  1  0  0  0  0
 23 24  1  0  0  0  0
 23 25  2  0  0  0  0
 32 33  1  0  0  0  0
 32 37  1  0  0  0  0
 33 34  1  0  0  0  0
 33 36  1  0  0  0  0
 33 38  1  0  0  0  0
 34 35  2  0  0  0  0
 34 42  1  0  0  0  0
 36 39  1  0  0  0  0
 36 40  1  0  0  0  0
 36 41  1  0  0  0  0
 42 43  1  0  0  0  0
 42 44  1  0  0  0  0
 43 45  1  0  0  0  0
 43 46  1  0  0  0  0
 43 47  1  0  0  0  0
M  CHG  1  24  -1
M  END
$$$$

  -OEChem-05262216243D

 47 46  0     1  0  0  0  0  0999 V2000
    1.4504   -6.0297    1.2671 C   0  0  0  0  0  0  0  0  0  0  0  0
    2.1079   -5.6795    2.2349 O   0  0  0  0  0  0  0  0  0  0  0  0
    1.0091   -7.4754    1.1324 C   0  0  0  0  0  0  0  0  0  0  0  0
    1.3827   -7.8933    0.1943 H   0  0  0  0  0  0  0  0  0  0  0  0
    1.4006   -8.0689    1.9635 H   0  0  0  0  0  0  0  0  0  0  0  0
   -0.0822   -7.5342    1.1399 H   0  0  0  0  0  0  0  0  0  0  0  0
    1.0938   -5.1164    0.2986 N   0  0  0  0  0  0  0  0  0  0  0  0
    1.3033   -3.6662    0.4035 C   0  0  2  0  0  0  0  0  0  0  0  0
    0.1547   -2.8796   -0.2647 C   0  0  0  0  0  0  0  0  0  0  0  0
   -0.6516   -3.4871   -0.9565 O   0  0  0  0  0  0  0  0  0  0  0  0
    2.6449   -3.3217   -0.2516 C   0  0  0  0  0  0  0  0  0  0  0  0
    0.4237   -5.4242   -0.4058 H   0  0  0  0  0  0  0  0  0  0  0  0
    1.3308   -3.3707    1.4579 H   0  0  0  0  0  0  0  0  0  0  0  0
    2.6332   -3.5898   -1.3130 H   0  0  0  0  0  0  0  0  0  0  0  0
    2.8536   -2.2505   -0.1669 H   0  0  0  0  0  0  0  0  0  0  0  0
    3.4567   -3.8688    0.2381 H   0  0  0  0  0  0  0  0  0  0  0  0
    0.0861   -1.5103   -0.0777 N   0  0  0  0  0  0  0  0  0  0  0  0
   -0.8133   -0.4735   -0.6414 C   0  0  2  0  0  0  0  0  0  0  0  0
   -2.1448   -0.8183   -1.3650 C   0  0  0  0  0  0  0  0  0  0  0  0
   -3.1392   -0.1426   -1.1181 O   0  0  0  0  0  0  0  0  0  0  0  0
    0.0609    0.3371   -1.6146 C   0  0  0  0  0  0  0  0  0  0  0  0
    1.1572    1.1318   -0.8715 C   0  0  0  0  0  0  0  0  0  0  0  0
    2.0704    1.9369   -1.8018 C   0  0  0  0  0  0  0  0  0  0  0  0
    2.9653    2.6165   -1.2440 O   0  5  0  0  0  0  0  0  0  0  0  0
    1.9084    1.8485   -3.0445 O   0  0  0  0  0  0  0  0  0  0  0  0
    0.8772   -1.1318    0.4377 H   0  0  0  0  0  0  0  0  0  0  0  0
   -1.1070    0.1780    0.1878 H   0  0  0  0  0  0  0  0  0  0  0  0
   -0.5641    1.0493   -2.1660 H   0  0  0  0  0  0  0  0  0  0  0  0
    0.5186   -0.3332   -2.3509 H   0  0  0  0  0  0  0  0  0  0  0  0
    0.6851    1.8233   -0.1677 H   0  0  0  0  0  0  0  0  0  0  0  0
    1.7912    0.4517   -0.2970 H   0  0  0  0  0  0  0  0  0  0  0  0
   -2.2747   -1.8182   -2.3082 N   0  0  0  0  0  0  0  0  0  0  0  0
   -3.5071   -2.1325   -3.0464 C   0  0  2  0  0  0  0  0  0  0  0  0
   -4.5496   -2.9095   -2.2025 C   0  0  0  0  0  0  0  0  0  0  0  0
   -5.0505   -3.9611   -2.5904 O   0  0  0  0  0  0  0  0  0  0  0  0
   -3.0820   -2.8897   -4.3100 C   0  0  0  0  0  0  0  0  0  0  0  0
   -1.5493   -2.5377   -2.2600 H   0  0  0  0  0  0  0  0  0  0  0  0
   -3.9829   -1.1980   -3.3605 H   0  0  0  0  0  0  0  0  0  0  0  0
   -2.6127   -3.8428   -4.0455 H   0  0  0  0  0  0  0  0  0  0  0  0
   -3.9510   -3.0926   -4.9433 H   0  0  0  0  0  0  0  0  0  0  0  0
   -2.3664   -2.2953   -4.8866 H   0  0  0  0  0  0  0  0  0  0  0  0
   -4.9787   -2.3733   -1.0044 N   0  0  0  0  0  0  0  0  0  0  0  0
   -5.9611   -2.9938   -0.1289 C   0  0  0  0  0  0  0  0  0  0  0  0
   -4.5439   -1.4872   -0.7323 H   0  0  0  0  0  0  0  0  0  0  0  0
   -6.9157   -3.1158   -0.6507 H   0  0  0  0  0  0  0  0  0  0  0  0
   -5.6104   -3.9764    0.2026 H   0  0  0  0  0  0  0  0  0  0  0  0
   -6.1257   -2.3685    0.7536 H   0  0  0  0  0  0  0  0  0  0  0  0
  1  2  2  0  0  0  0
  1  3  1  0  0  0  0
  1  7  1  0  0  0  0
  3  4  1  0  0  0  0
  3  5  1  0  0  0  0
  3  6  1  0  0  0  0
  7  8  1  0  0  0  0
  7 12  1  0  0  0  0
  8  9  1  0  0  0  0
  8 11  1  0  0  0  0
  8 13  1  0  0  0  0
  9 10  2  0  0  0  0
  9 17  1  0  0  0  0
 11 14  1  0  0  0  0
 11 15  1  0  0  0  0
 11 16  1  0  0  0  0
 17 18  1  0  0  0  0
 17 26  1  0  0  0  0
 18 19  1  0  0  0  0
 18 21  1  0  0  0  0
 18 27  1  0  0  0  0
 19 20  2  0  0  0  0
 19 32  1  0  0  0  0
 21 22  1  0  0  0  0
 21 28  1  0  0  0  0
 21 29  1  0  0  0  0
 22 23  1  0  0  0  0
 22 30  1  0  0  0  0
 22 31  1  0  0  0  0
 23 24  1  0  0  0  0
 23 25  2  0  0  0  0
 32 33  1  0  0  0  0
 32 37  1  0  0  0  0
 33 34  1  0  0  0  0
 33 36  1  0  0  0  0
 33 38  1  0  0  0  0
 34 35  2  0  0  0  0
 34 42  1  0  0  0  0
 36 39  1  0  0  0  0
 36 40  1  0  0  0  0
 36 41  1  0  0  0  0
 42 43  1  0  0  0  0
 42 44  1  0  0  0  0
 43 45  1  0  0  0  0
 43 46  1  0  0  0  0
 43 47  1  0  0  0  0
M  CHG  1  24  -1
M  END
$$$$

  -OEChem-05262216243D

 47 46  0     1  0  0  0  0  0999 V2000
    0.4211   -5.7831    0.8821 C   0  0  0  0  0  0  0  0  0  0  0  0
    1.4320   -5.9957    1.5362 O   0  0  0  0  0  0  0  0  0  0  0  0
   -0.7160   -6.7879    0.8966 C   0  0  0  0  0  0  0  0  0  0  0  0
   -0.4733   -7.6279    1.5527 H   0  0  0  0  0  0  0  0  0  0  0  0
   -1.6288   -6.3070    1.2580 H   0  0  0  0  0  0  0  0  0  0  0  0
   -0.8906   -7.1653   -0.1138 H   0  0  0  0  0  0  0  0  0  0  0  0
    0.2904   -4.6418    0.1223 N   0  0  0  0  0  0  0  0  0  0  0  0
    1.1555   -3.4555    0.2655 C   0  0  2  0  0  0  0  0  0  0  0  0
    0.3328   -2.2336    0.7382 C   0  0  0  0  0  0  0  0  0  0  0  0
   -0.7194   -2.4148    1.3379 O   0  0  0  0  0  0  0  0  0  0  0  0
    1.8322   -3.2291   -1.0902 C   0  0  0  0  0  0  0  0  0  0  0  0
   -0.6572   -4.4858   -0.2356 H   0  0  0  0  0  0  0  0  0  0  0  0
    1.9342   -3.6261    1.0160 H   0  0  0  0  0  0  0  0  0  0  0  0
    1.0835   -3.0619   -1.8708 H   0  0  0  0  0  0  0  0  0  0  0  0
    2.5041   -2.3657   -1.0557 H   0  0  0  0  0  0  0  0  0  0  0  0
    2.4241   -4.1077   -1.3652 H   0  0  0  0  0  0  0  0  0  0  0  0
    0.6746   -0.9213    0.4661 N   0  0  0  0  0  0  0  0  0  0  0  0
   -0.1303    0.0231   -0.3588 C   0  0  2  0  0  0  0  0  0  0  0  0
   -1.6134   -0.2848   -0.7242 C   0  0  0  0  0  0  0  0  0  0  0  0
   -2.3894    0.6266   -0.9849 O   0  0  0  0  0  0  0  0  0  0  0  0
    0.6519    0.2038   -1.6711 C   0  0  0  0  0  0  0  0  0  0  0  0
    1.9880    0.9336   -1.4460 C   0  0  0  0  0  0  0  0  0  0  0  0
    2.7456    1.0692   -2.7635 C   0  0  0  0  0  0  0  0  0  0  0  0
    3.2267    0.0114   -3.2404 O   0  5  0  0  0  0  0  0  0  0  0  0
    2.8444    2.2054   -3.2844 O   0  0  0  0  0  0  0  0  0  0  0  0
    1.6630   -0.8419    0.2364 H   0  0  0  0  0  0  0  0  0  0  0  0
   -0.1590    0.9794    0.1731 H   0  0  0  0  0  0  0  0  0  0  0  0
    0.0561    0.8039   -2.3690 H   0  0  0  0  0  0  0  0  0  0  0  0
    0.8248   -0.7646   -2.1493 H   0  0  0  0  0  0  0  0  0  0  0  0
    1.8009    1.9265   -1.0259 H   0  0  0  0  0  0  0  0  0  0  0  0
    2.6184    0.3850   -0.7417 H   0  0  0  0  0  0  0  0  0  0  0  0
   -2.0627   -1.5811   -0.8705 N   0  0  0  0  0  0  0  0  0  0  0  0
   -3.4086   -2.0205   -1.2251 C   0  0  2  0  0  0  0  0  0  0  0  0
   -3.5933   -3.5046   -0.8313 C   0  0  0  0  0  0  0  0  0  0  0  0
   -2.6236   -4.2547   -0.7096 O   0  0  0  0  0  0  0  0  0  0  0  0
   -3.6168   -1.8476   -2.7332 C   0  0  0  0  0  0  0  0  0  0  0  0
   -1.5036   -2.2700   -0.3670 H   0  0  0  0  0  0  0  0  0  0  0  0
   -4.1428   -1.4197   -0.6792 H   0  0  0  0  0  0  0  0  0  0  0  0
   -2.8749   -2.4296   -3.2897 H   0  0  0  0  0  0  0  0  0  0  0  0
   -4.6158   -2.1855   -3.0233 H   0  0  0  0  0  0  0  0  0  0  0  0
   -3.5138   -0.7952   -3.0155 H   0  0  0  0  0  0  0  0  0  0  0  0
   -4.8629   -4.0092   -0.6159 N   0  0  0  0  0  0  0  0  0  0  0  0
   -5.1181   -5.3752   -0.1785 C   0  0  0  0  0  0  0  0  0  0  0  0
   -5.6382   -3.3550   -0.6678 H   0  0  0  0  0  0  0  0  0  0  0  0
   -4.6883   -6.0914   -0.8865 H   0  0  0  0  0  0  0  0  0  0  0  0
   -4.6794   -5.5483    0.8098 H   0  0  0  0  0  0  0  0  0  0  0  0
   -6.1954   -5.5564   -0.1167 H   0  0  0  0  0  0  0  0  0  0  0  0
  1  2  2  0  0  0  0
  1  3  1  0  0  0  0
  1  7  1  0  0  0  0
  3  4  1  0  0  0  0
  3  5  1  0  0  0  0
  3  6  1  0  0  0  0
  7  8  1  0  0  0  0
  7 12  1  0  0  0  0
  8  9  1  0  0  0  0
  8 11  1  0  0  0  0
  8 13  1  0  0  0  0
  9 10  2  0  0  0  0
  9 17  1  0  0  0  0
 11 14  1  0  0  0  0
 11 15  1  0  0  0  0
 11 16  1  0  0  0  0
 17 18  1  0  0  0  0
 17 26  1  0  0  0  0
 18 19  1  0  0  0  0
 18 21  1  0  0  0  0
 18 27  1  0  0  0  0
 19 20  2  0  0  0  0
 19 32  1  0  0  0  0
 21 22  1  0  0  0  0
 21 28  1  0  0  0  0
 21 29  1  0  0  0  0
 22 23  1  0  0  0  0
 22 30  1  0  0  0  0
 22 31  1  0  0  0  0
 23 24  1  0  0  0  0
 23 25  2  0  0  0  0
 32 33  1  0  0  0  0
 32 37  1  0  0  0  0
 33 34  1  0  0  0  0
 33 36  1  0  0  0  0
 33 38  1  0  0  0  0
 34 35  2  0  0  0  0
 34 42  1  0  0  0  0
 36 39  1  0  0  0  0
 36 40  1  0  0  0  0
 36 41  1  0  0  0  0
 42 43  1  0  0  0  0
 42 44  1  0  0  0  0
 43 45  1  0  0  0  0
 43 46  1  0  0  0  0
 43 47  1  0  0  0  0
M  CHG  1  24  -1
M  END
$$$$

  -OEChem-05262216243D

 47 46  0     1  0  0  0  0  0999 V2000
    0.3434   -4.2495    1.3833 C   0  0  0  0  0  0  0  0  0  0  0  0
    1.3675   -3.6404    1.6548 O   0  0  0  0  0  0  0  0  0  0  0  0
   -0.6989   -4.4839    2.4583 C   0  0  0  0  0  0  0  0  0  0  0  0
   -1.5217   -5.0883    2.0682 H   0  0  0  0  0  0  0  0  0  0  0  0
   -0.2470   -5.0086    3.3038 H   0  0  0  0  0  0  0  0  0  0  0  0
   -1.0941   -3.5250    2.8018 H   0  0  0  0  0  0  0  0  0  0  0  0
    0.1262   -4.6595    0.0854 N   0  0  0  0  0  0  0  0  0  0  0  0
    1.0503   -4.3552   -1.0195 C   0  0  2  0  0  0  0  0  0  0  0  0
    0.8170   -2.9275   -1.5643 C   0  0  0  0  0  0  0  0  0  0  0  0
    0.4888   -2.7493   -2.7316 O   0  0  0  0  0  0  0  0  0  0  0  0
    0.8601   -5.4480   -2.0787 C   0  0  0  0  0  0  0  0  0  0  0  0
   -0.8362   -4.9280   -0.1455 H   0  0  0  0  0  0  0  0  0  0  0  0
    2.0870   -4.4060   -0.6697 H   0  0  0  0  0  0  0  0  0  0  0  0
   -0.1654   -5.4378   -2.4616 H   0  0  0  0  0  0  0  0  0  0  0  0
    1.5461   -5.2887   -2.9168 H   0  0  0  0  0  0  0  0  0  0  0  0
    1.0629   -6.4336   -1.6488 H   0  0  0  0  0  0  0  0  0  0  0  0
    0.8569   -1.8586   -0.6880 N   0  0  0  0  0  0  0  0  0  0  0  0
   -0.1907   -0.8248   -0.4726 C   0  0  2  0  0  0  0  0  0  0  0  0
   -1.6429   -1.0384   -0.9932 C   0  0  0  0  0  0  0  0  0  0  0  0
   -2.5701   -0.5830   -0.3279 O   0  0  0  0  0  0  0  0  0  0  0  0
    0.3388    0.4986   -1.0551 C   0  0  0  0  0  0  0  0  0  0  0  0
    1.5467    1.0379   -0.2590 C   0  0  0  0  0  0  0  0  0  0  0  0
    2.1225    2.3446   -0.8186 C   0  0  0  0  0  0  0  0  0  0  0  0
    3.1771    2.7641   -0.2808 O   0  5  0  0  0  0  0  0  0  0  0  0
    1.5187    2.9294   -1.7539 O   0  0  0  0  0  0  0  0  0  0  0  0
    1.3235   -2.1241    0.1828 H   0  0  0  0  0  0  0  0  0  0  0  0
   -0.2939   -0.7003    0.6099 H   0  0  0  0  0  0  0  0  0  0  0  0
   -0.4542    1.2549   -1.0316 H   0  0  0  0  0  0  0  0  0  0  0  0
    0.6228    0.3519   -2.1033 H   0  0  0  0  0  0  0  0  0  0  0  0
    1.2490    1.2087    0.7793 H   0  0  0  0  0  0  0  0  0  0  0  0
    2.3476    0.2935   -0.2590 H   0  0  0  0  0  0  0  0  0  0  0  0
   -1.9923   -2.0018   -1.9181 N   0  0  0  0  0  0  0  0  0  0  0  0
   -3.2454   -2.7559   -1.8829 C   0  0  2  0  0  0  0  0  0  0  0  0
   -3.3785   -3.5701   -0.5739 C   0  0  0  0  0  0  0  0  0  0  0  0
   -2.7914   -4.6403   -0.4147 O   0  0  0  0  0  0  0  0  0  0  0  0
   -3.2802   -3.6585   -3.1195 C   0  0  0  0  0  0  0  0  0  0  0  0
   -1.2115   -2.3905   -2.4513 H   0  0  0  0  0  0  0  0  0  0  0  0
   -4.0891   -2.0607   -1.9439 H   0  0  0  0  0  0  0  0  0  0  0  0
   -2.4309   -4.3493   -3.1181 H   0  0  0  0  0  0  0  0  0  0  0  0
   -4.2052   -4.2428   -3.1375 H   0  0  0  0  0  0  0  0  0  0  0  0
   -3.2336   -3.0534   -4.0303 H   0  0  0  0  0  0  0  0  0  0  0  0
   -4.1387   -3.0427    0.4523 N   0  0  0  0  0  0  0  0  0  0  0  0
   -4.2687   -3.6499    1.7694 C   0  0  0  0  0  0  0  0  0  0  0  0
   -4.2948   -2.0356    0.3766 H   0  0  0  0  0  0  0  0  0  0  0  0
   -4.3175   -4.7414    1.6975 H   0  0  0  0  0  0  0  0  0  0  0  0
   -3.4199   -3.3736    2.4005 H   0  0  0  0  0  0  0  0  0  0  0  0
   -5.1876   -3.3009    2.2502 H   0  0  0  0  0  0  0  0  0  0  0  0
  1  2  2  0  0  0  0
  1  3  1  0  0  0  0
  1  7  1  0  0  0  0
  3  4  1  0  0  0  0
  3  5  1  0  0  0  0
  3  6  1  0  0  0  0
  7  8  1  0  0  0  0
  7 12  1  0  0  0  0
  8  9  1  0  0  0  0
  8 11  1  0  0  0  0
  8 13  1  0  0  0  0
  9 10  2  0  0  0  0
  9 17  1  0  0  0  0
 11 14  1  0  0  0  0
 11 15  1  0  0  0  0
 11 16  1  0  0  0  0
 17 18  1  0  0  0  0
 17 26  1  0  0  0  0
 18 19  1  0  0  0  0
 18 21  1  0  0  0  0
 18 27  1  0  0  0  0
 19 20  2  0  0  0  0
 19 32  1  0  0  0  0
 21 22  1  0  0  0  0
 21 28  1  0  0  0  0
 21 29  1  0  0  0  0
 22 23  1  0  0  0  0
 22 30  1  0  0  0  0
 22 31  1  0  0  0  0
 23 24  1  0  0  0  0
 23 25  2  0  0  0  0
 32 33  1  0  0  0  0
 32 37  1  0  0  0  0
 33 34  1  0  0  0  0
 33 36  1  0  0  0  0
 33 38  1  0  0  0  0
 34 35  2  0  0  0  0
 34 42  1  0  0  0  0
 36 39  1  0  0  0  0
 36 40  1  0  0  0  0
 36 41  1  0  0  0  0
 42 43  1  0  0  0  0
 42 44  1  0  0  0  0
 43 45  1  0  0  0  0
 43 46  1  0  0  0  0
 43 47  1  0  0  0  0
M  CHG  1  24  -1
M  END
$$$$

  -OEChem-05262216243D

 47 46  0     1  0  0  0  0  0999 V2000
    0.5660   -5.4872    1.6629 C   0  0  0  0  0  0  0  0  0  0  0  0
    1.4809   -5.2309    2.4320 O   0  0  0  0  0  0  0  0  0  0  0  0
   -0.5730   -6.3840    2.1126 C   0  0  0  0  0  0  0  0  0  0  0  0
   -0.6546   -7.2459    1.4461 H   0  0  0  0  0  0  0  0  0  0  0  0
   -0.3963   -6.7399    3.1312 H   0  0  0  0  0  0  0  0  0  0  0  0
   -1.5140   -5.8287    2.0925 H   0  0  0  0  0  0  0  0  0  0  0  0
    0.5686   -4.9801    0.3813 N   0  0  0  0  0  0  0  0  0  0  0  0
    1.4719   -3.9189   -0.0877 C   0  0  2  0  0  0  0  0  0  0  0  0
    0.6634   -2.8391   -0.8309 C   0  0  0  0  0  0  0  0  0  0  0  0
   -0.2493   -3.1963   -1.5646 O   0  0  0  0  0  0  0  0  0  0  0  0
    2.5318   -4.5359   -1.0027 C   0  0  0  0  0  0  0  0  0  0  0  0
   -0.3019   -5.0910   -0.1413 H   0  0  0  0  0  0  0  0  0  0  0  0
    1.9705   -3.4392    0.7609 H   0  0  0  0  0  0  0  0  0  0  0  0
    2.0609   -5.0159   -1.8667 H   0  0  0  0  0  0  0  0  0  0  0  0
    3.2189   -3.7646   -1.3648 H   0  0  0  0  0  0  0  0  0  0  0  0
    3.1101   -5.2879   -0.4571 H   0  0  0  0  0  0  0  0  0  0  0  0
    0.9524   -1.4989   -0.6481 N   0  0  0  0  0  0  0  0  0  0  0  0
    0.0538   -0.3134   -0.6678 C   0  0  2  0  0  0  0  0  0  0  0  0
   -1.4973   -0.4481   -0.5706 C   0  0  0  0  0  0  0  0  0  0  0  0
   -2.1622    0.5590   -0.3536 O   0  0  0  0  0  0  0  0  0  0  0  0
    0.4228    0.4698   -1.9443 C   0  0  0  0  0  0  0  0  0  0  0  0
    1.8475    1.0627   -1.8511 C   0  0  0  0  0  0  0  0  0  0  0  0
    2.2853    1.8349   -3.1006 C   0  0  0  0  0  0  0  0  0  0  0  0
    1.5875    1.7667   -4.1433 O   0  5  0  0  0  0  0  0  0  0  0  0
    3.3598    2.4771   -3.0026 O   0  0  0  0  0  0  0  0  0  0  0  0
    1.8433   -1.3328   -0.1894 H   0  0  0  0  0  0  0  0  0  0  0  0
    0.3191    0.3007    0.1980 H   0  0  0  0  0  0  0  0  0  0  0  0
   -0.2821    1.2950   -2.0963 H   0  0  0  0  0  0  0  0  0  0  0  0
    0.3459   -0.1895   -2.8165 H   0  0  0  0  0  0  0  0  0  0  0  0
    1.8947    1.7391   -0.9928 H   0  0  0  0  0  0  0  0  0  0  0  0
    2.5718    0.2598   -1.6919 H   0  0  0  0  0  0  0  0  0  0  0  0
   -2.1628   -1.6516   -0.4606 N   0  0  0  0  0  0  0  0  0  0  0  0
   -3.5796   -1.8474   -0.1473 C   0  0  2  0  0  0  0  0  0  0  0  0
   -3.8325   -3.1904    0.5754 C   0  0  0  0  0  0  0  0  0  0  0  0
   -2.9756   -4.0702    0.6220 O   0  0  0  0  0  0  0  0  0  0  0  0
   -4.3699   -1.7802   -1.4571 C   0  0  0  0  0  0  0  0  0  0  0  0
   -1.6279   -2.4788   -0.7325 H   0  0  0  0  0  0  0  0  0  0  0  0
   -3.9193   -1.0488    0.5200 H   0  0  0  0  0  0  0  0  0  0  0  0
   -4.0477   -2.5748   -2.1378 H   0  0  0  0  0  0  0  0  0  0  0  0
   -5.4411   -1.8928   -1.2671 H   0  0  0  0  0  0  0  0  0  0  0  0
   -4.2060   -0.8154   -1.9480 H   0  0  0  0  0  0  0  0  0  0  0  0
   -5.0471   -3.4121    1.2006 N   0  0  0  0  0  0  0  0  0  0  0  0
   -5.3694   -4.6353    1.9233 C   0  0  0  0  0  0  0  0  0  0  0  0
   -5.7319   -2.6626    1.1669 H   0  0  0  0  0  0  0  0  0  0  0  0
   -5.2994   -5.5029    1.2589 H   0  0  0  0  0  0  0  0  0  0  0  0
   -4.6807   -4.7765    2.7629 H   0  0  0  0  0  0  0  0  0  0  0  0
   -6.3892   -4.5832    2.3164 H   0  0  0  0  0  0  0  0  0  0  0  0
  1  2  2  0  0  0  0
  1  3  1  0  0  0  0
  1  7  1  0  0  0  0
  3  4  1  0  0  0  0
  3  5  1  0  0  0  0
  3  6  1  0  0  0  0
  7  8  1  0  0  0  0
  7 12  1  0  0  0  0
  8  9  1  0  0  0  0
  8 11  1  0  0  0  0
  8 13  1  0  0  0  0
  9 10  2  0  0  0  0
  9 17  1  0  0  0  0
 11 14  1  0  0  0  0
 11 15  1  0  0  0  0
 11 16  1  0  0  0  0
 17 18  1  0  0  0  0
 17 26  1  0  0  0  0
 18 19  1  0  0  0  0
 18 21  1  0  0  0  0
 18 27  1  0  0  0  0
 19 20  2  0  0  0  0
 19 32  1  0  0  0  0
 21 22  1  0  0  0  0
 21 28  1  0  0  0  0
 21 29  1  0  0  0  0
 22 23  1  0  0  0  0
 22 30  1  0  0  0  0
 22 31  1  0  0  0  0
 23 24  1  0  0  0  0
 23 25  2  0  0  0  0
 32 33  1  0  0  0  0
 32 37  1  0  0  0  0
 33 34  1  0  0  0  0
 33 36  1  0  0  0  0
 33 38  1  0  0  0  0
 34 35  2  0  0  0  0
 34 42  1  0  0  0  0
 36 39  1  0  0  0  0
 36 40  1  0  0  0  0
 36 41  1  0  0  0  0
 42 43  1  0  0  0  0
 42 44  1  0  0  0  0
 43 45  1  0  0  0  0
 43 46  1  0  0  0  0
 43 47  1  0  0  0  0
M  CHG  1  24  -1
M  END
$$$$

  -OEChem-05262216243D

 47 46  0     1  0  0  0  0  0999 V2000
    0.8739   -5.3664    1.7880 C   0  0  0  0  0  0  0  0  0  0  0  0
    1.6380   -4.8355    2.5802 O   0  0  0  0  0  0  0  0  0  0  0  0
   -0.1965   -6.3188    2.2886 C   0  0  0  0  0  0  0  0  0  0  0  0
   -0.1161   -7.2784    1.7725 H   0  0  0  0  0  0  0  0  0  0  0  0
   -0.0832   -6.4850    3.3634 H   0  0  0  0  0  0  0  0  0  0  0  0
   -1.1867   -5.8939    2.1005 H   0  0  0  0  0  0  0  0  0  0  0  0
    0.9533   -5.0896    0.4391 N   0  0  0  0  0  0  0  0  0  0  0  0
    1.6269   -3.8968   -0.0948 C   0  0  2  0  0  0  0  0  0  0  0  0
    0.5766   -2.8652   -0.5499 C   0  0  0  0  0  0  0  0  0  0  0  0
   -0.4583   -3.2827   -1.0529 O   0  0  0  0  0  0  0  0  0  0  0  0
    2.5093   -4.3217   -1.2700 C   0  0  0  0  0  0  0  0  0  0  0  0
    0.1529   -5.4084   -0.1051 H   0  0  0  0  0  0  0  0  0  0  0  0
    2.2605   -3.4297    0.6661 H   0  0  0  0  0  0  0  0  0  0  0  0
    1.9039   -4.7803   -2.0585 H   0  0  0  0  0  0  0  0  0  0  0  0
    3.0271   -3.4540   -1.6916 H   0  0  0  0  0  0  0  0  0  0  0  0
    3.2590   -5.0462   -0.9380 H   0  0  0  0  0  0  0  0  0  0  0  0
    0.8305   -1.5128   -0.4097 N   0  0  0  0  0  0  0  0  0  0  0  0
   -0.0601   -0.3274   -0.5023 C   0  0  2  0  0  0  0  0  0  0  0  0
   -1.6155   -0.4505   -0.4567 C   0  0  0  0  0  0  0  0  0  0  0  0
   -2.3054    0.5527   -0.6042 O   0  0  0  0  0  0  0  0  0  0  0  0
    0.4004    0.3982   -1.7853 C   0  0  0  0  0  0  0  0  0  0  0  0
    1.8238    0.9708   -1.6251 C   0  0  0  0  0  0  0  0  0  0  0  0
    2.2859    1.6652   -2.9038 C   0  0  0  0  0  0  0  0  0  0  0  0
    2.7751    0.9377   -3.8034 O   0  5  0  0  0  0  0  0  0  0  0  0
    2.1674    2.9127   -2.9731 O   0  0  0  0  0  0  0  0  0  0  0  0
    1.7877   -1.2973   -0.1442 H   0  0  0  0  0  0  0  0  0  0  0  0
    0.1707    0.3123    0.3544 H   0  0  0  0  0  0  0  0  0  0  0  0
   -0.2748    1.2305   -2.0129 H   0  0  0  0  0  0  0  0  0  0  0  0
    0.3677   -0.2911   -2.6367 H   0  0  0  0  0  0  0  0  0  0  0  0
    1.8425    1.6874   -0.7985 H   0  0  0  0  0  0  0  0  0  0  0  0
    2.5367    0.1756   -1.3917 H   0  0  0  0  0  0  0  0  0  0  0  0
   -2.2763   -1.5873   -0.0340 N   0  0  0  0  0  0  0  0  0  0  0  0
   -3.7289   -1.7403    0.0872 C   0  0  2  0  0  0  0  0  0  0  0  0
   -4.1220   -2.8541    1.0825 C   0  0  0  0  0  0  0  0  0  0  0  0
   -3.3630   -3.7835    1.3428 O   0  0  0  0  0  0  0  0  0  0  0  0
   -4.2995   -2.0475   -1.3008 C   0  0  0  0  0  0  0  0  0  0  0  0
   -1.7255   -2.4477   -0.0759 H   0  0  0  0  0  0  0  0  0  0  0  0
   -4.1603   -0.8043    0.4556 H   0  0  0  0  0  0  0  0  0  0  0  0
   -3.8717   -2.9771   -1.6901 H   0  0  0  0  0  0  0  0  0  0  0  0
   -5.3871   -2.1545   -1.2541 H   0  0  0  0  0  0  0  0  0  0  0  0
   -4.0622   -1.2375   -1.9977 H   0  0  0  0  0  0  0  0  0  0  0  0
   -5.3656   -2.8193    1.6890 N   0  0  0  0  0  0  0  0  0  0  0  0
   -5.8130   -3.8071    2.6620 C   0  0  0  0  0  0  0  0  0  0  0  0
   -5.9644   -2.0266    1.4778 H   0  0  0  0  0  0  0  0  0  0  0  0
   -5.8608   -4.8006    2.2042 H   0  0  0  0  0  0  0  0  0  0  0  0
   -5.1262   -3.8432    3.5143 H   0  0  0  0  0  0  0  0  0  0  0  0
   -6.8095   -3.5484    3.0321 H   0  0  0  0  0  0  0  0  0  0  0  0
  1  2  2  0  0  0  0
  1  3  1  0  0  0  0
  1  7  1  0  0  0  0
  3  4  1  0  0  0  0
  3  5  1  0  0  0  0
  3  6  1  0  0  0  0
  7  8  1  0  0  0  0
  7 12  1  0  0  0  0
  8  9  1  0  0  0  0
  8 11  1  0  0  0  0
  8 13  1  0  0  0  0
  9 10  2  0  0  0  0
  9 17  1  0  0  0  0
 11 14  1  0  0  0  0
 11 15  1  0  0  0  0
 11 16  1  0  0  0  0
 17 18  1  0  0  0  0
 17 26  1  0  0  0  0
 18 19  1  0  0  0  0
 18 21  1  0  0  0  0
 18 27  1  0  0  0  0
 19 20  2  0  0  0  0
 19 32  1  0  0  0  0
 21 22  1  0  0  0  0
 21 28  1  0  0  0  0
 21 29  1  0  0  0  0
 22 23  1  0  0  0  0
 22 30  1  0  0  0  0
 22 31  1  0  0  0  0
 23 24  1  0  0  0  0
 23 25  2  0  0  0  0
 32 33  1  0  0  0  0
 32 37  1  0  0  0  0
 33 34  1  0  0  0  0
 33 36  1  0  0  0  0
 33 38  1  0  0  0  0
 34 35  2  0  0  0  0
 34 42  1  0  0  0  0
 36 39  1  0  0  0  0
 36 40  1  0  0  0  0
 36 41  1  0  0  0  0
 42 43  1  0  0  0  0
 42 44  1  0  0  0  0
 43 45  1  0  0  0  0
 43 46  1  0  0  0  0
 43 47  1  0  0  0  0
M  CHG  1  24  -1
M  END
$$$$

  -OEChem-05262216243D

 47 46  0     1  0  0  0  0  0999 V2000
    0.8069   -5.3496    1.7941 C   0  0  0  0  0  0  0  0  0  0  0  0
    1.6503   -4.8585    2.5289 O   0  0  0  0  0  0  0  0  0  0  0  0
   -0.2743   -6.2440    2.3717 C   0  0  0  0  0  0  0  0  0  0  0  0
   -0.2641   -7.2153    1.8719 H   0  0  0  0  0  0  0  0  0  0  0  0
   -0.1089   -6.3949    3.4418 H   0  0  0  0  0  0  0  0  0  0  0  0
   -1.2541   -5.7793    2.2295 H   0  0  0  0  0  0  0  0  0  0  0  0
    0.8006   -5.0714    0.4431 N   0  0  0  0  0  0  0  0  0  0  0  0
    1.4731   -3.8962   -0.1307 C   0  0  2  0  0  0  0  0  0  0  0  0
    0.4320   -2.8112   -0.4692 C   0  0  0  0  0  0  0  0  0  0  0  0
   -0.6813   -3.1729   -0.8270 O   0  0  0  0  0  0  0  0  0  0  0  0
    2.2238   -4.3304   -1.3906 C   0  0  0  0  0  0  0  0  0  0  0  0
   -0.0530   -5.3507   -0.0375 H   0  0  0  0  0  0  0  0  0  0  0  0
    2.1950   -3.4732    0.5756 H   0  0  0  0  0  0  0  0  0  0  0  0
    1.5291   -4.7445   -2.1284 H   0  0  0  0  0  0  0  0  0  0  0  0
    2.7382   -3.4755   -1.8412 H   0  0  0  0  0  0  0  0  0  0  0  0
    2.9688   -5.0928   -1.1441 H   0  0  0  0  0  0  0  0  0  0  0  0
    0.7677   -1.4737   -0.3569 N   0  0  0  0  0  0  0  0  0  0  0  0
   -0.0604   -0.2457   -0.4648 C   0  0  2  0  0  0  0  0  0  0  0  0
   -1.6171   -0.3245   -0.3990 C   0  0  0  0  0  0  0  0  0  0  0  0
   -2.3106    0.6093   -0.7881 O   0  0  0  0  0  0  0  0  0  0  0  0
    0.4249    0.4321   -1.7653 C   0  0  0  0  0  0  0  0  0  0  0  0
    1.8776    0.9322   -1.6268 C   0  0  0  0  0  0  0  0  0  0  0  0
    2.3614    1.5781   -2.9227 C   0  0  0  0  0  0  0  0  0  0  0  0
    2.7959    0.8076   -3.8146 O   0  5  0  0  0  0  0  0  0  0  0  0
    2.3153    2.8291   -3.0121 O   0  0  0  0  0  0  0  0  0  0  0  0
    1.7565   -1.3033   -0.1942 H   0  0  0  0  0  0  0  0  0  0  0  0
    0.2046    0.3999    0.3773 H   0  0  0  0  0  0  0  0  0  0  0  0
   -0.2054    1.2967   -2.0014 H   0  0  0  0  0  0  0  0  0  0  0  0
    0.3461   -0.2685   -2.6045 H   0  0  0  0  0  0  0  0  0  0  0  0
    1.9411    1.6621   -0.8140 H   0  0  0  0  0  0  0  0  0  0  0  0
    2.5507    0.1053   -1.3852 H   0  0  0  0  0  0  0  0  0  0  0  0
   -2.2578   -1.3087    0.3294 N   0  0  0  0  0  0  0  0  0  0  0  0
   -3.7117   -1.4640    0.4357 C   0  0  2  0  0  0  0  0  0  0  0  0
   -4.1109   -2.3871    1.6073 C   0  0  0  0  0  0  0  0  0  0  0  0
   -3.3762   -3.2946    1.9867 O   0  0  0  0  0  0  0  0  0  0  0  0
   -4.2434   -2.0415   -0.8812 C   0  0  0  0  0  0  0  0  0  0  0  0
   -1.7103   -2.1660    0.4286 H   0  0  0  0  0  0  0  0  0  0  0  0
   -4.1671   -0.4844    0.6117 H   0  0  0  0  0  0  0  0  0  0  0  0
   -3.7712   -3.0068   -1.0912 H   0  0  0  0  0  0  0  0  0  0  0  0
   -5.3262   -2.1857   -0.8284 H   0  0  0  0  0  0  0  0  0  0  0  0
   -4.0274   -1.3631   -1.7123 H   0  0  0  0  0  0  0  0  0  0  0  0
   -5.3341   -2.2135    2.2309 N   0  0  0  0  0  0  0  0  0  0  0  0
   -5.7814   -3.0197    3.3591 C   0  0  0  0  0  0  0  0  0  0  0  0
   -5.9083   -1.4354    1.9203 H   0  0  0  0  0  0  0  0  0  0  0  0
   -5.8271   -4.0774    3.0801 H   0  0  0  0  0  0  0  0  0  0  0  0
   -5.0959   -2.9075    4.2055 H   0  0  0  0  0  0  0  0  0  0  0  0
   -6.7793   -2.7034    3.6770 H   0  0  0  0  0  0  0  0  0  0  0  0
  1  2  2  0  0  0  0
  1  3  1  0  0  0  0
  1  7  1  0  0  0  0
  3  4  1  0  0  0  0
  3  5  1  0  0  0  0
  3  6  1  0  0  0  0
  7  8  1  0  0  0  0
  7 12  1  0  0  0  0
  8  9  1  0  0  0  0
  8 11  1  0  0  0  0
  8 13  1  0  0  0  0
  9 10  2  0  0  0  0
  9 17  1  0  0  0  0
 11 14  1  0  0  0  0
 11 15  1  0  0  0  0
 11 16  1  0  0  0  0
 17 18  1  0  0  0  0
 17 26  1  0  0  0  0
 18 19  1  0  0  0  0
 18 21  1  0  0  0  0
 18 27  1  0  0  0  0
 19 20  2  0  0  0  0
 19 32  1  0  0  0  0
 21 22  1  0  0  0  0
 21 28  1  0  0  0  0
 21 29  1  0  0  0  0
 22 23  1  0  0  0  0
 22 30  1  0  0  0  0
 22 31  1  0  0  0  0
 23 24  1  0  0  0  0
 23 25  2  0  0  0  0
 32 33  1  0  0  0  0
 32 37  1  0  0  0  0
 33 34  1  0  0  0  0
 33 36  1  0  0  0  0
 33 38  1  0  0  0  0
 34 35  2  0  0  0  0
 34 42  1  0  0  0  0
 36 39  1  0  0  0  0
 36 40  1  0  0  0  0
 36 41  1  0  0  0  0
 42 43  1  0  0  0  0
 42 44  1  0  0  0  0
 43 45  1  0  0  0  0
 43 46  1  0  0  0  0
 43 47  1  0  0  0  0
M  CHG  1  24  -1
M  END
$$$$

  -OEChem-05262216243D

 47 46  0     1  0  0  0  0  0999 V2000
    1.3698   -6.0075    1.3050 C   0  0  0  0  0  0  0  0  0  0  0  0
    2.4998   -5.8181    1.7278 O   0  0  0  0  0  0  0  0  0  0  0  0
    0.5910   -7.2327    1.7468 C   0  0  0  0  0  0  0  0  0  0  0  0
    0.3729   -7.8654    0.8833 H   0  0  0  0  0  0  0  0  0  0  0  0
    1.1731   -7.8099    2.4704 H   0  0  0  0  0  0  0  0  0  0  0  0
   -0.3494   -6.9290    2.2130 H   0  0  0  0  0  0  0  0  0  0  0  0
    0.7881   -5.1148    0.4310 N   0  0  0  0  0  0  0  0  0  0  0  0
    1.3436   -3.7971    0.0941 C   0  0  2  0  0  0  0  0  0  0  0  0
    0.2357   -2.7251    0.0170 C   0  0  0  0  0  0  0  0  0  0  0  0
   -0.9351   -3.0831    0.0261 O   0  0  0  0  0  0  0  0  0  0  0  0
    2.0738   -3.9105   -1.2475 C   0  0  0  0  0  0  0  0  0  0  0  0
   -0.2069   -5.2367    0.2446 H   0  0  0  0  0  0  0  0  0  0  0  0
    2.0539   -3.4789    0.8646 H   0  0  0  0  0  0  0  0  0  0  0  0
    1.3789   -4.2138   -2.0371 H   0  0  0  0  0  0  0  0  0  0  0  0
    2.5191   -2.9506   -1.5292 H   0  0  0  0  0  0  0  0  0  0  0  0
    2.8736   -4.6547   -1.1812 H   0  0  0  0  0  0  0  0  0  0  0  0
    0.6014   -1.3921   -0.0457 N   0  0  0  0  0  0  0  0  0  0  0  0
   -0.1934   -0.1864   -0.3813 C   0  0  2  0  0  0  0  0  0  0  0  0
   -1.7509   -0.2490   -0.3969 C   0  0  0  0  0  0  0  0  0  0  0  0
   -2.4102    0.4126   -1.1921 O   0  0  0  0  0  0  0  0  0  0  0  0
    0.3944    0.2806   -1.7321 C   0  0  0  0  0  0  0  0  0  0  0  0
    1.8470    0.7752   -1.5701 C   0  0  0  0  0  0  0  0  0  0  0  0
    2.4299    1.2099   -2.9118 C   0  0  0  0  0  0  0  0  0  0  0  0
    2.8235    0.2961   -3.6783 O   0  5  0  0  0  0  0  0  0  0  0  0
    2.5054    2.4381   -3.1560 O   0  0  0  0  0  0  0  0  0  0  0  0
    1.6057   -1.2547   -0.1331 H   0  0  0  0  0  0  0  0  0  0  0  0
    0.0324    0.5756    0.3703 H   0  0  0  0  0  0  0  0  0  0  0  0
   -0.1946    1.1125   -2.1342 H   0  0  0  0  0  0  0  0  0  0  0  0
    0.3496   -0.5341   -2.4637 H   0  0  0  0  0  0  0  0  0  0  0  0
    1.8733    1.6187   -0.8736 H   0  0  0  0  0  0  0  0  0  0  0  0
    2.4853   -0.0128   -1.1625 H   0  0  0  0  0  0  0  0  0  0  0  0
   -2.4424   -0.8738    0.6241 N   0  0  0  0  0  0  0  0  0  0  0  0
   -3.9049   -0.9892    0.6807 C   0  0  2  0  0  0  0  0  0  0  0  0
   -4.4319   -1.2475    2.1081 C   0  0  0  0  0  0  0  0  0  0  0  0
   -3.7339   -1.7817    2.9637 O   0  0  0  0  0  0  0  0  0  0  0  0
   -4.3387   -2.1285   -0.2483 C   0  0  0  0  0  0  0  0  0  0  0  0
   -1.9112   -1.6088    1.0938 H   0  0  0  0  0  0  0  0  0  0  0  0
   -4.3535   -0.0525    0.3346 H   0  0  0  0  0  0  0  0  0  0  0  0
   -3.8974   -3.0754    0.0793 H   0  0  0  0  0  0  0  0  0  0  0  0
   -5.4276   -2.2310   -0.2481 H   0  0  0  0  0  0  0  0  0  0  0  0
   -4.0116   -1.9304   -1.2738 H   0  0  0  0  0  0  0  0  0  0  0  0
   -5.7314   -0.8960    2.4301 N   0  0  0  0  0  0  0  0  0  0  0  0
   -6.3088   -1.0811    3.7548 C   0  0  0  0  0  0  0  0  0  0  0  0
   -6.2784   -0.4298    1.7124 H   0  0  0  0  0  0  0  0  0  0  0  0
   -6.2859   -2.1385    4.0386 H   0  0  0  0  0  0  0  0  0  0  0  0
   -5.7509   -0.5032    4.4989 H   0  0  0  0  0  0  0  0  0  0  0  0
   -7.3495   -0.7438    3.7632 H   0  0  0  0  0  0  0  0  0  0  0  0
  1  2  2  0  0  0  0
  1  3  1  0  0  0  0
  1  7  1  0  0  0  0
  3  4  1  0  0  0  0
  3  5  1  0  0  0  0
  3  6  1  0  0  0  0
  7  8  1  0  0  0  0
  7 12  1  0  0  0  0
  8  9  1  0  0  0  0
  8 11  1  0  0  0  0
  8 13  1  0  0  0  0
  9 10  2  0  0  0  0
  9 17  1  0  0  0  0
 11 14  1  0  0  0  0
 11 15  1  0  0  0  0
 11 16  1  0  0  0  0
 17 18  1  0  0  0  0
 17 26  1  0  0  0  0
 18 19  1  0  0  0  0
 18 21  1  0  0  0  0
 18 27  1  0  0  0  0
 19 20  2  0  0  0  0
 19 32  1  0  0  0  0
 21 22  1  0  0  0  0
 21 28  1  0  0  0  0
 21 29  1  0  0  0  0
 22 23  1  0  0  0  0
 22 30  1  0  0  0  0
 22 31  1  0  0  0  0
 23 24  1  0  0  0  0
 23 25  2  0  0  0  0
 32 33  1  0  0  0  0
 32 37  1  0  0  0  0
 33 34  1  0  0  0  0
 33 36  1  0  0  0  0
 33 38  1  0  0  0  0
 34 35  2  0  0  0  0
 34 42  1  0  0  0  0
 36 39  1  0  0  0  0
 36 40  1  0  0  0  0
 36 41  1  0  0  0  0
 42 43  1  0  0  0  0
 42 44  1  0  0  0  0
 43 45  1  0  0  0  0
 43 46  1  0  0  0  0
 43 47  1  0  0  0  0
M  CHG  1  24  -1
M  END
$$$$

  -OEChem-05262216243D

 47 46  0     1  0  0  0  0  0999 V2000
    1.1733   -6.0411    1.2455 C   0  0  0  0  0  0  0  0  0  0  0  0
    2.3249   -5.9220    1.6342 O   0  0  0  0  0  0  0  0  0  0  0  0
    0.3475   -7.2365    1.6842 C   0  0  0  0  0  0  0  0  0  0  0  0
    0.0114   -7.7987    0.8095 H   0  0  0  0  0  0  0  0  0  0  0  0
    0.9457   -7.8960    2.3192 H   0  0  0  0  0  0  0  0  0  0  0  0
   -0.5252   -6.8994    2.2491 H   0  0  0  0  0  0  0  0  0  0  0  0
    0.6087   -5.0918    0.4216 N   0  0  0  0  0  0  0  0  0  0  0  0
    1.2196   -3.7935    0.1057 C   0  0  2  0  0  0  0  0  0  0  0  0
    0.1598   -2.6712    0.0583 C   0  0  0  0  0  0  0  0  0  0  0  0
   -1.0258   -2.9719    0.1233 O   0  0  0  0  0  0  0  0  0  0  0  0
    1.9402   -3.9126   -1.2409 C   0  0  0  0  0  0  0  0  0  0  0  0
   -0.3961   -5.1592    0.2628 H   0  0  0  0  0  0  0  0  0  0  0  0
    1.9464   -3.5233    0.8791 H   0  0  0  0  0  0  0  0  0  0  0  0
    1.2293   -4.1611   -2.0355 H   0  0  0  0  0  0  0  0  0  0  0  0
    2.4345   -2.9708   -1.5010 H   0  0  0  0  0  0  0  0  0  0  0  0
    2.7014   -4.6977   -1.1942 H   0  0  0  0  0  0  0  0  0  0  0  0
    0.5798   -1.3541   -0.0124 N   0  0  0  0  0  0  0  0  0  0  0  0
   -0.1889   -0.1442   -0.3832 C   0  0  2  0  0  0  0  0  0  0  0  0
   -1.7424   -0.2214   -0.4155 C   0  0  0  0  0  0  0  0  0  0  0  0
   -2.3973    0.1730   -1.3751 O   0  0  0  0  0  0  0  0  0  0  0  0
    0.4151    0.3068   -1.7301 C   0  0  0  0  0  0  0  0  0  0  0  0
    1.8686    0.7901   -1.5536 C   0  0  0  0  0  0  0  0  0  0  0  0
    2.4694    1.2100   -2.8916 C   0  0  0  0  0  0  0  0  0  0  0  0
    2.9821    0.3017   -3.5909 O   0  5  0  0  0  0  0  0  0  0  0  0
    2.4267    2.4240   -3.2051 O   0  0  0  0  0  0  0  0  0  0  0  0
    1.5849   -1.2554   -0.1359 H   0  0  0  0  0  0  0  0  0  0  0  0
    0.0280    0.6295    0.3594 H   0  0  0  0  0  0  0  0  0  0  0  0
   -0.1676    1.1376   -2.1436 H   0  0  0  0  0  0  0  0  0  0  0  0
    0.3735   -0.5139   -2.4552 H   0  0  0  0  0  0  0  0  0  0  0  0
    1.8943    1.6394   -0.8642 H   0  0  0  0  0  0  0  0  0  0  0  0
    2.4946    0.0003   -1.1304 H   0  0  0  0  0  0  0  0  0  0  0  0
   -2.4302   -0.5487    0.7388 N   0  0  0  0  0  0  0  0  0  0  0  0
   -3.8917   -0.6449    0.8337 C   0  0  2  0  0  0  0  0  0  0  0  0
   -4.3990   -0.5115    2.2845 C   0  0  0  0  0  0  0  0  0  0  0  0
   -3.6851   -0.8041    3.2385 O   0  0  0  0  0  0  0  0  0  0  0  0
   -4.3366   -1.9892    0.2475 C   0  0  0  0  0  0  0  0  0  0  0  0
   -1.8884   -1.0522    1.4389 H   0  0  0  0  0  0  0  0  0  0  0  0
   -4.3428    0.1663    0.2531 H   0  0  0  0  0  0  0  0  0  0  0  0
   -3.8932   -2.8158    0.8116 H   0  0  0  0  0  0  0  0  0  0  0  0
   -5.4256   -2.0830    0.2860 H   0  0  0  0  0  0  0  0  0  0  0  0
   -4.0199   -2.0744   -0.7967 H   0  0  0  0  0  0  0  0  0  0  0  0
   -5.6916   -0.0788    2.5226 N   0  0  0  0  0  0  0  0  0  0  0  0
   -6.2480    0.0926    3.8583 C   0  0  0  0  0  0  0  0  0  0  0  0
   -6.2498    0.1853    1.7162 H   0  0  0  0  0  0  0  0  0  0  0  0
   -6.2364   -0.8575    4.4028 H   0  0  0  0  0  0  0  0  0  0  0  0
   -5.6680    0.8302    4.4228 H   0  0  0  0  0  0  0  0  0  0  0  0
   -7.2829    0.4417    3.7942 H   0  0  0  0  0  0  0  0  0  0  0  0
  1  2  2  0  0  0  0
  1  3  1  0  0  0  0
  1  7  1  0  0  0  0
  3  4  1  0  0  0  0
  3  5  1  0  0  0  0
  3  6  1  0  0  0  0
  7  8  1  0  0  0  0
  7 12  1  0  0  0  0
  8  9  1  0  0  0  0
  8 11  1  0  0  0  0
  8 13  1  0  0  0  0
  9 10  2  0  0  0  0
  9 17  1  0  0  0  0
 11 14  1  0  0  0  0
 11 15  1  0  0  0  0
 11 16  1  0  0  0  0
 17 18  1  0  0  0  0
 17 26  1  0  0  0  0
 18 19  1  0  0  0  0
 18 21  1  0  0  0  0
 18 27  1  0  0  0  0
 19 20  2  0  0  0  0
 19 32  1  0  0  0  0
 21 22  1  0  0  0  0
 21 28  1  0  0  0  0
 21 29  1  0  0  0  0
 22 23  1  0  0  0  0
 22 30  1  0  0  0  0
 22 31  1  0  0  0  0
 23 24  1  0  0  0  0
 23 25  2  0  0  0  0
 32 33  1  0  0  0  0
 32 37  1  0  0  0  0
 33 34  1  0  0  0  0
 33 36  1  0  0  0  0
 33 38  1  0  0  0  0
 34 35  2  0  0  0  0
 34 42  1  0  0  0  0
 36 39  1  0  0  0  0
 36 40  1  0  0  0  0
 36 41  1  0  0  0  0
 42 43  1  0  0  0  0
 42 44  1  0  0  0  0
 43 45  1  0  0  0  0
 43 46  1  0  0  0  0
 43 47  1  0  0  0  0
M  CHG  1  24  -1
M  END
$$$$

  -OEChem-05262216243D

 47 46  0     1  0  0  0  0  0999 V2000
    1.0834   -6.0540    1.2030 C   0  0  0  0  0  0  0  0  0  0  0  0
    2.2527   -5.9819    1.5480 O   0  0  0  0  0  0  0  0  0  0  0  0
    0.2338   -7.2303    1.6481 C   0  0  0  0  0  0  0  0  0  0  0  0
   -0.2109   -7.7195    0.7780 H   0  0  0  0  0  0  0  0  0  0  0  0
    0.8472   -7.9580    2.1867 H   0  0  0  0  0  0  0  0  0  0  0  0
   -0.5645   -6.8832    2.3088 H   0  0  0  0  0  0  0  0  0  0  0  0
    0.5171   -5.0665    0.4267 N   0  0  0  0  0  0  0  0  0  0  0  0
    1.1533   -3.7778    0.1230 C   0  0  2  0  0  0  0  0  0  0  0  0
    0.1221   -2.6279    0.1480 C   0  0  0  0  0  0  0  0  0  0  0  0
   -1.0651   -2.8944    0.2972 O   0  0  0  0  0  0  0  0  0  0  0  0
    1.8183   -3.8764   -1.2541 C   0  0  0  0  0  0  0  0  0  0  0  0
   -0.4965   -5.0931    0.3191 H   0  0  0  0  0  0  0  0  0  0  0  0
    1.9164   -3.5494    0.8749 H   0  0  0  0  0  0  0  0  0  0  0  0
    1.0708   -4.0846   -2.0263 H   0  0  0  0  0  0  0  0  0  0  0  0
    2.3262   -2.9402   -1.5078 H   0  0  0  0  0  0  0  0  0  0  0  0
    2.5602   -4.6809   -1.2597 H   0  0  0  0  0  0  0  0  0  0  0  0
    0.5719   -1.3215    0.0651 N   0  0  0  0  0  0  0  0  0  0  0  0
   -0.1867   -0.1194   -0.3416 C   0  0  2  0  0  0  0  0  0  0  0  0
   -1.7364   -0.2160   -0.3905 C   0  0  0  0  0  0  0  0  0  0  0  0
   -2.3669   -0.1258   -1.4393 O   0  0  0  0  0  0  0  0  0  0  0  0
    0.4187    0.3000   -1.6966 C   0  0  0  0  0  0  0  0  0  0  0  0
    1.8728    0.7841   -1.5317 C   0  0  0  0  0  0  0  0  0  0  0  0
    2.4739    1.1727   -2.8789 C   0  0  0  0  0  0  0  0  0  0  0  0
    2.9500    0.2429   -3.5758 O   0  5  0  0  0  0  0  0  0  0  0  0
    2.4680    2.3855   -3.2006 O   0  0  0  0  0  0  0  0  0  0  0  0
    1.5724   -1.2500   -0.1044 H   0  0  0  0  0  0  0  0  0  0  0  0
    0.0242    0.6738    0.3812 H   0  0  0  0  0  0  0  0  0  0  0  0
   -0.1665    1.1213   -2.1257 H   0  0  0  0  0  0  0  0  0  0  0  0
    0.3759   -0.5366   -2.4037 H   0  0  0  0  0  0  0  0  0  0  0  0
    1.9007    1.6482   -0.8612 H   0  0  0  0  0  0  0  0  0  0  0  0
    2.4962    0.0015   -1.0916 H   0  0  0  0  0  0  0  0  0  0  0  0
   -2.4475   -0.2162    0.7961 N   0  0  0  0  0  0  0  0  0  0  0  0
   -3.9101   -0.2899    0.8883 C   0  0  2  0  0  0  0  0  0  0  0  0
   -4.4406    0.2508    2.2320 C   0  0  0  0  0  0  0  0  0  0  0  0
   -3.7409    0.2405    3.2399 O   0  0  0  0  0  0  0  0  0  0  0  0
   -4.3427   -1.7482    0.7015 C   0  0  0  0  0  0  0  0  0  0  0  0
   -1.9163   -0.4026    1.6436 H   0  0  0  0  0  0  0  0  0  0  0  0
   -4.3513    0.3197    0.0929 H   0  0  0  0  0  0  0  0  0  0  0  0
   -3.9056   -2.3786    1.4823 H   0  0  0  0  0  0  0  0  0  0  0  0
   -5.4321   -1.8354    0.7492 H   0  0  0  0  0  0  0  0  0  0  0  0
   -4.0092   -2.1225   -0.2716 H   0  0  0  0  0  0  0  0  0  0  0  0
   -5.7317    0.7416    2.3145 N   0  0  0  0  0  0  0  0  0  0  0  0
   -6.3052    1.2929    3.5350 C   0  0  0  0  0  0  0  0  0  0  0  0
   -6.2753    0.7679    1.4569 H   0  0  0  0  0  0  0  0  0  0  0  0
   -6.3365    0.5312    4.3209 H   0  0  0  0  0  0  0  0  0  0  0  0
   -5.7106    2.1416    3.8889 H   0  0  0  0  0  0  0  0  0  0  0  0
   -7.3258    1.6402    3.3487 H   0  0  0  0  0  0  0  0  0  0  0  0
  1  2  2  0  0  0  0
  1  3  1  0  0  0  0
  1  7  1  0  0  0  0
  3  4  1  0  0  0  0
  3  5  1  0  0  0  0
  3  6  1  0  0  0  0
  7  8  1  0  0  0  0
  7 12  1  0  0  0  0
  8  9  1  0  0  0  0
  8 11  1  0  0  0  0
  8 13  1  0  0  0  0
  9 10  2  0  0  0  0
  9 17  1  0  0  0  0
 11 14  1  0  0  0  0
 11 15  1  0  0  0  0
 11 16  1  0  0  0  0
 17 18  1  0  0  0  0
 17 26  1  0  0  0  0
 18 19  1  0  0  0  0
 18 21  1  0  0  0  0
 18 27  1  0  0  0  0
 19 20  2  0  0  0  0
 19 32  1  0  0  0  0
 21 22  1  0  0  0  0
 21 28  1  0  0  0  0
 21 29  1  0  0  0  0
 22 23  1  0  0  0  0
 22 30  1  0  0  0  0
 22 31  1  0  0  0  0
 23 24  1  0  0  0  0
 23 25  2  0  0  0  0
 32 33  1  0  0  0  0
 32 37  1  0  0  0  0
 33 34  1  0  0  0  0
 33 36  1  0  0  0  0
 33 38  1  0  0  0  0
 34 35  2  0  0  0  0
 34 42  1  0  0  0  0
 36 39  1  0  0  0  0
 36 40  1  0  0  0  0
 36 41  1  0  0  0  0
 42 43  1  0  0  0  0
 42 44  1  0  0  0  0
 43 45  1  0  0  0  0
 43 46  1  0  0  0  0
 43 47  1  0  0  0  0
M  CHG  1  24  -1
M  END
$$$$

  -OEChem-05262216243D

 47 46  0     1  0  0  0  0  0999 V2000
    0.9849   -6.0398    1.1984 C   0  0  0  0  0  0  0  0  0  0  0  0
    2.1734   -6.0232    1.4789 O   0  0  0  0  0  0  0  0  0  0  0  0
    0.1102   -7.1834    1.6781 C   0  0  0  0  0  0  0  0  0  0  0  0
   -0.3934   -7.6496    0.8275 H   0  0  0  0  0  0  0  0  0  0  0  0
    0.7187   -7.9378    2.1846 H   0  0  0  0  0  0  0  0  0  0  0  0
   -0.6421   -6.8083    2.3765 H   0  0  0  0  0  0  0  0  0  0  0  0
    0.4200   -5.0236    0.4599 N   0  0  0  0  0  0  0  0  0  0  0  0
    1.0897   -3.7581    0.1311 C   0  0  2  0  0  0  0  0  0  0  0  0
    0.1143   -2.5670    0.2565 C   0  0  0  0  0  0  0  0  0  0  0  0
   -1.0594   -2.7855    0.5383 O   0  0  0  0  0  0  0  0  0  0  0  0
    1.6365   -3.8587   -1.2965 C   0  0  0  0  0  0  0  0  0  0  0  0
   -0.5986   -5.0028    0.4188 H   0  0  0  0  0  0  0  0  0  0  0  0
    1.9195   -3.5782    0.8230 H   0  0  0  0  0  0  0  0  0  0  0  0
    0.8199   -4.0109   -2.0096 H   0  0  0  0  0  0  0  0  0  0  0  0
    2.1711   -2.9442   -1.5737 H   0  0  0  0  0  0  0  0  0  0  0  0
    2.3317   -4.7002   -1.3763 H   0  0  0  0  0  0  0  0  0  0  0  0
    0.6006   -1.2750    0.1496 N   0  0  0  0  0  0  0  0  0  0  0  0
   -0.1490   -0.0808   -0.2959 C   0  0  2  0  0  0  0  0  0  0  0  0
   -1.6969   -0.1773   -0.3518 C   0  0  0  0  0  0  0  0  0  0  0  0
   -2.2945   -0.4017   -1.4002 O   0  0  0  0  0  0  0  0  0  0  0  0
    0.4462    0.3097   -1.6623 C   0  0  0  0  0  0  0  0  0  0  0  0
    1.9004    0.7980   -1.5192 C   0  0  0  0  0  0  0  0  0  0  0  0
    2.4877    1.1574   -2.8804 C   0  0  0  0  0  0  0  0  0  0  0  0
    3.0263    0.2275   -3.5298 O   0  5  0  0  0  0  0  0  0  0  0  0
    2.3982    2.3487   -3.2643 O   0  0  0  0  0  0  0  0  0  0  0  0
    1.5904   -1.2404   -0.0837 H   0  0  0  0  0  0  0  0  0  0  0  0
    0.0649    0.7303    0.4060 H   0  0  0  0  0  0  0  0  0  0  0  0
   -0.1478    1.1170   -2.1058 H   0  0  0  0  0  0  0  0  0  0  0  0
    0.4019   -0.5435   -2.3491 H   0  0  0  0  0  0  0  0  0  0  0  0
    1.9337    1.6778   -0.8696 H   0  0  0  0  0  0  0  0  0  0  0  0
    2.5271    0.0259   -1.0653 H   0  0  0  0  0  0  0  0  0  0  0  0
   -2.4410    0.1626    0.7636 N   0  0  0  0  0  0  0  0  0  0  0  0
   -3.9039    0.0822    0.8358 C   0  0  2  0  0  0  0  0  0  0  0  0
   -4.4854    0.9666    1.9573 C   0  0  0  0  0  0  0  0  0  0  0  0
   -3.8140    1.2598    2.9417 O   0  0  0  0  0  0  0  0  0  0  0  0
   -4.3029   -1.3801    1.0623 C   0  0  0  0  0  0  0  0  0  0  0  0
   -1.9355    0.2889    1.6373 H   0  0  0  0  0  0  0  0  0  0  0  0
   -4.3297    0.4296   -0.1112 H   0  0  0  0  0  0  0  0  0  0  0  0
   -3.8667   -1.7542    1.9940 H   0  0  0  0  0  0  0  0  0  0  0  0
   -5.3907   -1.4775    1.1204 H   0  0  0  0  0  0  0  0  0  0  0  0
   -3.9445   -2.0050    0.2379 H   0  0  0  0  0  0  0  0  0  0  0  0
   -5.7892    1.4217    1.8696 N   0  0  0  0  0  0  0  0  0  0  0  0
   -6.4123    2.2742    2.8734 C   0  0  0  0  0  0  0  0  0  0  0  0
   -6.3071    1.1909    1.0268 H   0  0  0  0  0  0  0  0  0  0  0  0
   -6.4497    1.7616    3.8402 H   0  0  0  0  0  0  0  0  0  0  0  0
   -5.8489    3.2061    2.9888 H   0  0  0  0  0  0  0  0  0  0  0  0
   -7.4349    2.5232    2.5742 H   0  0  0  0  0  0  0  0  0  0  0  0
  1  2  2  0  0  0  0
  1  3  1  0  0  0  0
  1  7  1  0  0  0  0
  3  4  1  0  0  0  0
  3  5  1  0  0  0  0
  3  6  1  0  0  0  0
  7  8  1  0  0  0  0
  7 12  1  0  0  0  0
  8  9  1  0  0  0  0
  8 11  1  0  0  0  0
  8 13  1  0  0  0  0
  9 10  2  0  0  0  0
  9 17  1  0  0  0  0
 11 14  1  0  0  0  0
 11 15  1  0  0  0  0
 11 16  1  0  0  0  0
 17 18  1  0  0  0  0
 17 26  1  0  0  0  0
 18 19  1  0  0  0  0
 18 21  1  0  0  0  0
 18 27  1  0  0  0  0
 19 20  2  0  0  0  0
 19 32  1  0  0  0  0
 21 22  1  0  0  0  0
 21 28  1  0  0  0  0
 21 29  1  0  0  0  0
 22 23  1  0  0  0  0
 22 30  1  0  0  0  0
 22 31  1  0  0  0  0
 23 24  1  0  0  0  0
 23 25  2  0  0  0  0
 32 33  1  0  0  0  0
 32 37  1  0  0  0  0
 33 34  1  0  0  0  0
 33 36  1  0  0  0  0
 33 38  1  0  0  0  0
 34 35  2  0  0  0  0
 34 42  1  0  0  0  0
 36 39  1  0  0  0  0
 36 40  1  0  0  0  0
 36 41  1  0  0  0  0
 42 43  1  0  0  0  0
 42 44  1  0  0  0  0
 43 45  1  0  0  0  0
 43 46  1  0  0  0  0
 43 47  1  0  0  0  0
M  CHG  1  24  -1
M  END
$$$$

  -OEChem-05262216243D

 47 46  0     1  0  0  0  0  0999 V2000
    0.9530   -5.9724    1.2604 C   0  0  0  0  0  0  0  0  0  0  0  0
    2.1369   -5.9510    1.5606 O   0  0  0  0  0  0  0  0  0  0  0  0
    0.0648   -7.0936    1.7684 C   0  0  0  0  0  0  0  0  0  0  0  0
   -0.4271   -7.5894    0.9282 H   0  0  0  0  0  0  0  0  0  0  0  0
    0.6612   -7.8310    2.3125 H   0  0  0  0  0  0  0  0  0  0  0  0
   -0.6967   -6.6895    2.4401 H   0  0  0  0  0  0  0  0  0  0  0  0
    0.4035   -4.9796    0.4785 N   0  0  0  0  0  0  0  0  0  0  0  0
    1.0737   -3.7112    0.1591 C   0  0  2  0  0  0  0  0  0  0  0  0
    0.1232   -2.5122    0.3679 C   0  0  0  0  0  0  0  0  0  0  0  0
   -1.0230   -2.7137    0.7569 O   0  0  0  0  0  0  0  0  0  0  0  0
    1.5546   -3.7733   -1.2945 C   0  0  0  0  0  0  0  0  0  0  0  0
   -0.6148   -4.9544    0.4378 H   0  0  0  0  0  0  0  0  0  0  0  0
    1.9375   -3.5598    0.8150 H   0  0  0  0  0  0  0  0  0  0  0  0
    0.7053   -3.8942   -1.9748 H   0  0  0  0  0  0  0  0  0  0  0  0
    2.0882   -2.8567   -1.5674 H   0  0  0  0  0  0  0  0  0  0  0  0
    2.2352   -4.6193   -1.4312 H   0  0  0  0  0  0  0  0  0  0  0  0
    0.6135   -1.2249    0.2343 N   0  0  0  0  0  0  0  0  0  0  0  0
   -0.1447   -0.0566   -0.2596 C   0  0  2  0  0  0  0  0  0  0  0  0
   -1.6893   -0.1767   -0.3354 C   0  0  0  0  0  0  0  0  0  0  0  0
   -2.2459   -0.6724   -1.3111 O   0  0  0  0  0  0  0  0  0  0  0  0
    0.4477    0.2852   -1.6392 C   0  0  0  0  0  0  0  0  0  0  0  0
    1.8968    0.7920   -1.5175 C   0  0  0  0  0  0  0  0  0  0  0  0
    2.4773    1.1013   -2.8937 C   0  0  0  0  0  0  0  0  0  0  0  0
    2.3380    2.2638   -3.3447 O   0  5  0  0  0  0  0  0  0  0  0  0
    3.0509    0.1583   -3.4921 O   0  0  0  0  0  0  0  0  0  0  0  0
    1.5931   -1.2062   -0.0391 H   0  0  0  0  0  0  0  0  0  0  0  0
    0.0570    0.7824    0.4126 H   0  0  0  0  0  0  0  0  0  0  0  0
   -0.1553    1.0679   -2.1136 H   0  0  0  0  0  0  0  0  0  0  0  0
    0.4115   -0.5948   -2.2920 H   0  0  0  0  0  0  0  0  0  0  0  0
    1.9214    1.6987   -0.9053 H   0  0  0  0  0  0  0  0  0  0  0  0
    2.5318    0.0463   -1.0320 H   0  0  0  0  0  0  0  0  0  0  0  0
   -2.4734    0.4623    0.6079 N   0  0  0  0  0  0  0  0  0  0  0  0
   -3.9392    0.4183    0.6350 C   0  0  2  0  0  0  0  0  0  0  0  0
   -4.5401    1.5613    1.4785 C   0  0  0  0  0  0  0  0  0  0  0  0
   -3.8890    2.0911    2.3734 O   0  0  0  0  0  0  0  0  0  0  0  0
   -4.3787   -0.9364    1.2022 C   0  0  0  0  0  0  0  0  0  0  0  0
   -2.0025    0.8703    1.4124 H   0  0  0  0  0  0  0  0  0  0  0  0
   -4.3208    0.5237   -0.3859 H   0  0  0  0  0  0  0  0  0  0  0  0
   -3.9894   -1.0690    2.2166 H   0  0  0  0  0  0  0  0  0  0  0  0
   -5.4699   -1.0040    1.2338 H   0  0  0  0  0  0  0  0  0  0  0  0
   -4.0011   -1.7526    0.5778 H   0  0  0  0  0  0  0  0  0  0  0  0
   -5.8363    1.9850    1.2448 N   0  0  0  0  0  0  0  0  0  0  0  0
   -6.4761    3.0621    1.9886 C   0  0  0  0  0  0  0  0  0  0  0  0
   -6.3392    1.5456    0.4792 H   0  0  0  0  0  0  0  0  0  0  0  0
   -6.5877    2.7855    3.0420 H   0  0  0  0  0  0  0  0  0  0  0  0
   -5.8808    3.9790    1.9255 H   0  0  0  0  0  0  0  0  0  0  0  0
   -7.4687    3.2664    1.5768 H   0  0  0  0  0  0  0  0  0  0  0  0
  1  2  2  0  0  0  0
  1  3  1  0  0  0  0
  1  7  1  0  0  0  0
  3  4  1  0  0  0  0
  3  5  1  0  0  0  0
  3  6  1  0  0  0  0
  7  8  1  0  0  0  0
  7 12  1  0  0  0  0
  8  9  1  0  0  0  0
  8 11  1  0  0  0  0
  8 13  1  0  0  0  0
  9 10  2  0  0  0  0
  9 17  1  0  0  0  0
 11 14  1  0  0  0  0
 11 15  1  0  0  0  0
 11 16  1  0  0  0  0
 17 18  1  0  0  0  0
 17 26  1  0  0  0  0
 18 19  1  0  0  0  0
 18 21  1  0  0  0  0
 18 27  1  0  0  0  0
 19 20  2  0  0  0  0
 19 32  1  0  0  0  0
 21 22  1  0  0  0  0
 21 28  1  0  0  0  0
 21 29  1  0  0  0  0
 22 23  1  0  0  0  0
 22 30  1  0  0  0  0
 22 31  1  0  0  0  0
 23 24  1  0  0  0  0
 23 25  2  0  0  0  0
 32 33  1  0  0  0  0
 32 37  1  0  0  0  0
 33 34  1  0  0  0  0
 33 36  1  0  0  0  0
 33 38  1  0  0  0  0
 34 35  2  0  0  0  0
 34 42  1  0  0  0  0
 36 39  1  0  0  0  0
 36 40  1  0  0  0  0
 36 41  1  0  0  0  0
 42 43  1  0  0  0  0
 42 44  1  0  0  0  0
 43 45  1  0  0  0  0
 43 46  1  0  0  0  0
 43 47  1  0  0  0  0
M  CHG  1  24  -1
M  END
$$$$

  -OEChem-05262216243D

 47 46  0     1  0  0  0  0  0999 V2000
    1.0014   -6.0170    1.1568 C   0  0  0  0  0  0  0  0  0  0  0  0
    2.2166   -6.0512    1.2757 O   0  0  0  0  0  0  0  0  0  0  0  0
    0.1575   -7.1607    1.6890 C   0  0  0  0  0  0  0  0  0  0  0  0
   -0.4362   -7.5926    0.8798 H   0  0  0  0  0  0  0  0  0  0  0  0
    0.7988   -7.9394    2.1109 H   0  0  0  0  0  0  0  0  0  0  0  0
   -0.5150   -6.7961    2.4694 H   0  0  0  0  0  0  0  0  0  0  0  0
    0.3810   -4.9430    0.5577 N   0  0  0  0  0  0  0  0  0  0  0  0
    1.0487   -3.6785    0.2218 C   0  0  2  0  0  0  0  0  0  0  0  0
    0.1403   -2.4717    0.5429 C   0  0  0  0  0  0  0  0  0  0  0  0
   -0.9491   -2.6582    1.0772 O   0  0  0  0  0  0  0  0  0  0  0  0
    1.4115   -3.7023   -1.2668 C   0  0  0  0  0  0  0  0  0  0  0  0
   -0.6316   -4.8870    0.6632 H   0  0  0  0  0  0  0  0  0  0  0  0
    1.9638   -3.5655    0.8125 H   0  0  0  0  0  0  0  0  0  0  0  0
    0.5072   -3.7659   -1.8806 H   0  0  0  0  0  0  0  0  0  0  0  0
    1.9577   -2.7960   -1.5483 H   0  0  0  0  0  0  0  0  0  0  0  0
    2.0458   -4.5662   -1.4882 H   0  0  0  0  0  0  0  0  0  0  0  0
    0.6216   -1.1855    0.3775 N   0  0  0  0  0  0  0  0  0  0  0  0
   -0.1664   -0.0516   -0.1475 C   0  0  2  0  0  0  0  0  0  0  0  0
   -1.7082   -0.2024   -0.2176 C   0  0  0  0  0  0  0  0  0  0  0  0
   -2.2360   -0.9106   -1.0707 O   0  0  0  0  0  0  0  0  0  0  0  0
    0.3971    0.2584   -1.5451 C   0  0  0  0  0  0  0  0  0  0  0  0
    1.8349    0.8010   -1.4628 C   0  0  0  0  0  0  0  0  0  0  0  0
    2.3820    1.0769   -2.8595 C   0  0  0  0  0  0  0  0  0  0  0  0
    2.2190    2.2244   -3.3400 O   0  5  0  0  0  0  0  0  0  0  0  0
    2.9440    0.1205   -3.4472 O   0  0  0  0  0  0  0  0  0  0  0  0
    1.5827   -1.1756    0.0446 H   0  0  0  0  0  0  0  0  0  0  0  0
    0.0244    0.8107    0.4974 H   0  0  0  0  0  0  0  0  0  0  0  0
   -0.2309    1.0117   -2.0346 H   0  0  0  0  0  0  0  0  0  0  0  0
    0.3715   -0.6423   -2.1693 H   0  0  0  0  0  0  0  0  0  0  0  0
    1.8498    1.7265   -0.8796 H   0  0  0  0  0  0  0  0  0  0  0  0
    2.4944    0.0846   -0.9660 H   0  0  0  0  0  0  0  0  0  0  0  0
   -2.5173    0.6708    0.4870 N   0  0  0  0  0  0  0  0  0  0  0  0
   -3.9805    0.7117    0.3922 C   0  0  2  0  0  0  0  0  0  0  0  0
   -4.5520    2.0636    0.8650 C   0  0  0  0  0  0  0  0  0  0  0  0
   -3.9298    2.7631    1.6581 O   0  0  0  0  0  0  0  0  0  0  0  0
   -4.5592   -0.4304    1.2351 C   0  0  0  0  0  0  0  0  0  0  0  0
   -2.0708    1.3109    1.1404 H   0  0  0  0  0  0  0  0  0  0  0  0
   -4.2772    0.5753   -0.6529 H   0  0  0  0  0  0  0  0  0  0  0  0
   -4.2701   -0.3146    2.2845 H   0  0  0  0  0  0  0  0  0  0  0  0
   -5.6511   -0.4396    1.1715 H   0  0  0  0  0  0  0  0  0  0  0  0
   -4.1857   -1.3955    0.8774 H   0  0  0  0  0  0  0  0  0  0  0  0
   -5.7832    2.4944    0.4037 N   0  0  0  0  0  0  0  0  0  0  0  0
   -6.3671    3.7803    0.7621 C   0  0  0  0  0  0  0  0  0  0  0  0
   -6.2411    1.9241   -0.3014 H   0  0  0  0  0  0  0  0  0  0  0  0
   -6.4892    3.8571    1.8476 H   0  0  0  0  0  0  0  0  0  0  0  0
   -5.7266    4.5999    0.4200 H   0  0  0  0  0  0  0  0  0  0  0  0
   -7.3509    3.8909    0.2964 H   0  0  0  0  0  0  0  0  0  0  0  0
  1  2  2  0  0  0  0
  1  3  1  0  0  0  0
  1  7  1  0  0  0  0
  3  4  1  0  0  0  0
  3  5  1  0  0  0  0
  3  6  1  0  0  0  0
  7  8  1  0  0  0  0
  7 12  1  0  0  0  0
  8  9  1  0  0  0  0
  8 11  1  0  0  0  0
  8 13  1  0  0  0  0
  9 10  2  0  0  0  0
  9 17  1  0  0  0  0
 11 14  1  0  0  0  0
 11 15  1  0  0  0  0
 11 16  1  0  0  0  0
 17 18  1  0  0  0  0
 17 26  1  0  0  0  0
 18 19  1  0  0  0  0
 18 21  1  0  0  0  0
 18 27  1  0  0  0  0
 19 20  2  0  0  0  0
 19 32  1  0  0  0  0
 21 22  1  0  0  0  0
 21 28  1  0  0  0  0
 21 29  1  0  0  0  0
 22 23  1  0  0  0  0
 22 30  1  0  0  0  0
 22 31  1  0  0  0  0
 23 24  1  0  0  0  0
 23 25  2  0  0  0  0
 32 33  1  0  0  0  0
 32 37  1  0  0  0  0
 33 34  1  0  0  0  0
 33 36  1  0  0  0  0
 33 38  1  0  0  0  0
 34 35  2  0  0  0  0
 34 42  1  0  0  0  0
 36 39  1  0  0  0  0
 36 40  1  0  0  0  0
 36 41  1  0  0  0  0
 42 43  1  0  0  0  0
 42 44  1  0  0  0  0
 43 45  1  0  0  0  0
 43 46  1  0  0  0  0
 43 47  1  0  0  0  0
M  CHG  1  24  -1
M  END
$$$$

  -OEChem-05262216243D

 47 46  0     1  0  0  0  0  0999 V2000
    1.0042   -5.9989    1.1358 C   0  0  0  0  0  0  0  0  0  0  0  0
    2.2243   -6.0531    1.1574 O   0  0  0  0  0  0  0  0  0  0  0  0
    0.1872   -7.1355    1.7225 C   0  0  0  0  0  0  0  0  0  0  0  0
   -0.4735   -7.5520    0.9583 H   0  0  0  0  0  0  0  0  0  0  0  0
    0.8476   -7.9270    2.0876 H   0  0  0  0  0  0  0  0  0  0  0  0
   -0.4172   -6.7676    2.5555 H   0  0  0  0  0  0  0  0  0  0  0  0
    0.3545   -4.9096    0.5984 N   0  0  0  0  0  0  0  0  0  0  0  0
    1.0121   -3.6487    0.2305 C   0  0  2  0  0  0  0  0  0  0  0  0
    0.1433   -2.4378    0.6355 C   0  0  0  0  0  0  0  0  0  0  0  0
   -0.8887   -2.6172    1.2761 O   0  0  0  0  0  0  0  0  0  0  0  0
    1.2637   -3.6559   -1.2807 C   0  0  0  0  0  0  0  0  0  0  0  0
   -0.6450   -4.8394    0.7880 H   0  0  0  0  0  0  0  0  0  0  0  0
    1.9697   -3.5544    0.7531 H   0  0  0  0  0  0  0  0  0  0  0  0
    0.3156   -3.6956   -1.8271 H   0  0  0  0  0  0  0  0  0  0  0  0
    1.8036   -2.7543   -1.5882 H   0  0  0  0  0  0  0  0  0  0  0  0
    1.8651   -4.5264   -1.5604 H   0  0  0  0  0  0  0  0  0  0  0  0
    0.6156   -1.1506    0.4585 N   0  0  0  0  0  0  0  0  0  0  0  0
   -0.1930   -0.0354   -0.0759 C   0  0  2  0  0  0  0  0  0  0  0  0
   -1.7341   -0.1978   -0.1449 C   0  0  0  0  0  0  0  0  0  0  0  0
   -2.2480   -1.0556   -0.8577 O   0  0  0  0  0  0  0  0  0  0  0  0
    0.3518    0.2672   -1.4818 C   0  0  0  0  0  0  0  0  0  0  0  0
    1.7812    0.8334   -1.4228 C   0  0  0  0  0  0  0  0  0  0  0  0
    2.3039    1.0996   -2.8307 C   0  0  0  0  0  0  0  0  0  0  0  0
    2.0261    2.2020   -3.3615 O   0  5  0  0  0  0  0  0  0  0  0  0
    2.9540    0.1767   -3.3796 O   0  0  0  0  0  0  0  0  0  0  0  0
    1.5633   -1.1438    0.0892 H   0  0  0  0  0  0  0  0  0  0  0  0
   -0.0102    0.8340    0.5617 H   0  0  0  0  0  0  0  0  0  0  0  0
   -0.2922    1.0047   -1.9745 H   0  0  0  0  0  0  0  0  0  0  0  0
    0.3339   -0.6410   -2.0950 H   0  0  0  0  0  0  0  0  0  0  0  0
    1.7886    1.7672   -0.8526 H   0  0  0  0  0  0  0  0  0  0  0  0
    2.4574    0.1337   -0.9241 H   0  0  0  0  0  0  0  0  0  0  0  0
   -2.5442    0.8391    0.2828 N   0  0  0  0  0  0  0  0  0  0  0  0
   -3.9905    0.9247    0.0507 C   0  0  2  0  0  0  0  0  0  0  0  0
   -4.5026    2.3752    0.1606 C   0  0  0  0  0  0  0  0  0  0  0  0
   -3.8983    3.2003    0.8383 O   0  0  0  0  0  0  0  0  0  0  0  0
   -4.7070    0.0346    1.0715 C   0  0  0  0  0  0  0  0  0  0  0  0
   -2.0991    1.6279    0.7483 H   0  0  0  0  0  0  0  0  0  0  0  0
   -4.2162    0.5694   -0.9601 H   0  0  0  0  0  0  0  0  0  0  0  0
   -4.4908    0.3721    2.0903 H   0  0  0  0  0  0  0  0  0  0  0  0
   -5.7891    0.0660    0.9141 H   0  0  0  0  0  0  0  0  0  0  0  0
   -4.3743   -1.0037    0.9719 H   0  0  0  0  0  0  0  0  0  0  0  0
   -5.6590    2.7547   -0.4971 N   0  0  0  0  0  0  0  0  0  0  0  0
   -6.1664    4.1206   -0.4975 C   0  0  0  0  0  0  0  0  0  0  0  0
   -6.0931    2.0681   -1.1070 H   0  0  0  0  0  0  0  0  0  0  0  0
   -6.3807    4.4506    0.5245 H   0  0  0  0  0  0  0  0  0  0  0  0
   -5.4326    4.8012   -0.9422 H   0  0  0  0  0  0  0  0  0  0  0  0
   -7.0910    4.1792   -1.0798 H   0  0  0  0  0  0  0  0  0  0  0  0
  1  2  2  0  0  0  0
  1  3  1  0  0  0  0
  1  7  1  0  0  0  0
  3  4  1  0  0  0  0
  3  5  1  0  0  0  0
  3  6  1  0  0  0  0
  7  8  1  0  0  0  0
  7 12  1  0  0  0  0
  8  9  1  0  0  0  0
  8 11  1  0  0  0  0
  8 13  1  0  0  0  0
  9 10  2  0  0  0  0
  9 17  1  0  0  0  0
 11 14  1  0  0  0  0
 11 15  1  0  0  0  0
 11 16  1  0  0  0  0
 17 18  1  0  0  0  0
 17 26  1  0  0  0  0
 18 19  1  0  0  0  0
 18 21  1  0  0  0  0
 18 27  1  0  0  0  0
 19 20  2  0  0  0  0
 19 32  1  0  0  0  0
 21 22  1  0  0  0  0
 21 28  1  0  0  0  0
 21 29  1  0  0  0  0
 22 23  1  0  0  0  0
 22 30  1  0  0  0  0
 22 31  1  0  0  0  0
 23 24  1  0  0  0  0
 23 25  2  0  0  0  0
 32 33  1  0  0  0  0
 32 37  1  0  0  0  0
 33 34  1  0  0  0  0
 33 36  1  0  0  0  0
 33 38  1  0  0  0  0
 34 35  2  0  0  0  0
 34 42  1  0  0  0  0
 36 39  1  0  0  0  0
 36 40  1  0  0  0  0
 36 41  1  0  0  0  0
 42 43  1  0  0  0  0
 42 44  1  0  0  0  0
 43 45  1  0  0  0  0
 43 46  1  0  0  0  0
 43 47  1  0  0  0  0
M  CHG  1  24  -1
M  END
$$$$

  -OEChem-05262216243D

 47 46  0     1  0  0  0  0  0999 V2000
    1.0195   -5.9677    1.1180 C   0  0  0  0  0  0  0  0  0  0  0  0
    2.2380   -6.0250    1.0557 O   0  0  0  0  0  0  0  0  0  0  0  0
    0.2431   -7.1029    1.7603 C   0  0  0  0  0  0  0  0  0  0  0  0
   -0.4818   -7.5075    1.0496 H   0  0  0  0  0  0  0  0  0  0  0  0
    0.9242   -7.9030    2.0636 H   0  0  0  0  0  0  0  0  0  0  0  0
   -0.2877   -6.7372    2.6429 H   0  0  0  0  0  0  0  0  0  0  0  0
    0.3364   -4.8759    0.6291 N   0  0  0  0  0  0  0  0  0  0  0  0
    0.9676   -3.6122    0.2262 C   0  0  2  0  0  0  0  0  0  0  0  0
    0.1201   -2.4065    0.6889 C   0  0  0  0  0  0  0  0  0  0  0  0
   -0.8585   -2.5909    1.4071 O   0  0  0  0  0  0  0  0  0  0  0  0
    1.1277   -3.6122   -1.2974 C   0  0  0  0  0  0  0  0  0  0  0  0
   -0.6475   -4.8057    0.8875 H   0  0  0  0  0  0  0  0  0  0  0  0
    1.9546   -3.5178    0.6907 H   0  0  0  0  0  0  0  0  0  0  0  0
    0.1478   -3.6418   -1.7851 H   0  0  0  0  0  0  0  0  0  0  0  0
    1.6551   -2.7130   -1.6322 H   0  0  0  0  0  0  0  0  0  0  0  0
    1.7046   -4.4853   -1.6178 H   0  0  0  0  0  0  0  0  0  0  0  0
    0.5795   -1.1156    0.5094 N   0  0  0  0  0  0  0  0  0  0  0  0
   -0.2401   -0.0062   -0.0231 C   0  0  2  0  0  0  0  0  0  0  0  0
   -1.7830   -0.1567   -0.0988 C   0  0  0  0  0  0  0  0  0  0  0  0
   -2.3040   -1.1224   -0.6490 O   0  0  0  0  0  0  0  0  0  0  0  0
    0.2988    0.2854   -1.4337 C   0  0  0  0  0  0  0  0  0  0  0  0
    1.7270    0.8555   -1.3872 C   0  0  0  0  0  0  0  0  0  0  0  0
    2.2382    1.1082   -2.8015 C   0  0  0  0  0  0  0  0  0  0  0  0
    2.0641    2.2478   -3.2956 O   0  5  0  0  0  0  0  0  0  0  0  0
    2.7652    0.1361   -3.3954 O   0  0  0  0  0  0  0  0  0  0  0  0
    1.5175   -1.1071    0.1164 H   0  0  0  0  0  0  0  0  0  0  0  0
   -0.0565    0.8650    0.6121 H   0  0  0  0  0  0  0  0  0  0  0  0
   -0.3469    1.0175   -1.9321 H   0  0  0  0  0  0  0  0  0  0  0  0
    0.2787   -0.6283   -2.0386 H   0  0  0  0  0  0  0  0  0  0  0  0
    1.7354    1.7944   -0.8253 H   0  0  0  0  0  0  0  0  0  0  0  0
    2.4098    0.1631   -0.8876 H   0  0  0  0  0  0  0  0  0  0  0  0
   -2.5669    0.9775    0.0266 N   0  0  0  0  0  0  0  0  0  0  0  0
   -3.9857    1.0632   -0.3402 C   0  0  2  0  0  0  0  0  0  0  0  0
   -4.4274    2.5188   -0.5913 C   0  0  0  0  0  0  0  0  0  0  0  0
   -3.8535    3.4484   -0.0336 O   0  0  0  0  0  0  0  0  0  0  0  0
   -4.8258    0.4479    0.7839 C   0  0  0  0  0  0  0  0  0  0  0  0
   -2.1052    1.8433    0.3009 H   0  0  0  0  0  0  0  0  0  0  0  0
   -4.1540    0.5037   -1.2663 H   0  0  0  0  0  0  0  0  0  0  0  0
   -4.6654    0.9907    1.7207 H   0  0  0  0  0  0  0  0  0  0  0  0
   -5.8898    0.4891    0.5335 H   0  0  0  0  0  0  0  0  0  0  0  0
   -4.5488   -0.5999    0.9376 H   0  0  0  0  0  0  0  0  0  0  0  0
   -5.4891    2.7849   -1.4371 N   0  0  0  0  0  0  0  0  0  0  0  0
   -5.9158    4.1347   -1.7809 C   0  0  0  0  0  0  0  0  0  0  0  0
   -5.8883    1.9988   -1.9415 H   0  0  0  0  0  0  0  0  0  0  0  0
   -6.1965    4.6891   -0.8794 H   0  0  0  0  0  0  0  0  0  0  0  0
   -5.1090    4.6725   -2.2896 H   0  0  0  0  0  0  0  0  0  0  0  0
   -6.7829    4.0989   -2.4471 H   0  0  0  0  0  0  0  0  0  0  0  0
  1  2  2  0  0  0  0
  1  3  1  0  0  0  0
  1  7  1  0  0  0  0
  3  4  1  0  0  0  0
  3  5  1  0  0  0  0
  3  6  1  0  0  0  0
  7  8  1  0  0  0  0
  7 12  1  0  0  0  0
  8  9  1  0  0  0  0
  8 11  1  0  0  0  0
  8 13  1  0  0  0  0
  9 10  2  0  0  0  0
  9 17  1  0  0  0  0
 11 14  1  0  0  0  0
 11 15  1  0  0  0  0
 11 16  1  0  0  0  0
 17 18  1  0  0  0  0
 17 26  1  0  0  0  0
 18 19  1  0  0  0  0
 18 21  1  0  0  0  0
 18 27  1  0  0  0  0
 19 20  2  0  0  0  0
 19 32  1  0  0  0  0
 21 22  1  0  0  0  0
 21 28  1  0  0  0  0
 21 29  1  0  0  0  0
 22 23  1  0  0  0  0
 22 30  1  0  0  0  0
 22 31  1  0  0  0  0
 23 24  1  0  0  0  0
 23 25  2  0  0  0  0
 32 33  1  0  0  0  0
 32 37  1  0  0  0  0
 33 34  1  0  0  0  0
 33 36  1  0  0  0  0
 33 38  1  0  0  0  0
 34 35  2  0  0  0  0
 34 42  1  0  0  0  0
 36 39  1  0  0  0  0
 36 40  1  0  0  0  0
 36 41  1  0  0  0  0
 42 43  1  0  0  0  0
 42 44  1  0  0  0  0
 43 45  1  0  0  0  0
 43 46  1  0  0  0  0
 43 47  1  0  0  0  0
M  CHG  1  24  -1
M  END
$$$$

  -OEChem-05262216243D

 47 46  0     1  0  0  0  0  0999 V2000
    0.0817   -5.7696    1.5062 C   0  0  0  0  0  0  0  0  0  0  0  0
    0.7725   -5.5813    2.4966 O   0  0  0  0  0  0  0  0  0  0  0  0
   -0.9231   -6.9069    1.4874 C   0  0  0  0  0  0  0  0  0  0  0  0
   -0.6962   -7.5912    0.6663 H   0  0  0  0  0  0  0  0  0  0  0  0
   -0.8853   -7.4608    2.4292 H   0  0  0  0  0  0  0  0  0  0  0  0
   -1.9321   -6.5092    1.3525 H   0  0  0  0  0  0  0  0  0  0  0  0
    0.2040   -4.9551    0.4023 N   0  0  0  0  0  0  0  0  0  0  0  0
    0.9550   -3.6947    0.3757 C   0  0  2  0  0  0  0  0  0  0  0  0
    0.2301   -2.6510   -0.5004 C   0  0  0  0  0  0  0  0  0  0  0  0
   -0.5833   -3.0405   -1.3312 O   0  0  0  0  0  0  0  0  0  0  0  0
    2.3616   -3.9776   -0.1603 C   0  0  0  0  0  0  0  0  0  0  0  0
   -0.4980   -5.0595   -0.3314 H   0  0  0  0  0  0  0  0  0  0  0  0
    1.0271   -3.2812    1.3870 H   0  0  0  0  0  0  0  0  0  0  0  0
    2.3092   -4.3719   -1.1803 H   0  0  0  0  0  0  0  0  0  0  0  0
    2.9614   -3.0624   -0.1717 H   0  0  0  0  0  0  0  0  0  0  0  0
    2.8671   -4.7130    0.4732 H   0  0  0  0  0  0  0  0  0  0  0  0
    0.6431   -1.3306   -0.4760 N   0  0  0  0  0  0  0  0  0  0  0  0
   -0.1704   -0.1162   -0.7165 C   0  0  2  0  0  0  0  0  0  0  0  0
   -1.7262   -0.1630   -0.6948 C   0  0  0  0  0  0  0  0  0  0  0  0
   -2.3663   -1.1299   -0.2996 O   0  0  0  0  0  0  0  0  0  0  0  0
    0.3179    0.4833   -2.0485 C   0  0  0  0  0  0  0  0  0  0  0  0
    1.7615    1.0122   -1.9268 C   0  0  0  0  0  0  0  0  0  0  0  0
    2.2679    1.5888   -3.2489 C   0  0  0  0  0  0  0  0  0  0  0  0
    1.5637    2.4651   -3.8086 O   0  5  0  0  0  0  0  0  0  0  0  0
    3.3761    1.1800   -3.6731 O   0  0  0  0  0  0  0  0  0  0  0  0
    1.4854   -1.1748    0.0669 H   0  0  0  0  0  0  0  0  0  0  0  0
    0.0823    0.5882    0.0816 H   0  0  0  0  0  0  0  0  0  0  0  0
   -0.3301    1.3124   -2.3527 H   0  0  0  0  0  0  0  0  0  0  0  0
    0.2668   -0.2772   -2.8361 H   0  0  0  0  0  0  0  0  0  0  0  0
    1.8012    1.7975   -1.1668 H   0  0  0  0  0  0  0  0  0  0  0  0
    2.4332    0.2075   -1.6144 H   0  0  0  0  0  0  0  0  0  0  0  0
   -2.4015    1.0454   -0.6164 N   0  0  0  0  0  0  0  0  0  0  0  0
   -3.8476    1.1829   -0.3912 C   0  0  2  0  0  0  0  0  0  0  0  0
   -4.4354    2.4068   -1.1196 C   0  0  0  0  0  0  0  0  0  0  0  0
   -3.8241    3.4684   -1.1396 O   0  0  0  0  0  0  0  0  0  0  0  0
   -4.0993    1.2963    1.1152 C   0  0  0  0  0  0  0  0  0  0  0  0
   -1.8908    1.8825   -0.8975 H   0  0  0  0  0  0  0  0  0  0  0  0
   -4.3634    0.2964   -0.7744 H   0  0  0  0  0  0  0  0  0  0  0  0
   -3.5896    2.1752    1.5226 H   0  0  0  0  0  0  0  0  0  0  0  0
   -5.1706    1.3884    1.3173 H   0  0  0  0  0  0  0  0  0  0  0  0
   -3.7251    0.4063    1.6306 H   0  0  0  0  0  0  0  0  0  0  0  0
   -5.6774    2.3264   -1.7239 N   0  0  0  0  0  0  0  0  0  0  0  0
   -6.2672    3.4243   -2.4787 C   0  0  0  0  0  0  0  0  0  0  0  0
   -6.1153    1.4107   -1.7646 H   0  0  0  0  0  0  0  0  0  0  0  0
   -6.3783    4.3088   -1.8430 H   0  0  0  0  0  0  0  0  0  0  0  0
   -5.6362    3.6825   -3.3357 H   0  0  0  0  0  0  0  0  0  0  0  0
   -7.2565    3.1394   -2.8488 H   0  0  0  0  0  0  0  0  0  0  0  0
  1  2  2  0  0  0  0
  1  3  1  0  0  0  0
  1  7  1  0  0  0  0
  3  4  1  0  0  0  0
  3  5  1  0  0  0  0
  3  6  1  0  0  0  0
  7  8  1  0  0  0  0
  7 12  1  0  0  0  0
  8  9  1  0  0  0  0
  8 11  1  0  0  0  0
  8 13  1  0  0  0  0
  9 10  2  0  0  0  0
  9 17  1  0  0  0  0
 11 14  1  0  0  0  0
 11 15  1  0  0  0  0
 11 16  1  0  0  0  0
 17 18  1  0  0  0  0
 17 26  1  0  0  0  0
 18 19  1  0  0  0  0
 18 21  1  0  0  0  0
 18 27  1  0  0  0  0
 19 20  2  0  0  0  0
 19 32  1  0  0  0  0
 21 22  1  0  0  0  0
 21 28  1  0  0  0  0
 21 29  1  0  0  0  0
 22 23  1  0  0  0  0
 22 30  1  0  0  0  0
 22 31  1  0  0  0  0
 23 24  1  0  0  0  0
 23 25  2  0  0  0  0
 32 33  1  0  0  0  0
 32 37  1  0  0  0  0
 33 34  1  0  0  0  0
 33 36  1  0  0  0  0
 33 38  1  0  0  0  0
 34 35  2  0  0  0  0
 34 42  1  0  0  0  0
 36 39  1  0  0  0  0
 36 40  1  0  0  0  0
 36 41  1  0  0  0  0
 42 43  1  0  0  0  0
 42 44  1  0  0  0  0
 43 45  1  0  0  0  0
 43 46  1  0  0  0  0
 43 47  1  0  0  0  0
M  CHG  1  24  -1
M  END
$$$$

  -OEChem-05262216243D

 47 46  0     1  0  0  0  0  0999 V2000
   -0.0095   -5.7502    1.4248 C   0  0  0  0  0  0  0  0  0  0  0  0
    0.8323   -5.6961    2.3090 O   0  0  0  0  0  0  0  0  0  0  0  0
   -1.1129   -6.7901    1.4905 C   0  0  0  0  0  0  0  0  0  0  0  0
   -1.0712   -7.4344    0.6088 H   0  0  0  0  0  0  0  0  0  0  0  0
   -0.9985   -7.4074    2.3858 H   0  0  0  0  0  0  0  0  0  0  0  0
   -2.0867   -6.2955    1.5253 H   0  0  0  0  0  0  0  0  0  0  0  0
    0.0273   -4.8687    0.3673 N   0  0  0  0  0  0  0  0  0  0  0  0
    0.8777   -3.6743    0.3104 C   0  0  2  0  0  0  0  0  0  0  0  0
    0.1435   -2.5171   -0.3984 C   0  0  0  0  0  0  0  0  0  0  0  0
   -0.8424   -2.7675   -1.0866 O   0  0  0  0  0  0  0  0  0  0  0  0
    2.1715   -4.0298   -0.4281 C   0  0  0  0  0  0  0  0  0  0  0  0
   -0.7816   -4.8577   -0.2547 H   0  0  0  0  0  0  0  0  0  0  0  0
    1.1177   -3.3380    1.3243 H   0  0  0  0  0  0  0  0  0  0  0  0
    1.9512   -4.3502   -1.4517 H   0  0  0  0  0  0  0  0  0  0  0  0
    2.8402   -3.1647   -0.4718 H   0  0  0  0  0  0  0  0  0  0  0  0
    2.6920   -4.8424    0.0885 H   0  0  0  0  0  0  0  0  0  0  0  0
    0.6719   -1.2379   -0.3554 N   0  0  0  0  0  0  0  0  0  0  0  0
   -0.0613    0.0168   -0.6269 C   0  0  2  0  0  0  0  0  0  0  0  0
   -1.5790    0.0546   -0.2898 C   0  0  0  0  0  0  0  0  0  0  0  0
   -2.0543   -0.6889    0.5649 O   0  0  0  0  0  0  0  0  0  0  0  0
    0.2025    0.3843   -2.1008 C   0  0  0  0  0  0  0  0  0  0  0  0
    1.6822    0.7588   -2.3226 C   0  0  0  0  0  0  0  0  0  0  0  0
    1.9693    1.1037   -3.7839 C   0  0  0  0  0  0  0  0  0  0  0  0
    1.2635    1.9938   -4.3192 O   0  5  0  0  0  0  0  0  0  0  0  0
    2.9192    0.5064   -4.3468 O   0  0  0  0  0  0  0  0  0  0  0  0
    1.5491   -1.1479    0.1450 H   0  0  0  0  0  0  0  0  0  0  0  0
    0.3799    0.7991   -0.0026 H   0  0  0  0  0  0  0  0  0  0  0  0
   -0.4173    1.2351   -2.4008 H   0  0  0  0  0  0  0  0  0  0  0  0
   -0.0662   -0.4595   -2.7462 H   0  0  0  0  0  0  0  0  0  0  0  0
    1.9379    1.6238   -1.7043 H   0  0  0  0  0  0  0  0  0  0  0  0
    2.3291   -0.0713   -2.0243 H   0  0  0  0  0  0  0  0  0  0  0  0
   -2.2997    1.2121   -0.5356 N   0  0  0  0  0  0  0  0  0  0  0  0
   -3.6901    1.4298   -0.1128 C   0  0  2  0  0  0  0  0  0  0  0  0
   -4.4993    2.2240   -1.1567 C   0  0  0  0  0  0  0  0  0  0  0  0
   -3.9836    3.1532   -1.7657 O   0  0  0  0  0  0  0  0  0  0  0  0
   -3.6775    2.1739    1.2252 C   0  0  0  0  0  0  0  0  0  0  0  0
   -1.9113    1.8645   -1.2169 H   0  0  0  0  0  0  0  0  0  0  0  0
   -4.1904    0.4649    0.0195 H   0  0  0  0  0  0  0  0  0  0  0  0
   -3.1781    3.1424    1.1190 H   0  0  0  0  0  0  0  0  0  0  0  0
   -4.6993    2.3441    1.5776 H   0  0  0  0  0  0  0  0  0  0  0  0
   -3.1438    1.5872    1.9794 H   0  0  0  0  0  0  0  0  0  0  0  0
   -5.8286    1.9164   -1.3868 N   0  0  0  0  0  0  0  0  0  0  0  0
   -6.6287    2.5718   -2.4134 C   0  0  0  0  0  0  0  0  0  0  0  0
   -6.1943    1.0822   -0.9373 H   0  0  0  0  0  0  0  0  0  0  0  0
   -6.6325    3.6566   -2.2634 H   0  0  0  0  0  0  0  0  0  0  0  0
   -6.2254    2.3547   -3.4080 H   0  0  0  0  0  0  0  0  0  0  0  0
   -7.6621    2.2156   -2.3713 H   0  0  0  0  0  0  0  0  0  0  0  0
  1  2  2  0  0  0  0
  1  3  1  0  0  0  0
  1  7  1  0  0  0  0
  3  4  1  0  0  0  0
  3  5  1  0  0  0  0
  3  6  1  0  0  0  0
  7  8  1  0  0  0  0
  7 12  1  0  0  0  0
  8  9  1  0  0  0  0
  8 11  1  0  0  0  0
  8 13  1  0  0  0  0
  9 10  2  0  0  0  0
  9 17  1  0  0  0  0
 11 14  1  0  0  0  0
 11 15  1  0  0  0  0
 11 16  1  0  0  0  0
 17 18  1  0  0  0  0
 17 26  1  0  0  0  0
 18 19  1  0  0  0  0
 18 21  1  0  0  0  0
 18 27  1  0  0  0  0
 19 20  2  0  0  0  0
 19 32  1  0  0  0  0
 21 22  1  0  0  0  0
 21 28  1  0  0  0  0
 21 29  1  0  0  0  0
 22 23  1  0  0  0  0
 22 30  1  0  0  0  0
 22 31  1  0  0  0  0
 23 24  1  0  0  0  0
 23 25  2  0  0  0  0
 32 33  1  0  0  0  0
 32 37  1  0  0  0  0
 33 34  1  0  0  0  0
 33 36  1  0  0  0  0
 33 38  1  0  0  0  0
 34 35  2  0  0  0  0
 34 42  1  0  0  0  0
 36 39  1  0  0  0  0
 36 40  1  0  0  0  0
 36 41  1  0  0  0  0
 42 43  1  0  0  0  0
 42 44  1  0  0  0  0
 43 45  1  0  0  0  0
 43 46  1  0  0  0  0
 43 47  1  0  0  0  0
M  CHG  1  24  -1
M  END
$$$$

  -OEChem-05262216243D

 47 46  0     1  0  0  0  0  0999 V2000
   -0.0002   -5.7668    1.3781 C   0  0  0  0  0  0  0  0  0  0  0  0
    0.8674   -5.7375    2.2382 O   0  0  0  0  0  0  0  0  0  0  0  0
   -1.0882   -6.8235    1.4345 C   0  0  0  0  0  0  0  0  0  0  0  0
   -1.0270   -7.4681    0.5544 H   0  0  0  0  0  0  0  0  0  0  0  0
   -0.9736   -7.4377    2.3319 H   0  0  0  0  0  0  0  0  0  0  0  0
   -2.0703   -6.3449    1.4587 H   0  0  0  0  0  0  0  0  0  0  0  0
   -0.0065   -4.8422    0.3573 N   0  0  0  0  0  0  0  0  0  0  0  0
    0.8408   -3.6447    0.3134 C   0  0  2  0  0  0  0  0  0  0  0  0
    0.0934   -2.4654   -0.3451 C   0  0  0  0  0  0  0  0  0  0  0  0
   -0.9367   -2.6876   -0.9762 O   0  0  0  0  0  0  0  0  0  0  0  0
    2.1186   -3.9791   -0.4626 C   0  0  0  0  0  0  0  0  0  0  0  0
   -0.8317   -4.8175   -0.2423 H   0  0  0  0  0  0  0  0  0  0  0  0
    1.1027   -3.3378    1.3312 H   0  0  0  0  0  0  0  0  0  0  0  0
    1.8766   -4.2716   -1.4896 H   0  0  0  0  0  0  0  0  0  0  0  0
    2.7863   -3.1130   -0.4974 H   0  0  0  0  0  0  0  0  0  0  0  0
    2.6502   -4.8050    0.0202 H   0  0  0  0  0  0  0  0  0  0  0  0
    0.6491   -1.1972   -0.3097 N   0  0  0  0  0  0  0  0  0  0  0  0
   -0.0390    0.0725   -0.6237 C   0  0  2  0  0  0  0  0  0  0  0  0
   -1.5633    0.1262   -0.3233 C   0  0  0  0  0  0  0  0  0  0  0  0
   -2.0080   -0.4471    0.6688 O   0  0  0  0  0  0  0  0  0  0  0  0
    0.2909    0.4105   -2.0923 C   0  0  0  0  0  0  0  0  0  0  0  0
    1.7875    0.7399   -2.2605 C   0  0  0  0  0  0  0  0  0  0  0  0
    2.1290    1.0531   -3.7161 C   0  0  0  0  0  0  0  0  0  0  0  0
    1.5867    2.0622   -4.2303 O   0  5  0  0  0  0  0  0  0  0  0  0
    2.9460    0.2996   -4.2999 O   0  0  0  0  0  0  0  0  0  0  0  0
    1.5535   -1.1256    0.1432 H   0  0  0  0  0  0  0  0  0  0  0  0
    0.3935    0.8557    0.0052 H   0  0  0  0  0  0  0  0  0  0  0  0
   -0.2847    1.2794   -2.4261 H   0  0  0  0  0  0  0  0  0  0  0  0
    0.0197   -0.4329   -2.7376 H   0  0  0  0  0  0  0  0  0  0  0  0
    2.0453    1.6061   -1.6450 H   0  0  0  0  0  0  0  0  0  0  0  0
    2.4020   -0.1017   -1.9282 H   0  0  0  0  0  0  0  0  0  0  0  0
   -2.3585    1.1279   -0.8557 N   0  0  0  0  0  0  0  0  0  0  0  0
   -3.7811    1.3075   -0.5354 C   0  0  2  0  0  0  0  0  0  0  0  0
   -4.6132    1.7129   -1.7677 C   0  0  0  0  0  0  0  0  0  0  0  0
   -4.1448    2.4605   -2.6174 O   0  0  0  0  0  0  0  0  0  0  0  0
   -3.8962    2.3710    0.5593 C   0  0  0  0  0  0  0  0  0  0  0  0
   -1.9985    1.6207   -1.6733 H   0  0  0  0  0  0  0  0  0  0  0  0
   -4.1970    0.3658   -0.1627 H   0  0  0  0  0  0  0  0  0  0  0  0
   -3.4891    3.3251    0.2093 H   0  0  0  0  0  0  0  0  0  0  0  0
   -4.9432    2.5188    0.8401 H   0  0  0  0  0  0  0  0  0  0  0  0
   -3.3394    2.0587    1.4485 H   0  0  0  0  0  0  0  0  0  0  0  0
   -5.9125    1.2581   -1.9071 N   0  0  0  0  0  0  0  0  0  0  0  0
   -6.7277    1.5331   -3.0831 C   0  0  0  0  0  0  0  0  0  0  0  0
   -6.2360    0.5695   -1.2343 H   0  0  0  0  0  0  0  0  0  0  0  0
   -6.8176    2.6126   -3.2438 H   0  0  0  0  0  0  0  0  0  0  0  0
   -6.2786    1.0801   -3.9731 H   0  0  0  0  0  0  0  0  0  0  0  0
   -7.7323    1.1203   -2.9513 H   0  0  0  0  0  0  0  0  0  0  0  0
  1  2  2  0  0  0  0
  1  3  1  0  0  0  0
  1  7  1  0  0  0  0
  3  4  1  0  0  0  0
  3  5  1  0  0  0  0
  3  6  1  0  0  0  0
  7  8  1  0  0  0  0
  7 12  1  0  0  0  0
  8  9  1  0  0  0  0
  8 11  1  0  0  0  0
  8 13  1  0  0  0  0
  9 10  2  0  0  0  0
  9 17  1  0  0  0  0
 11 14  1  0  0  0  0
 11 15  1  0  0  0  0
 11 16  1  0  0  0  0
 17 18  1  0  0  0  0
 17 26  1  0  0  0  0
 18 19  1  0  0  0  0
 18 21  1  0  0  0  0
 18 27  1  0  0  0  0
 19 20  2  0  0  0  0
 19 32  1  0  0  0  0
 21 22  1  0  0  0  0
 21 28  1  0  0  0  0
 21 29  1  0  0  0  0
 22 23  1  0  0  0  0
 22 30  1  0  0  0  0
 22 31  1  0  0  0  0
 23 24  1  0  0  0  0
 23 25  2  0  0  0  0
 32 33  1  0  0  0  0
 32 37  1  0  0  0  0
 33 34  1  0  0  0  0
 33 36  1  0  0  0  0
 33 38  1  0  0  0  0
 34 35  2  0  0  0  0
 34 42  1  0  0  0  0
 36 39  1  0  0  0  0
 36 40  1  0  0  0  0
 36 41  1  0  0  0  0
 42 43  1  0  0  0  0
 42 44  1  0  0  0  0
 43 45  1  0  0  0  0
 43 46  1  0  0  0  0
 43 47  1  0  0  0  0
M  CHG  1  24  -1
M  END
$$$$

  -OEChem-05262216243D

 47 46  0     1  0  0  0  0  0999 V2000
    0.0250   -5.7419    1.3824 C   0  0  0  0  0  0  0  0  0  0  0  0
    0.9262   -5.7109    2.2070 O   0  0  0  0  0  0  0  0  0  0  0  0
   -1.0564   -6.8018    1.4829 C   0  0  0  0  0  0  0  0  0  0  0  0
   -1.0360   -7.4390    0.5954 H   0  0  0  0  0  0  0  0  0  0  0  0
   -0.8955   -7.4231    2.3684 H   0  0  0  0  0  0  0  0  0  0  0  0
   -2.0375   -6.3265    1.5593 H   0  0  0  0  0  0  0  0  0  0  0  0
   -0.0220   -4.8199    0.3597 N   0  0  0  0  0  0  0  0  0  0  0  0
    0.8324   -3.6294    0.2719 C   0  0  2  0  0  0  0  0  0  0  0  0
    0.0584   -2.4339   -0.3236 C   0  0  0  0  0  0  0  0  0  0  0  0
   -1.0047   -2.6398   -0.9031 O   0  0  0  0  0  0  0  0  0  0  0  0
    2.0499   -3.9696   -0.5932 C   0  0  0  0  0  0  0  0  0  0  0  0
   -0.8698   -4.7966   -0.2072 H   0  0  0  0  0  0  0  0  0  0  0  0
    1.1673   -3.3368    1.2727 H   0  0  0  0  0  0  0  0  0  0  0  0
    1.7349   -4.2430   -1.6055 H   0  0  0  0  0  0  0  0  0  0  0  0
    2.7264   -3.1123   -0.6609 H   0  0  0  0  0  0  0  0  0  0  0  0
    2.6006   -4.8101   -0.1595 H   0  0  0  0  0  0  0  0  0  0  0  0
    0.6213   -1.1691   -0.2803 N   0  0  0  0  0  0  0  0  0  0  0  0
   -0.0377    0.1075   -0.6244 C   0  0  2  0  0  0  0  0  0  0  0  0
   -1.5690    0.1618   -0.3692 C   0  0  0  0  0  0  0  0  0  0  0  0
   -2.0081   -0.2447    0.7044 O   0  0  0  0  0  0  0  0  0  0  0  0
    0.3539    0.4422   -2.0783 C   0  0  0  0  0  0  0  0  0  0  0  0
    1.8596    0.7535   -2.1823 C   0  0  0  0  0  0  0  0  0  0  0  0
    2.2658    1.0635   -3.6214 C   0  0  0  0  0  0  0  0  0  0  0  0
    1.7844    2.0973   -4.1464 O   0  5  0  0  0  0  0  0  0  0  0  0
    3.0678    0.2780   -4.1831 O   0  0  0  0  0  0  0  0  0  0  0  0
    1.5552   -1.1113    0.1115 H   0  0  0  0  0  0  0  0  0  0  0  0
    0.3759    0.8889    0.0193 H   0  0  0  0  0  0  0  0  0  0  0  0
   -0.1933    1.3228   -2.4298 H   0  0  0  0  0  0  0  0  0  0  0  0
    0.0969   -0.3948   -2.7371 H   0  0  0  0  0  0  0  0  0  0  0  0
    2.1025    1.6158   -1.5547 H   0  0  0  0  0  0  0  0  0  0  0  0
    2.4486   -0.0966   -1.8264 H   0  0  0  0  0  0  0  0  0  0  0  0
   -2.4147    0.9447   -1.1367 N   0  0  0  0  0  0  0  0  0  0  0  0
   -3.8630    1.0431   -0.9145 C   0  0  2  0  0  0  0  0  0  0  0  0
   -4.6585    1.0665   -2.2344 C   0  0  0  0  0  0  0  0  0  0  0  0
   -4.2022    1.6165   -3.2293 O   0  0  0  0  0  0  0  0  0  0  0  0
   -4.1401    2.3091   -0.1003 C   0  0  0  0  0  0  0  0  0  0  0  0
   -2.0601    1.2568   -2.0409 H   0  0  0  0  0  0  0  0  0  0  0  0
   -4.2092    0.1722   -0.3484 H   0  0  0  0  0  0  0  0  0  0  0  0
   -3.8056    3.1964   -0.6475 H   0  0  0  0  0  0  0  0  0  0  0  0
   -5.2106    2.4060    0.1028 H   0  0  0  0  0  0  0  0  0  0  0  0
   -3.6084    2.2672    0.8554 H   0  0  0  0  0  0  0  0  0  0  0  0
   -5.9146    0.4895   -2.2950 N   0  0  0  0  0  0  0  0  0  0  0  0
   -6.6918    0.4052   -3.5244 C   0  0  0  0  0  0  0  0  0  0  0  0
   -6.2183   -0.0412   -1.4841 H   0  0  0  0  0  0  0  0  0  0  0  0
   -6.8266    1.4000   -3.9620 H   0  0  0  0  0  0  0  0  0  0  0  0
   -6.1846   -0.2351   -4.2536 H   0  0  0  0  0  0  0  0  0  0  0  0
   -7.6800   -0.0163   -3.3179 H   0  0  0  0  0  0  0  0  0  0  0  0
  1  2  2  0  0  0  0
  1  3  1  0  0  0  0
  1  7  1  0  0  0  0
  3  4  1  0  0  0  0
  3  5  1  0  0  0  0
  3  6  1  0  0  0  0
  7  8  1  0  0  0  0
  7 12  1  0  0  0  0
  8  9  1  0  0  0  0
  8 11  1  0  0  0  0
  8 13  1  0  0  0  0
  9 10  2  0  0  0  0
  9 17  1  0  0  0  0
 11 14  1  0  0  0  0
 11 15  1  0  0  0  0
 11 16  1  0  0  0  0
 17 18  1  0  0  0  0
 17 26  1  0  0  0  0
 18 19  1  0  0  0  0
 18 21  1  0  0  0  0
 18 27  1  0  0  0  0
 19 20  2  0  0  0  0
 19 32  1  0  0  0  0
 21 22  1  0  0  0  0
 21 28  1  0  0  0  0
 21 29  1  0  0  0  0
 22 23  1  0  0  0  0
 22 30  1  0  0  0  0
 22 31  1  0  0  0  0
 23 24  1  0  0  0  0
 23 25  2  0  0  0  0
 32 33  1  0  0  0  0
 32 37  1  0  0  0  0
 33 34  1  0  0  0  0
 33 36  1  0  0  0  0
 33 38  1  0  0  0  0
 34 35  2  0  0  0  0
 34 42  1  0  0  0  0
 36 39  1  0  0  0  0
 36 40  1  0  0  0  0
 36 41  1  0  0  0  0
 42 43  1  0  0  0  0
 42 44  1  0  0  0  0
 43 45  1  0  0  0  0
 43 46  1  0  0  0  0
 43 47  1  0  0  0  0
M  CHG  1  24  -1
M  END
$$$$

  -OEChem-05262216243D

 47 46  0     1  0  0  0  0  0999 V2000
    0.0833   -5.7271    1.3714 C   0  0  0  0  0  0  0  0  0  0  0  0
    1.0117   -5.6987    2.1650 O   0  0  0  0  0  0  0  0  0  0  0  0
   -1.0078   -6.7714    1.5186 C   0  0  0  0  0  0  0  0  0  0  0  0
   -1.0509   -7.3943    0.6218 H   0  0  0  0  0  0  0  0  0  0  0  0
   -0.8066   -7.4100    2.3831 H   0  0  0  0  0  0  0  0  0  0  0  0
   -1.9741   -6.2809    1.6595 H   0  0  0  0  0  0  0  0  0  0  0  0
    0.0071   -4.8108    0.3461 N   0  0  0  0  0  0  0  0  0  0  0  0
    0.8499   -3.6144    0.2354 C   0  0  2  0  0  0  0  0  0  0  0  0
    0.0298   -2.4087   -0.2699 C   0  0  0  0  0  0  0  0  0  0  0  0
   -1.0705   -2.6076   -0.7777 O   0  0  0  0  0  0  0  0  0  0  0  0
    2.0026   -3.9241   -0.7240 C   0  0  0  0  0  0  0  0  0  0  0  0
   -0.8643   -4.7827   -0.1833 H   0  0  0  0  0  0  0  0  0  0  0  0
    1.2556   -3.3467    1.2167 H   0  0  0  0  0  0  0  0  0  0  0  0
    1.6166   -4.1729   -1.7177 H   0  0  0  0  0  0  0  0  0  0  0  0
    2.6692   -3.0613   -0.8182 H   0  0  0  0  0  0  0  0  0  0  0  0
    2.5861   -4.7723   -0.3531 H   0  0  0  0  0  0  0  0  0  0  0  0
    0.5889   -1.1428   -0.2248 N   0  0  0  0  0  0  0  0  0  0  0  0
   -0.0559    0.1311   -0.6004 C   0  0  2  0  0  0  0  0  0  0  0  0
   -1.5931    0.1865   -0.3900 C   0  0  0  0  0  0  0  0  0  0  0  0
   -2.0436   -0.0276    0.7330 O   0  0  0  0  0  0  0  0  0  0  0  0
    0.3771    0.4443   -2.0464 C   0  0  0  0  0  0  0  0  0  0  0  0
    1.8860    0.7482   -2.1150 C   0  0  0  0  0  0  0  0  0  0  0  0
    2.3282    1.0359   -3.5478 C   0  0  0  0  0  0  0  0  0  0  0  0
    1.8813    2.0746   -4.0930 O   0  5  0  0  0  0  0  0  0  0  0  0
    3.1182    0.2227   -4.0867 O   0  0  0  0  0  0  0  0  0  0  0  0
    1.5538   -1.0933    0.0855 H   0  0  0  0  0  0  0  0  0  0  0  0
    0.3418    0.9189    0.0462 H   0  0  0  0  0  0  0  0  0  0  0  0
   -0.1572    1.3243   -2.4195 H   0  0  0  0  0  0  0  0  0  0  0  0
    0.1330   -0.3987   -2.7028 H   0  0  0  0  0  0  0  0  0  0  0  0
    2.1155    1.6191   -1.4943 H   0  0  0  0  0  0  0  0  0  0  0  0
    2.4628   -0.0987   -1.7321 H   0  0  0  0  0  0  0  0  0  0  0  0
   -2.4558    0.7010   -1.3429 N   0  0  0  0  0  0  0  0  0  0  0  0
   -3.9179    0.6869   -1.2090 C   0  0  2  0  0  0  0  0  0  0  0  0
   -4.6225    0.3108   -2.5283 C   0  0  0  0  0  0  0  0  0  0  0  0
   -4.1143    0.5842   -3.6091 O   0  0  0  0  0  0  0  0  0  0  0  0
   -4.3682    2.0711   -0.7379 C   0  0  0  0  0  0  0  0  0  0  0  0
   -2.0817    0.7979   -2.2871 H   0  0  0  0  0  0  0  0  0  0  0  0
   -4.2143   -0.0585   -0.4638 H   0  0  0  0  0  0  0  0  0  0  0  0
   -4.0901    2.8339   -1.4722 H   0  0  0  0  0  0  0  0  0  0  0  0
   -5.4533    2.0948   -0.6021 H   0  0  0  0  0  0  0  0  0  0  0  0
   -3.8937    2.3167    0.2173 H   0  0  0  0  0  0  0  0  0  0  0  0
   -5.8570   -0.3140   -2.5022 N   0  0  0  0  0  0  0  0  0  0  0  0
   -6.5498   -0.7575   -3.7051 C   0  0  0  0  0  0  0  0  0  0  0  0
   -6.2095   -0.6048   -1.5954 H   0  0  0  0  0  0  0  0  0  0  0  0
   -6.7045    0.0825   -4.3907 H   0  0  0  0  0  0  0  0  0  0  0  0
   -5.9672   -1.5293   -4.2190 H   0  0  0  0  0  0  0  0  0  0  0  0
   -7.5277   -1.1744   -3.4463 H   0  0  0  0  0  0  0  0  0  0  0  0
  1  2  2  0  0  0  0
  1  3  1  0  0  0  0
  1  7  1  0  0  0  0
  3  4  1  0  0  0  0
  3  5  1  0  0  0  0
  3  6  1  0  0  0  0
  7  8  1  0  0  0  0
  7 12  1  0  0  0  0
  8  9  1  0  0  0  0
  8 11  1  0  0  0  0
  8 13  1  0  0  0  0
  9 10  2  0  0  0  0
  9 17  1  0  0  0  0
 11 14  1  0  0  0  0
 11 15  1  0  0  0  0
 11 16  1  0  0  0  0
 17 18  1  0  0  0  0
 17 26  1  0  0  0  0
 18 19  1  0  0  0  0
 18 21  1  0  0  0  0
 18 27  1  0  0  0  0
 19 20  2  0  0  0  0
 19 32  1  0  0  0  0
 21 22  1  0  0  0  0
 21 28  1  0  0  0  0
 21 29  1  0  0  0  0
 22 23  1  0  0  0  0
 22 30  1  0  0  0  0
 22 31  1  0  0  0  0
 23 24  1  0  0  0  0
 23 25  2  0  0  0  0
 32 33  1  0  0  0  0
 32 37  1  0  0  0  0
 33 34  1  0  0  0  0
 33 36  1  0  0  0  0
 33 38  1  0  0  0  0
 34 35  2  0  0  0  0
 34 42  1  0  0  0  0
 36 39  1  0  0  0  0
 36 40  1  0  0  0  0
 36 41  1  0  0  0  0
 42 43  1  0  0  0  0
 42 44  1  0  0  0  0
 43 45  1  0  0  0  0
 43 46  1  0  0  0  0
 43 47  1  0  0  0  0
M  CHG  1  24  -1
M  END
$$$$

  -OEChem-05262216243D

 47 46  0     1  0  0  0  0  0999 V2000
    0.1607   -5.7748    1.3371 C   0  0  0  0  0  0  0  0  0  0  0  0
    1.1293   -5.7534    2.0813 O   0  0  0  0  0  0  0  0  0  0  0  0
   -0.8625   -6.8891    1.4586 C   0  0  0  0  0  0  0  0  0  0  0  0
   -0.8692   -7.4884    0.5449 H   0  0  0  0  0  0  0  0  0  0  0  0
   -0.6174   -7.5376    2.3043 H   0  0  0  0  0  0  0  0  0  0  0  0
   -1.8578   -6.4663    1.6160 H   0  0  0  0  0  0  0  0  0  0  0  0
   -0.0139   -4.7929    0.3866 N   0  0  0  0  0  0  0  0  0  0  0  0
    0.8047   -3.5791    0.2785 C   0  0  2  0  0  0  0  0  0  0  0  0
   -0.0363   -2.3794   -0.2093 C   0  0  0  0  0  0  0  0  0  0  0  0
   -1.1602   -2.5813   -0.6602 O   0  0  0  0  0  0  0  0  0  0  0  0
    1.9597   -3.8580   -0.6895 C   0  0  0  0  0  0  0  0  0  0  0  0
   -0.9057   -4.7726   -0.1077 H   0  0  0  0  0  0  0  0  0  0  0  0
    1.2111   -3.3156    1.2607 H   0  0  0  0  0  0  0  0  0  0  0  0
    1.5742   -4.1050   -1.6840 H   0  0  0  0  0  0  0  0  0  0  0  0
    2.6100   -2.9822   -0.7783 H   0  0  0  0  0  0  0  0  0  0  0  0
    2.5622   -4.6982   -0.3303 H   0  0  0  0  0  0  0  0  0  0  0  0
    0.5217   -1.1122   -0.1865 N   0  0  0  0  0  0  0  0  0  0  0  0
   -0.1059    0.1534   -0.6149 C   0  0  2  0  0  0  0  0  0  0  0  0
   -1.6463    0.2261   -0.4526 C   0  0  0  0  0  0  0  0  0  0  0  0
   -2.1229    0.2360    0.6795 O   0  0  0  0  0  0  0  0  0  0  0  0
    0.3650    0.4303   -2.0557 C   0  0  0  0  0  0  0  0  0  0  0  0
    1.8759    0.7286   -2.0932 C   0  0  0  0  0  0  0  0  0  0  0  0
    2.3564    0.9803   -3.5208 C   0  0  0  0  0  0  0  0  0  0  0  0
    1.9101    1.9931   -4.1131 O   0  5  0  0  0  0  0  0  0  0  0  0
    3.1736    0.1622   -4.0095 O   0  0  0  0  0  0  0  0  0  0  0  0
    1.5018   -1.0665    0.0740 H   0  0  0  0  0  0  0  0  0  0  0  0
    0.2780    0.9556    0.0223 H   0  0  0  0  0  0  0  0  0  0  0  0
   -0.1630    1.3012   -2.4604 H   0  0  0  0  0  0  0  0  0  0  0  0
    0.1373   -0.4281   -2.6980 H   0  0  0  0  0  0  0  0  0  0  0  0
    2.0917    1.6137   -1.4882 H   0  0  0  0  0  0  0  0  0  0  0  0
    2.4402   -0.1093   -1.6744 H   0  0  0  0  0  0  0  0  0  0  0  0
   -2.4952    0.4280   -1.5268 N   0  0  0  0  0  0  0  0  0  0  0  0
   -3.9572    0.3530   -1.4337 C   0  0  2  0  0  0  0  0  0  0  0  0
   -4.5775   -0.3953   -2.6303 C   0  0  0  0  0  0  0  0  0  0  0  0
   -4.0849   -0.3050   -3.7487 O   0  0  0  0  0  0  0  0  0  0  0  0
   -4.5034    1.7799   -1.3532 C   0  0  0  0  0  0  0  0  0  0  0  0
   -2.0862    0.3091   -2.4535 H   0  0  0  0  0  0  0  0  0  0  0  0
   -4.2441   -0.1925   -0.5290 H   0  0  0  0  0  0  0  0  0  0  0  0
   -4.2274    2.3445   -2.2497 H   0  0  0  0  0  0  0  0  0  0  0  0
   -5.5941    1.7680   -1.2689 H   0  0  0  0  0  0  0  0  0  0  0  0
   -4.0928    2.2927   -0.4776 H   0  0  0  0  0  0  0  0  0  0  0  0
   -5.7267   -1.1464   -2.4574 N   0  0  0  0  0  0  0  0  0  0  0  0
   -6.3266   -1.9372   -3.5241 C   0  0  0  0  0  0  0  0  0  0  0  0
   -6.0504   -1.2803   -1.5044 H   0  0  0  0  0  0  0  0  0  0  0  0
   -6.5781   -1.3003   -4.3788 H   0  0  0  0  0  0  0  0  0  0  0  0
   -5.6340   -2.7172   -3.8574 H   0  0  0  0  0  0  0  0  0  0  0  0
   -7.2445   -2.4152   -3.1693 H   0  0  0  0  0  0  0  0  0  0  0  0
  1  2  2  0  0  0  0
  1  3  1  0  0  0  0
  1  7  1  0  0  0  0
  3  4  1  0  0  0  0
  3  5  1  0  0  0  0
  3  6  1  0  0  0  0
  7  8  1  0  0  0  0
  7 12  1  0  0  0  0
  8  9  1  0  0  0  0
  8 11  1  0  0  0  0
  8 13  1  0  0  0  0
  9 10  2  0  0  0  0
  9 17  1  0  0  0  0
 11 14  1  0  0  0  0
 11 15  1  0  0  0  0
 11 16  1  0  0  0  0
 17 18  1  0  0  0  0
 17 26  1  0  0  0  0
 18 19  1  0  0  0  0
 18 21  1  0  0  0  0
 18 27  1  0  0  0  0
 19 20  2  0  0  0  0
 19 32  1  0  0  0  0
 21 22  1  0  0  0  0
 21 28  1  0  0  0  0
 21 29  1  0  0  0  0
 22 23  1  0  0  0  0
 22 30  1  0  0  0  0
 22 31  1  0  0  0  0
 23 24  1  0  0  0  0
 23 25  2  0  0  0  0
 32 33  1  0  0  0  0
 32 37  1  0  0  0  0
 33 34  1  0  0  0  0
 33 36  1  0  0  0  0
 33 38  1  0  0  0  0
 34 35  2  0  0  0  0
 34 42  1  0  0  0  0
 36 39  1  0  0  0  0
 36 40  1  0  0  0  0
 36 41  1  0  0  0  0
 42 43  1  0  0  0  0
 42 44  1  0  0  0  0
 43 45  1  0  0  0  0
 43 46  1  0  0  0  0
 43 47  1  0  0  0  0
M  CHG  1  24  -1
M  END
$$$$

  -OEChem-05262216243D

 47 46  0     1  0  0  0  0  0999 V2000
    0.1945   -5.7844    1.2915 C   0  0  0  0  0  0  0  0  0  0  0  0
    1.1363   -5.7527    2.0689 O   0  0  0  0  0  0  0  0  0  0  0  0
   -0.8174   -6.9125    1.3716 C   0  0  0  0  0  0  0  0  0  0  0  0
   -0.8988   -7.4094    0.4017 H   0  0  0  0  0  0  0  0  0  0  0  0
   -0.5063   -7.6474    2.1191 H   0  0  0  0  0  0  0  0  0  0  0  0
   -1.7960   -6.5151    1.6521 H   0  0  0  0  0  0  0  0  0  0  0  0
    0.0329   -4.7969    0.3450 N   0  0  0  0  0  0  0  0  0  0  0  0
    0.8174   -3.5574    0.2865 C   0  0  2  0  0  0  0  0  0  0  0  0
   -0.0581   -2.3667   -0.1624 C   0  0  0  0  0  0  0  0  0  0  0  0
   -1.1905   -2.5849   -0.5825 O   0  0  0  0  0  0  0  0  0  0  0  0
    1.9825   -3.7712   -0.6858 C   0  0  0  0  0  0  0  0  0  0  0  0
   -0.8476   -4.7867   -0.1693 H   0  0  0  0  0  0  0  0  0  0  0  0
    1.2132   -3.3172    1.2790 H   0  0  0  0  0  0  0  0  0  0  0  0
    1.6068   -3.9908   -1.6905 H   0  0  0  0  0  0  0  0  0  0  0  0
    2.6119   -2.8775   -0.7398 H   0  0  0  0  0  0  0  0  0  0  0  0
    2.6038   -4.6092   -0.3546 H   0  0  0  0  0  0  0  0  0  0  0  0
    0.4746   -1.0886   -0.1392 N   0  0  0  0  0  0  0  0  0  0  0  0
   -0.1575    0.1580   -0.6153 C   0  0  2  0  0  0  0  0  0  0  0  0
   -1.7032    0.2184   -0.5244 C   0  0  0  0  0  0  0  0  0  0  0  0
   -2.2247    0.4620    0.5604 O   0  0  0  0  0  0  0  0  0  0  0  0
    0.3575    0.4033   -2.0460 C   0  0  0  0  0  0  0  0  0  0  0  0
    1.8642    0.7211   -2.0447 C   0  0  0  0  0  0  0  0  0  0  0  0
    2.3792    0.9393   -3.4646 C   0  0  0  0  0  0  0  0  0  0  0  0
    2.0219    1.9855   -4.0588 O   0  5  0  0  0  0  0  0  0  0  0  0
    3.1243    0.0533   -3.9498 O   0  0  0  0  0  0  0  0  0  0  0  0
    1.4620   -1.0309    0.0913 H   0  0  0  0  0  0  0  0  0  0  0  0
    0.1940    0.9798    0.0161 H   0  0  0  0  0  0  0  0  0  0  0  0
   -0.1730    1.2534   -2.4905 H   0  0  0  0  0  0  0  0  0  0  0  0
    0.1655   -0.4756   -2.6720 H   0  0  0  0  0  0  0  0  0  0  0  0
    2.0498    1.6262   -1.4594 H   0  0  0  0  0  0  0  0  0  0  0  0
    2.4288   -0.0954   -1.5864 H   0  0  0  0  0  0  0  0  0  0  0  0
   -2.5122    0.0882   -1.6401 N   0  0  0  0  0  0  0  0  0  0  0  0
   -3.9711   -0.0500   -1.5735 C   0  0  2  0  0  0  0  0  0  0  0  0
   -4.4959   -1.1412   -2.5280 C   0  0  0  0  0  0  0  0  0  0  0  0
   -4.0142   -1.2810   -3.6465 O   0  0  0  0  0  0  0  0  0  0  0  0
   -4.5938    1.3055   -1.9126 C   0  0  0  0  0  0  0  0  0  0  0  0
   -2.0560   -0.2601   -2.4827 H   0  0  0  0  0  0  0  0  0  0  0  0
   -4.2719   -0.3365   -0.5609 H   0  0  0  0  0  0  0  0  0  0  0  0
   -4.3197    1.6085   -2.9284 H   0  0  0  0  0  0  0  0  0  0  0  0
   -5.6844    1.2521   -1.8453 H   0  0  0  0  0  0  0  0  0  0  0  0
   -4.2390    2.0688   -1.2129 H   0  0  0  0  0  0  0  0  0  0  0  0
   -5.5603   -1.9392   -2.1469 N   0  0  0  0  0  0  0  0  0  0  0  0
   -6.0677   -3.0305   -2.9678 C   0  0  0  0  0  0  0  0  0  0  0  0
   -5.8664   -1.8665   -1.1814 H   0  0  0  0  0  0  0  0  0  0  0  0
   -6.3837   -2.6580   -3.9479 H   0  0  0  0  0  0  0  0  0  0  0  0
   -5.2936   -3.7914   -3.1120 H   0  0  0  0  0  0  0  0  0  0  0  0
   -6.9299   -3.4985   -2.4834 H   0  0  0  0  0  0  0  0  0  0  0  0
  1  2  2  0  0  0  0
  1  3  1  0  0  0  0
  1  7  1  0  0  0  0
  3  4  1  0  0  0  0
  3  5  1  0  0  0  0
  3  6  1  0  0  0  0
  7  8  1  0  0  0  0
  7 12  1  0  0  0  0
  8  9  1  0  0  0  0
  8 11  1  0  0  0  0
  8 13  1  0  0  0  0
  9 10  2  0  0  0  0
  9 17  1  0  0  0  0
 11 14  1  0  0  0  0
 11 15  1  0  0  0  0
 11 16  1  0  0  0  0
 17 18  1  0  0  0  0
 17 26  1  0  0  0  0
 18 19  1  0  0  0  0
 18 21  1  0  0  0  0
 18 27  1  0  0  0  0
 19 20  2  0  0  0  0
 19 32  1  0  0  0  0
 21 22  1  0  0  0  0
 21 28  1  0  0  0  0
 21 29  1  0  0  0  0
 22 23  1  0  0  0  0
 22 30  1  0  0  0  0
 22 31  1  0  0  0  0
 23 24  1  0  0  0  0
 23 25  2  0  0  0  0
 32 33  1  0  0  0  0
 32 37  1  0  0  0  0
 33 34  1  0  0  0  0
 33 36  1  0  0  0  0
 33 38  1  0  0  0  0
 34 35  2  0  0  0  0
 34 42  1  0  0  0  0
 36 39  1  0  0  0  0
 36 40  1  0  0  0  0
 36 41  1  0  0  0  0
 42 43  1  0  0  0  0
 42 44  1  0  0  0  0
 43 45  1  0  0  0  0
 43 46  1  0  0  0  0
 43 47  1  0  0  0  0
M  CHG  1  24  -1
M  END
$$$$

  -OEChem-05262216243D

 47 46  0     1  0  0  0  0  0999 V2000
   -0.0864   -6.0096    0.7708 C   0  0  0  0  0  0  0  0  0  0  0  0
    0.6260   -6.0176    1.7626 O   0  0  0  0  0  0  0  0  0  0  0  0
   -0.9634   -7.2074    0.4554 C   0  0  0  0  0  0  0  0  0  0  0  0
   -0.7008   -7.6134   -0.5246 H   0  0  0  0  0  0  0  0  0  0  0  0
   -0.8233   -7.9875    1.2088 H   0  0  0  0  0  0  0  0  0  0  0  0
   -2.0146   -6.9085    0.4483 H   0  0  0  0  0  0  0  0  0  0  0  0
   -0.1104   -4.9136   -0.0639 N   0  0  0  0  0  0  0  0  0  0  0  0
    0.5484   -3.6313    0.2196 C   0  0  2  0  0  0  0  0  0  0  0  0
   -0.2940   -2.4416   -0.2910 C   0  0  0  0  0  0  0  0  0  0  0  0
   -1.3049   -2.6611   -0.9509 O   0  0  0  0  0  0  0  0  0  0  0  0
    1.9307   -3.6456   -0.4428 C   0  0  0  0  0  0  0  0  0  0  0  0
   -0.8240   -4.9008   -0.7914 H   0  0  0  0  0  0  0  0  0  0  0  0
    0.6692   -3.5041    1.3007 H   0  0  0  0  0  0  0  0  0  0  0  0
    1.8344   -3.7365   -1.5296 H   0  0  0  0  0  0  0  0  0  0  0  0
    2.4775   -2.7243   -0.2197 H   0  0  0  0  0  0  0  0  0  0  0  0
    2.5193   -4.4909   -0.0725 H   0  0  0  0  0  0  0  0  0  0  0  0
    0.1377   -1.1479   -0.0602 N   0  0  0  0  0  0  0  0  0  0  0  0
   -0.4823    0.1145   -0.5125 C   0  0  2  0  0  0  0  0  0  0  0  0
   -2.0225    0.1281   -0.6882 C   0  0  0  0  0  0  0  0  0  0  0  0
   -2.7296    0.4799    0.2476 O   0  0  0  0  0  0  0  0  0  0  0  0
    0.2175    0.4929   -1.8305 C   0  0  0  0  0  0  0  0  0  0  0  0
    1.6937    0.8576   -1.6057 C   0  0  0  0  0  0  0  0  0  0  0  0
    2.3539    1.2000   -2.9375 C   0  0  0  0  0  0  0  0  0  0  0  0
    2.2051    2.3639   -3.3810 O   0  5  0  0  0  0  0  0  0  0  0  0
    2.9558    0.2729   -3.5321 O   0  0  0  0  0  0  0  0  0  0  0  0
    1.0550   -1.0657    0.3686 H   0  0  0  0  0  0  0  0  0  0  0  0
   -0.2661    0.8894    0.2299 H   0  0  0  0  0  0  0  0  0  0  0  0
   -0.2857    1.3570   -2.2798 H   0  0  0  0  0  0  0  0  0  0  0  0
    0.1532   -0.3369   -2.5435 H   0  0  0  0  0  0  0  0  0  0  0  0
    1.7686    1.7169   -0.9327 H   0  0  0  0  0  0  0  0  0  0  0  0
    2.2334    0.0243   -1.1472 H   0  0  0  0  0  0  0  0  0  0  0  0
   -2.6265   -0.2044   -1.8881 N   0  0  0  0  0  0  0  0  0  0  0  0
   -4.0765   -0.1476   -2.1321 C   0  0  2  0  0  0  0  0  0  0  0  0
   -4.8546   -1.3987   -1.6605 C   0  0  0  0  0  0  0  0  0  0  0  0
   -6.0734   -1.4501   -1.7925 O   0  0  0  0  0  0  0  0  0  0  0  0
   -4.2643    0.0733   -3.6360 C   0  0  0  0  0  0  0  0  0  0  0  0
   -2.0290   -0.6538   -2.5774 H   0  0  0  0  0  0  0  0  0  0  0  0
   -4.4990    0.7129   -1.6023 H   0  0  0  0  0  0  0  0  0  0  0  0
   -3.8752   -0.7796   -4.2012 H   0  0  0  0  0  0  0  0  0  0  0  0
   -5.3261    0.1927   -3.8733 H   0  0  0  0  0  0  0  0  0  0  0  0
   -3.7363    0.9768   -3.9572 H   0  0  0  0  0  0  0  0  0  0  0  0
   -4.1923   -2.5071   -1.1675 N   0  0  0  0  0  0  0  0  0  0  0  0
   -4.8590   -3.7007   -0.6719 C   0  0  0  0  0  0  0  0  0  0  0  0
   -3.1796   -2.4181   -1.0433 H   0  0  0  0  0  0  0  0  0  0  0  0
   -5.4635   -3.4618    0.2089 H   0  0  0  0  0  0  0  0  0  0  0  0
   -5.5083   -4.1260   -1.4439 H   0  0  0  0  0  0  0  0  0  0  0  0
   -4.1164   -4.4535   -0.3915 H   0  0  0  0  0  0  0  0  0  0  0  0
  1  2  2  0  0  0  0
  1  3  1  0  0  0  0
  1  7  1  0  0  0  0
  3  4  1  0  0  0  0
  3  5  1  0  0  0  0
  3  6  1  0  0  0  0
  7  8  1  0  0  0  0
  7 12  1  0  0  0  0
  8  9  1  0  0  0  0
  8 11  1  0  0  0  0
  8 13  1  0  0  0  0
  9 10  2  0  0  0  0
  9 17  1  0  0  0  0
 11 14  1  0  0  0  0
 11 15  1  0  0  0  0
 11 16  1  0  0  0  0
 17 18  1  0  0  0  0
 17 26  1  0  0  0  0
 18 19  1  0  0  0  0
 18 21  1  0  0  0  0
 18 27  1  0  0  0  0
 19 20  2  0  0  0  0
 19 32  1  0  0  0  0
 21 22  1  0  0  0  0
 21 28  1  0  0  0  0
 21 29  1  0  0  0  0
 22 23  1  0  0  0  0
 22 30  1  0  0  0  0
 22 31  1  0  0  0  0
 23 24  1  0  0  0  0
 23 25  2  0  0  0  0
 32 33  1  0  0  0  0
 32 37  1  0  0  0  0
 33 34  1  0  0  0  0
 33 36  1  0  0  0  0
 33 38  1  0  0  0  0
 34 35  2  0  0  0  0
 34 42  1  0  0  0  0
 36 39  1  0  0  0  0
 36 40  1  0  0  0  0
 36 41  1  0  0  0  0
 42 43  1  0  0  0  0
 42 44  1  0  0  0  0
 43 45  1  0  0  0  0
 43 46  1  0  0  0  0
 43 47  1  0  0  0  0
M  CHG  1  24  -1
M  END
$$$$

  -OEChem-05262216243D

 47 46  0     1  0  0  0  0  0999 V2000
    0.1020   -6.1131    0.7043 C   0  0  0  0  0  0  0  0  0  0  0  0
    0.7229   -6.0572    1.7549 O   0  0  0  0  0  0  0  0  0  0  0  0
   -0.7146   -7.3476    0.3689 C   0  0  0  0  0  0  0  0  0  0  0  0
   -0.3490   -7.7956   -0.5583 H   0  0  0  0  0  0  0  0  0  0  0  0
   -0.6351   -8.0846    1.1729 H   0  0  0  0  0  0  0  0  0  0  0  0
   -1.7655   -7.0757    0.2430 H   0  0  0  0  0  0  0  0  0  0  0  0
    0.1251   -5.0549   -0.1775 N   0  0  0  0  0  0  0  0  0  0  0  0
    0.7005   -3.7360    0.1174 C   0  0  2  0  0  0  0  0  0  0  0  0
   -0.1618   -2.6060   -0.4844 C   0  0  0  0  0  0  0  0  0  0  0  0
   -1.0303   -2.8898   -1.3012 O   0  0  0  0  0  0  0  0  0  0  0  0
    2.1238   -3.6930   -0.4472 C   0  0  0  0  0  0  0  0  0  0  0  0
   -0.5304   -5.0908   -0.9582 H   0  0  0  0  0  0  0  0  0  0  0  0
    0.7372   -3.5765    1.2003 H   0  0  0  0  0  0  0  0  0  0  0  0
    2.1107   -3.8353   -1.5328 H   0  0  0  0  0  0  0  0  0  0  0  0
    2.5972   -2.7305   -0.2299 H   0  0  0  0  0  0  0  0  0  0  0  0
    2.7326   -4.4844    0.0011 H   0  0  0  0  0  0  0  0  0  0  0  0
    0.0909   -1.2906   -0.1354 N   0  0  0  0  0  0  0  0  0  0  0  0
   -0.6196   -0.0648   -0.5622 C   0  0  2  0  0  0  0  0  0  0  0  0
   -2.1302   -0.1755   -0.8931 C   0  0  0  0  0  0  0  0  0  0  0  0
   -2.9520    0.2294   -0.0763 O   0  0  0  0  0  0  0  0  0  0  0  0
    0.1468    0.4974   -1.7720 C   0  0  0  0  0  0  0  0  0  0  0  0
    1.5447    0.9977   -1.3688 C   0  0  0  0  0  0  0  0  0  0  0  0
    2.2926    1.5264   -2.5891 C   0  0  0  0  0  0  0  0  0  0  0  0
    2.0330    2.6931   -2.9708 O   0  5  0  0  0  0  0  0  0  0  0  0
    3.0964    0.7450   -3.1538 O   0  0  0  0  0  0  0  0  0  0  0  0
    0.9249   -1.1460    0.4266 H   0  0  0  0  0  0  0  0  0  0  0  0
   -0.5536    0.6634    0.2526 H   0  0  0  0  0  0  0  0  0  0  0  0
   -0.4110    1.3362   -2.2043 H   0  0  0  0  0  0  0  0  0  0  0  0
    0.2416   -0.2705   -2.5478 H   0  0  0  0  0  0  0  0  0  0  0  0
    1.4552    1.7975   -0.6277 H   0  0  0  0  0  0  0  0  0  0  0  0
    2.1293    0.1895   -0.9202 H   0  0  0  0  0  0  0  0  0  0  0  0
   -2.5909   -0.7518   -2.0621 N   0  0  0  0  0  0  0  0  0  0  0  0
   -4.0133   -0.9776   -2.3610 C   0  0  2  0  0  0  0  0  0  0  0  0
   -4.6045   -2.1931   -1.6008 C   0  0  0  0  0  0  0  0  0  0  0  0
   -5.2194   -3.0868   -2.1757 O   0  0  0  0  0  0  0  0  0  0  0  0
   -4.1324   -1.1114   -3.8837 C   0  0  0  0  0  0  0  0  0  0  0  0
   -1.9229   -1.4101   -2.4680 H   0  0  0  0  0  0  0  0  0  0  0  0
   -4.5901   -0.0981   -2.0569 H   0  0  0  0  0  0  0  0  0  0  0  0
   -3.5812   -1.9892   -4.2361 H   0  0  0  0  0  0  0  0  0  0  0  0
   -5.1818   -1.2187   -4.1755 H   0  0  0  0  0  0  0  0  0  0  0  0
   -3.7262   -0.2223   -4.3764 H   0  0  0  0  0  0  0  0  0  0  0  0
   -4.4867   -2.2469   -0.2257 N   0  0  0  0  0  0  0  0  0  0  0  0
   -4.9510   -3.3527    0.5973 C   0  0  0  0  0  0  0  0  0  0  0  0
   -3.9680   -1.4776    0.2057 H   0  0  0  0  0  0  0  0  0  0  0  0
   -6.0346   -3.4738    0.4986 H   0  0  0  0  0  0  0  0  0  0  0  0
   -4.4603   -4.2841    0.2966 H   0  0  0  0  0  0  0  0  0  0  0  0
   -4.7175   -3.1620    1.6491 H   0  0  0  0  0  0  0  0  0  0  0  0
  1  2  2  0  0  0  0
  1  3  1  0  0  0  0
  1  7  1  0  0  0  0
  3  4  1  0  0  0  0
  3  5  1  0  0  0  0
  3  6  1  0  0  0  0
  7  8  1  0  0  0  0
  7 12  1  0  0  0  0
  8  9  1  0  0  0  0
  8 11  1  0  0  0  0
  8 13  1  0  0  0  0
  9 10  2  0  0  0  0
  9 17  1  0  0  0  0
 11 14  1  0  0  0  0
 11 15  1  0  0  0  0
 11 16  1  0  0  0  0
 17 18  1  0  0  0  0
 17 26  1  0  0  0  0
 18 19  1  0  0  0  0
 18 21  1  0  0  0  0
 18 27  1  0  0  0  0
 19 20  2  0  0  0  0
 19 32  1  0  0  0  0
 21 22  1  0  0  0  0
 21 28  1  0  0  0  0
 21 29  1  0  0  0  0
 22 23  1  0  0  0  0
 22 30  1  0  0  0  0
 22 31  1  0  0  0  0
 23 24  1  0  0  0  0
 23 25  2  0  0  0  0
 32 33  1  0  0  0  0
 32 37  1  0  0  0  0
 33 34  1  0  0  0  0
 33 36  1  0  0  0  0
 33 38  1  0  0  0  0
 34 35  2  0  0  0  0
 34 42  1  0  0  0  0
 36 39  1  0  0  0  0
 36 40  1  0  0  0  0
 36 41  1  0  0  0  0
 42 43  1  0  0  0  0
 42 44  1  0  0  0  0
 43 45  1  0  0  0  0
 43 46  1  0  0  0  0
 43 47  1  0  0  0  0
M  CHG  1  24  -1
M  END
$$$$

  -OEChem-05262216243D

 47 46  0     1  0  0  0  0  0999 V2000
    0.3141   -5.9777    1.1479 C   0  0  0  0  0  0  0  0  0  0  0  0
    0.9284   -5.7880    2.1860 O   0  0  0  0  0  0  0  0  0  0  0  0
   -0.4521   -7.2720    0.9455 C   0  0  0  0  0  0  0  0  0  0  0  0
   -0.1002   -7.7767    0.0423 H   0  0  0  0  0  0  0  0  0  0  0  0
   -0.3032   -7.9368    1.8010 H   0  0  0  0  0  0  0  0  0  0  0  0
   -1.5198   -7.0614    0.8439 H   0  0  0  0  0  0  0  0  0  0  0  0
    0.2950   -5.0173    0.1594 N   0  0  0  0  0  0  0  0  0  0  0  0
    0.8056   -3.6478    0.3183 C   0  0  2  0  0  0  0  0  0  0  0  0
   -0.1834   -2.6042   -0.2446 C   0  0  0  0  0  0  0  0  0  0  0  0
   -1.1409   -2.9895   -0.9063 O   0  0  0  0  0  0  0  0  0  0  0  0
    2.1541   -3.5572   -0.4031 C   0  0  0  0  0  0  0  0  0  0  0  0
   -0.3570   -5.1667   -0.6089 H   0  0  0  0  0  0  0  0  0  0  0  0
    0.9505   -3.4186    1.3795 H   0  0  0  0  0  0  0  0  0  0  0  0
    2.0297   -3.7496   -1.4737 H   0  0  0  0  0  0  0  0  0  0  0  0
    2.5944   -2.5628   -0.2794 H   0  0  0  0  0  0  0  0  0  0  0  0
    2.8518   -4.2949    0.0057 H   0  0  0  0  0  0  0  0  0  0  0  0
    0.0628   -1.2596   -0.0328 N   0  0  0  0  0  0  0  0  0  0  0  0
   -0.6486   -0.0572   -0.5285 C   0  0  2  0  0  0  0  0  0  0  0  0
   -2.1733   -0.1081   -0.8160 C   0  0  0  0  0  0  0  0  0  0  0  0
   -2.9173    0.6225   -0.1744 O   0  0  0  0  0  0  0  0  0  0  0  0
    0.0792    0.3515   -1.8218 C   0  0  0  0  0  0  0  0  0  0  0  0
    1.5157    0.8402   -1.5384 C   0  0  0  0  0  0  0  0  0  0  0  0
    2.2894    1.2348   -2.8003 C   0  0  0  0  0  0  0  0  0  0  0  0
    3.4771    1.6000   -2.6277 O   0  5  0  0  0  0  0  0  0  0  0  0
    1.7269    1.1343   -3.9192 O   0  0  0  0  0  0  0  0  0  0  0  0
    0.9494   -1.0673    0.4262 H   0  0  0  0  0  0  0  0  0  0  0  0
   -0.5180    0.7374    0.2136 H   0  0  0  0  0  0  0  0  0  0  0  0
   -0.4713    1.1642   -2.3101 H   0  0  0  0  0  0  0  0  0  0  0  0
    0.1053   -0.4925   -2.5206 H   0  0  0  0  0  0  0  0  0  0  0  0
    1.4769    1.7065   -0.8718 H   0  0  0  0  0  0  0  0  0  0  0  0
    2.0853    0.0554   -1.0342 H   0  0  0  0  0  0  0  0  0  0  0  0
   -2.7344   -0.9669   -1.7417 N   0  0  0  0  0  0  0  0  0  0  0  0
   -4.1820   -1.1397   -1.9472 C   0  0  2  0  0  0  0  0  0  0  0  0
   -4.8082   -2.2360   -1.0549 C   0  0  0  0  0  0  0  0  0  0  0  0
   -6.0226   -2.4074   -1.0449 O   0  0  0  0  0  0  0  0  0  0  0  0
   -4.3869   -1.4642   -3.4287 C   0  0  0  0  0  0  0  0  0  0  0  0
   -2.1116   -1.7170   -2.0468 H   0  0  0  0  0  0  0  0  0  0  0  0
   -4.7040   -0.2028   -1.7263 H   0  0  0  0  0  0  0  0  0  0  0  0
   -3.8932   -2.4063   -3.6874 H   0  0  0  0  0  0  0  0  0  0  0  0
   -5.4540   -1.5560   -3.6541 H   0  0  0  0  0  0  0  0  0  0  0  0
   -3.9697   -0.6670   -4.0519 H   0  0  0  0  0  0  0  0  0  0  0  0
   -4.0071   -3.1022   -0.3332 N   0  0  0  0  0  0  0  0  0  0  0  0
   -4.5140   -4.1877    0.4918 C   0  0  0  0  0  0  0  0  0  0  0  0
   -2.9970   -2.9713   -0.4217 H   0  0  0  0  0  0  0  0  0  0  0  0
   -5.1647   -3.7963    1.2806 H   0  0  0  0  0  0  0  0  0  0  0  0
   -5.0828   -4.8979   -0.1170 H   0  0  0  0  0  0  0  0  0  0  0  0
   -3.6822   -4.7210    0.9618 H   0  0  0  0  0  0  0  0  0  0  0  0
  1  2  2  0  0  0  0
  1  3  1  0  0  0  0
  1  7  1  0  0  0  0
  3  4  1  0  0  0  0
  3  5  1  0  0  0  0
  3  6  1  0  0  0  0
  7  8  1  0  0  0  0
  7 12  1  0  0  0  0
  8  9  1  0  0  0  0
  8 11  1  0  0  0  0
  8 13  1  0  0  0  0
  9 10  2  0  0  0  0
  9 17  1  0  0  0  0
 11 14  1  0  0  0  0
 11 15  1  0  0  0  0
 11 16  1  0  0  0  0
 17 18  1  0  0  0  0
 17 26  1  0  0  0  0
 18 19  1  0  0  0  0
 18 21  1  0  0  0  0
 18 27  1  0  0  0  0
 19 20  2  0  0  0  0
 19 32  1  0  0  0  0
 21 22  1  0  0  0  0
 21 28  1  0  0  0  0
 21 29  1  0  0  0  0
 22 23  1  0  0  0  0
 22 30  1  0  0  0  0
 22 31  1  0  0  0  0
 23 24  1  0  0  0  0
 23 25  2  0  0  0  0
 32 33  1  0  0  0  0
 32 37  1  0  0  0  0
 33 34  1  0  0  0  0
 33 36  1  0  0  0  0
 33 38  1  0  0  0  0
 34 35  2  0  0  0  0
 34 42  1  0  0  0  0
 36 39  1  0  0  0  0
 36 40  1  0  0  0  0
 36 41  1  0  0  0  0
 42 43  1  0  0  0  0
 42 44  1  0  0  0  0
 43 45  1  0  0  0  0
 43 46  1  0  0  0  0
 43 47  1  0  0  0  0
M  CHG  1  24  -1
M  END
$$$$

  -OEChem-05262216243D

 47 46  0     1  0  0  0  0  0999 V2000
    0.1541   -5.7613    1.3072 C   0  0  0  0  0  0  0  0  0  0  0  0
    0.3735   -5.2682    2.4024 O   0  0  0  0  0  0  0  0  0  0  0  0
   -0.6360   -7.0528    1.2042 C   0  0  0  0  0  0  0  0  0  0  0  0
   -0.0381   -7.8173    0.7021 H   0  0  0  0  0  0  0  0  0  0  0  0
   -0.9030   -7.4129    2.2018 H   0  0  0  0  0  0  0  0  0  0  0  0
   -1.5528   -6.8834    0.6335 H   0  0  0  0  0  0  0  0  0  0  0  0
    0.5923   -5.1413    0.1560 N   0  0  0  0  0  0  0  0  0  0  0  0
    1.0726   -3.7513    0.1281 C   0  0  2  0  0  0  0  0  0  0  0  0
   -0.0433   -2.7561   -0.2578 C   0  0  0  0  0  0  0  0  0  0  0  0
   -1.0448   -3.1776   -0.8239 O   0  0  0  0  0  0  0  0  0  0  0  0
    2.2194   -3.6774   -0.8840 C   0  0  0  0  0  0  0  0  0  0  0  0
    0.1833   -5.4916   -0.7064 H   0  0  0  0  0  0  0  0  0  0  0  0
    1.4601   -3.4610    1.1106 H   0  0  0  0  0  0  0  0  0  0  0  0
    1.8653   -3.9392   -1.8864 H   0  0  0  0  0  0  0  0  0  0  0  0
    2.6373   -2.6661   -0.9211 H   0  0  0  0  0  0  0  0  0  0  0  0
    3.0189   -4.3700   -0.6033 H   0  0  0  0  0  0  0  0  0  0  0  0
    0.1574   -1.4085   -0.0161 N   0  0  0  0  0  0  0  0  0  0  0  0
   -0.5881   -0.2024   -0.4555 C   0  0  2  0  0  0  0  0  0  0  0  0
   -2.1177   -0.2257   -0.7315 C   0  0  0  0  0  0  0  0  0  0  0  0
   -2.8099    0.6422   -0.2158 O   0  0  0  0  0  0  0  0  0  0  0  0
    0.1213    0.2418   -1.7472 C   0  0  0  0  0  0  0  0  0  0  0  0
    1.5556    0.7370   -1.4683 C   0  0  0  0  0  0  0  0  0  0  0  0
    2.2685    1.1532   -2.7546 C   0  0  0  0  0  0  0  0  0  0  0  0
    2.8007    2.2882   -2.7886 O   0  5  0  0  0  0  0  0  0  0  0  0
    2.3002    0.3156   -3.6904 O   0  0  0  0  0  0  0  0  0  0  0  0
    1.0732   -1.2030    0.3746 H   0  0  0  0  0  0  0  0  0  0  0  0
   -0.4459    0.5682    0.3097 H   0  0  0  0  0  0  0  0  0  0  0  0
   -0.4383    1.0625   -2.2105 H   0  0  0  0  0  0  0  0  0  0  0  0
    0.1409   -0.5863   -2.4654 H   0  0  0  0  0  0  0  0  0  0  0  0
    1.5162    1.5904   -0.7848 H   0  0  0  0  0  0  0  0  0  0  0  0
    2.1530   -0.0437   -0.9913 H   0  0  0  0  0  0  0  0  0  0  0  0
   -2.7557   -1.2158   -1.4524 N   0  0  0  0  0  0  0  0  0  0  0  0
   -4.2126   -1.4275   -1.4731 C   0  0  2  0  0  0  0  0  0  0  0  0
   -4.6909   -2.4278   -0.3964 C   0  0  0  0  0  0  0  0  0  0  0  0
   -5.8888   -2.6019   -0.1998 O   0  0  0  0  0  0  0  0  0  0  0  0
   -4.5791   -1.9230   -2.8738 C   0  0  0  0  0  0  0  0  0  0  0  0
   -2.1566   -2.0068   -1.6978 H   0  0  0  0  0  0  0  0  0  0  0  0
   -4.7358   -0.4818   -1.2969 H   0  0  0  0  0  0  0  0  0  0  0  0
   -4.0949   -2.8827   -3.0810 H   0  0  0  0  0  0  0  0  0  0  0  0
   -5.6626   -2.0528   -2.9587 H   0  0  0  0  0  0  0  0  0  0  0  0
   -4.2576   -1.1978   -3.6280 H   0  0  0  0  0  0  0  0  0  0  0  0
   -3.7793   -3.2084    0.2926 N   0  0  0  0  0  0  0  0  0  0  0  0
   -4.1431   -4.1996    1.2933 C   0  0  0  0  0  0  0  0  0  0  0  0
   -2.7958   -3.0980    0.0368 H   0  0  0  0  0  0  0  0  0  0  0  0
   -4.7481   -3.7414    2.0825 H   0  0  0  0  0  0  0  0  0  0  0  0
   -4.7143   -5.0131    0.8351 H   0  0  0  0  0  0  0  0  0  0  0  0
   -3.2416   -4.6196    1.7497 H   0  0  0  0  0  0  0  0  0  0  0  0
  1  2  2  0  0  0  0
  1  3  1  0  0  0  0
  1  7  1  0  0  0  0
  3  4  1  0  0  0  0
  3  5  1  0  0  0  0
  3  6  1  0  0  0  0
  7  8  1  0  0  0  0
  7 12  1  0  0  0  0
  8  9  1  0  0  0  0
  8 11  1  0  0  0  0
  8 13  1  0  0  0  0
  9 10  2  0  0  0  0
  9 17  1  0  0  0  0
 11 14  1  0  0  0  0
 11 15  1  0  0  0  0
 11 16  1  0  0  0  0
 17 18  1  0  0  0  0
 17 26  1  0  0  0  0
 18 19  1  0  0  0  0
 18 21  1  0  0  0  0
 18 27  1  0  0  0  0
 19 20  2  0  0  0  0
 19 32  1  0  0  0  0
 21 22  1  0  0  0  0
 21 28  1  0  0  0  0
 21 29  1  0  0  0  0
 22 23  1  0  0  0  0
 22 30  1  0  0  0  0
 22 31  1  0  0  0  0
 23 24  1  0  0  0  0
 23 25  2  0  0  0  0
 32 33  1  0  0  0  0
 32 37  1  0  0  0  0
 33 34  1  0  0  0  0
 33 36  1  0  0  0  0
 33 38  1  0  0  0  0
 34 35  2  0  0  0  0
 34 42  1  0  0  0  0
 36 39  1  0  0  0  0
 36 40  1  0  0  0  0
 36 41  1  0  0  0  0
 42 43  1  0  0  0  0
 42 44  1  0  0  0  0
 43 45  1  0  0  0  0
 43 46  1  0  0  0  0
 43 47  1  0  0  0  0
M  CHG  1  24  -1
M  END
$$$$

  -OEChem-05262216243D

 47 46  0     1  0  0  0  0  0999 V2000
    0.2972   -4.4568    1.3436 C   0  0  0  0  0  0  0  0  0  0  0  0
    1.3286   -3.8311    1.5395 O   0  0  0  0  0  0  0  0  0  0  0  0
   -0.5571   -4.8883    2.5190 C   0  0  0  0  0  0  0  0  0  0  0  0
   -0.6852   -4.0531    3.2122 H   0  0  0  0  0  0  0  0  0  0  0  0
   -1.5397   -5.2180    2.1741 H   0  0  0  0  0  0  0  0  0  0  0  0
   -0.0732   -5.7165    3.0424 H   0  0  0  0  0  0  0  0  0  0  0  0
   -0.0798   -4.7544    0.0521 N   0  0  0  0  0  0  0  0  0  0  0  0
    0.7049   -4.3598   -1.1289 C   0  0  2  0  0  0  0  0  0  0  0  0
    0.4078   -2.9012   -1.5412 C   0  0  0  0  0  0  0  0  0  0  0  0
   -0.0696   -2.6495   -2.6418 O   0  0  0  0  0  0  0  0  0  0  0  0
    0.3983   -5.3771   -2.2349 C   0  0  0  0  0  0  0  0  0  0  0  0
   -1.0655   -5.0015   -0.0808 H   0  0  0  0  0  0  0  0  0  0  0  0
    1.7757   -4.4219   -0.9070 H   0  0  0  0  0  0  0  0  0  0  0  0
   -0.6652   -5.3551   -2.4943 H   0  0  0  0  0  0  0  0  0  0  0  0
    0.9800   -5.1477   -3.1335 H   0  0  0  0  0  0  0  0  0  0  0  0
    0.6571   -6.3873   -1.9040 H   0  0  0  0  0  0  0  0  0  0  0  0
    0.6000   -1.8898   -0.6168 N   0  0  0  0  0  0  0  0  0  0  0  0
   -0.2784   -0.7196   -0.3560 C   0  0  2  0  0  0  0  0  0  0  0  0
   -1.8097   -0.8638   -0.5862 C   0  0  0  0  0  0  0  0  0  0  0  0
   -2.5776   -0.4351    0.2716 O   0  0  0  0  0  0  0  0  0  0  0  0
    0.2348    0.4662   -1.1921 C   0  0  0  0  0  0  0  0  0  0  0  0
    1.6164    0.9506   -0.7114 C   0  0  0  0  0  0  0  0  0  0  0  0
    2.1328    2.1138   -1.5608 C   0  0  0  0  0  0  0  0  0  0  0  0
    1.3991    3.1290   -1.6655 O   0  5  0  0  0  0  0  0  0  0  0  0
    3.2710    1.9984   -2.0788 O   0  0  0  0  0  0  0  0  0  0  0  0
    1.0959   -2.2282    0.2115 H   0  0  0  0  0  0  0  0  0  0  0  0
   -0.1634   -0.4587    0.7008 H   0  0  0  0  0  0  0  0  0  0  0  0
   -0.4720    1.3003   -1.1148 H   0  0  0  0  0  0  0  0  0  0  0  0
    0.2924    0.1801   -2.2481 H   0  0  0  0  0  0  0  0  0  0  0  0
    1.5478    1.2801    0.3291 H   0  0  0  0  0  0  0  0  0  0  0  0
    2.3377    0.1294   -0.7572 H   0  0  0  0  0  0  0  0  0  0  0  0
   -2.3581   -1.7109   -1.5284 N   0  0  0  0  0  0  0  0  0  0  0  0
   -3.6041   -2.4527   -1.3259 C   0  0  2  0  0  0  0  0  0  0  0  0
   -3.5503   -3.3399   -0.0568 C   0  0  0  0  0  0  0  0  0  0  0  0
   -3.0413   -4.4610   -0.0640 O   0  0  0  0  0  0  0  0  0  0  0  0
   -3.8531   -3.2836   -2.5884 C   0  0  0  0  0  0  0  0  0  0  0  0
   -1.6813   -2.0958   -2.1920 H   0  0  0  0  0  0  0  0  0  0  0  0
   -4.4310   -1.7440   -1.2127 H   0  0  0  0  0  0  0  0  0  0  0  0
   -3.0257   -3.9795   -2.7628 H   0  0  0  0  0  0  0  0  0  0  0  0
   -4.7781   -3.8594   -2.4879 H   0  0  0  0  0  0  0  0  0  0  0  0
   -3.9443   -2.6282   -3.4602 H   0  0  0  0  0  0  0  0  0  0  0  0
   -4.0499   -2.8192    1.1216 N   0  0  0  0  0  0  0  0  0  0  0  0
   -3.9444   -3.4767    2.4159 C   0  0  0  0  0  0  0  0  0  0  0  0
   -4.1159   -1.7985    1.1177 H   0  0  0  0  0  0  0  0  0  0  0  0
   -4.0978   -4.5569    2.3244 H   0  0  0  0  0  0  0  0  0  0  0  0
   -2.9593   -3.2926    2.8531 H   0  0  0  0  0  0  0  0  0  0  0  0
   -4.7053   -3.0826    3.0963 H   0  0  0  0  0  0  0  0  0  0  0  0
  1  2  2  0  0  0  0
  1  3  1  0  0  0  0
  1  7  1  0  0  0  0
  3  4  1  0  0  0  0
  3  5  1  0  0  0  0
  3  6  1  0  0  0  0
  7  8  1  0  0  0  0
  7 12  1  0  0  0  0
  8  9  1  0  0  0  0
  8 11  1  0  0  0  0
  8 13  1  0  0  0  0
  9 10  2  0  0  0  0
  9 17  1  0  0  0  0
 11 14  1  0  0  0  0
 11 15  1  0  0  0  0
 11 16  1  0  0  0  0
 17 18  1  0  0  0  0
 17 26  1  0  0  0  0
 18 19  1  0  0  0  0
 18 21  1  0  0  0  0
 18 27  1  0  0  0  0
 19 20  2  0  0  0  0
 19 32  1  0  0  0  0
 21 22  1  0  0  0  0
 21 28  1  0  0  0  0
 21 29  1  0  0  0  0
 22 23  1  0  0  0  0
 22 30  1  0  0  0  0
 22 31  1  0  0  0  0
 23 24  1  0  0  0  0
 23 25  2  0  0  0  0
 32 33  1  0  0  0  0
 32 37  1  0  0  0  0
 33 34  1  0  0  0  0
 33 36  1  0  0  0  0
 33 38  1  0  0  0  0
 34 35  2  0  0  0  0
 34 42  1  0  0  0  0
 36 39  1  0  0  0  0
 36 40  1  0  0  0  0
 36 41  1  0  0  0  0
 42 43  1  0  0  0  0
 42 44  1  0  0  0  0
 43 45  1  0  0  0  0
 43 46  1  0  0  0  0
 43 47  1  0  0  0  0
M  CHG  1  24  -1
M  END
$$$$

  -OEChem-05262216243D

 47 46  0     1  0  0  0  0  0999 V2000
    0.5900   -4.3004    1.3500 C   0  0  0  0  0  0  0  0  0  0  0  0
    1.7122   -3.8165    1.3788 O   0  0  0  0  0  0  0  0  0  0  0  0
   -0.2418   -4.3512    2.6158 C   0  0  0  0  0  0  0  0  0  0  0  0
    0.4080   -4.3783    3.4943 H   0  0  0  0  0  0  0  0  0  0  0  0
   -0.8774   -3.4640    2.6699 H   0  0  0  0  0  0  0  0  0  0  0  0
   -0.8738   -5.2427    2.6159 H   0  0  0  0  0  0  0  0  0  0  0  0
    0.0452   -4.6786    0.1412 N   0  0  0  0  0  0  0  0  0  0  0  0
    0.6971   -4.4064   -1.1527 C   0  0  2  0  0  0  0  0  0  0  0  0
    0.4361   -2.9488   -1.5974 C   0  0  0  0  0  0  0  0  0  0  0  0
   -0.2553   -2.7102   -2.5812 O   0  0  0  0  0  0  0  0  0  0  0  0
    0.1831   -5.4488   -2.1529 C   0  0  0  0  0  0  0  0  0  0  0  0
   -0.9699   -4.8245    0.1491 H   0  0  0  0  0  0  0  0  0  0  0  0
    1.7816   -4.5336   -1.0653 H   0  0  0  0  0  0  0  0  0  0  0  0
   -0.9028   -5.3701   -2.2686 H   0  0  0  0  0  0  0  0  0  0  0  0
    0.6492   -5.2964   -3.1315 H   0  0  0  0  0  0  0  0  0  0  0  0
    0.4253   -6.4584   -1.8073 H   0  0  0  0  0  0  0  0  0  0  0  0
    0.7910   -1.9351   -0.7264 N   0  0  0  0  0  0  0  0  0  0  0  0
   -0.0118   -0.7490   -0.3340 C   0  0  2  0  0  0  0  0  0  0  0  0
   -1.5642   -0.8615   -0.3088 C   0  0  0  0  0  0  0  0  0  0  0  0
   -2.1836   -0.2381    0.5477 O   0  0  0  0  0  0  0  0  0  0  0  0
    0.3830    0.4175   -1.2588 C   0  0  0  0  0  0  0  0  0  0  0  0
    1.8344    0.8767   -1.0190 C   0  0  0  0  0  0  0  0  0  0  0  0
    2.2244    2.0194   -1.9588 C   0  0  0  0  0  0  0  0  0  0  0  0
    1.5423    3.0738   -1.9076 O   0  5  0  0  0  0  0  0  0  0  0  0
    3.2178    1.8468   -2.7079 O   0  0  0  0  0  0  0  0  0  0  0  0
    1.4109   -2.2747    0.0128 H   0  0  0  0  0  0  0  0  0  0  0  0
    0.2785   -0.4837    0.6875 H   0  0  0  0  0  0  0  0  0  0  0  0
   -0.2833    1.2688   -1.0779 H   0  0  0  0  0  0  0  0  0  0  0  0
    0.2605    0.1199   -2.3061 H   0  0  0  0  0  0  0  0  0  0  0  0
    1.9453    1.2187    0.0138 H   0  0  0  0  0  0  0  0  0  0  0  0
    2.5227    0.0405   -1.1718 H   0  0  0  0  0  0  0  0  0  0  0  0
   -2.2567   -1.8909   -0.9137 N   0  0  0  0  0  0  0  0  0  0  0  0
   -3.5767   -2.3776   -0.5171 C   0  0  2  0  0  0  0  0  0  0  0  0
   -3.4795   -3.3412    0.6848 C   0  0  0  0  0  0  0  0  0  0  0  0
   -2.8505   -4.3959    0.6026 O   0  0  0  0  0  0  0  0  0  0  0  0
   -4.2041   -3.0678   -1.7304 C   0  0  0  0  0  0  0  0  0  0  0  0
   -1.7464   -2.3922   -1.6440 H   0  0  0  0  0  0  0  0  0  0  0  0
   -4.2158   -1.5329   -0.2399 H   0  0  0  0  0  0  0  0  0  0  0  0
   -3.5861   -3.9104   -2.0574 H   0  0  0  0  0  0  0  0  0  0  0  0
   -5.2014   -3.4426   -1.4808 H   0  0  0  0  0  0  0  0  0  0  0  0
   -4.2961   -2.3613   -2.5615 H   0  0  0  0  0  0  0  0  0  0  0  0
   -4.1246   -3.0238    1.8657 N   0  0  0  0  0  0  0  0  0  0  0  0
   -4.0625   -3.8425    3.0695 C   0  0  0  0  0  0  0  0  0  0  0  0
   -4.4504   -2.0629    1.9485 H   0  0  0  0  0  0  0  0  0  0  0  0
   -4.2618   -4.8933    2.8341 H   0  0  0  0  0  0  0  0  0  0  0  0
   -3.0762   -3.7655    3.5363 H   0  0  0  0  0  0  0  0  0  0  0  0
   -4.8148   -3.5064    3.7895 H   0  0  0  0  0  0  0  0  0  0  0  0
  1  2  2  0  0  0  0
  1  3  1  0  0  0  0
  1  7  1  0  0  0  0
  3  4  1  0  0  0  0
  3  5  1  0  0  0  0
  3  6  1  0  0  0  0
  7  8  1  0  0  0  0
  7 12  1  0  0  0  0
  8  9  1  0  0  0  0
  8 11  1  0  0  0  0
  8 13  1  0  0  0  0
  9 10  2  0  0  0  0
  9 17  1  0  0  0  0
 11 14  1  0  0  0  0
 11 15  1  0  0  0  0
 11 16  1  0  0  0  0
 17 18  1  0  0  0  0
 17 26  1  0  0  0  0
 18 19  1  0  0  0  0
 18 21  1  0  0  0  0
 18 27  1  0  0  0  0
 19 20  2  0  0  0  0
 19 32  1  0  0  0  0
 21 22  1  0  0  0  0
 21 28  1  0  0  0  0
 21 29  1  0  0  0  0
 22 23  1  0  0  0  0
 22 30  1  0  0  0  0
 22 31  1  0  0  0  0
 23 24  1  0  0  0  0
 23 25  2  0  0  0  0
 32 33  1  0  0  0  0
 32 37  1  0  0  0  0
 33 34  1  0  0  0  0
 33 36  1  0  0  0  0
 33 38  1  0  0  0  0
 34 35  2  0  0  0  0
 34 42  1  0  0  0  0
 36 39  1  0  0  0  0
 36 40  1  0  0  0  0
 36 41  1  0  0  0  0
 42 43  1  0  0  0  0
 42 44  1  0  0  0  0
 43 45  1  0  0  0  0
 43 46  1  0  0  0  0
 43 47  1  0  0  0  0
M  CHG  1  24  -1
M  END
$$$$

  -OEChem-05262216243D

 47 46  0     1  0  0  0  0  0999 V2000
    0.8795   -5.3564    1.7290 C   0  0  0  0  0  0  0  0  0  0  0  0
    1.7231   -4.8617    2.4620 O   0  0  0  0  0  0  0  0  0  0  0  0
   -0.1660   -6.2948    2.3031 C   0  0  0  0  0  0  0  0  0  0  0  0
   -0.1387   -7.2522    1.7778 H   0  0  0  0  0  0  0  0  0  0  0  0
    0.0245   -6.4690    3.3657 H   0  0  0  0  0  0  0  0  0  0  0  0
   -1.1608   -5.8545    2.1915 H   0  0  0  0  0  0  0  0  0  0  0  0
    0.8599   -5.0625    0.3813 N   0  0  0  0  0  0  0  0  0  0  0  0
    1.5509   -3.9024   -0.2001 C   0  0  2  0  0  0  0  0  0  0  0  0
    0.5207   -2.8291   -0.5983 C   0  0  0  0  0  0  0  0  0  0  0  0
   -0.5284   -3.1967   -1.1121 O   0  0  0  0  0  0  0  0  0  0  0  0
    2.3425   -4.3672   -1.4243 C   0  0  0  0  0  0  0  0  0  0  0  0
    0.0125   -5.3506   -0.1061 H   0  0  0  0  0  0  0  0  0  0  0  0
    2.2493   -3.4602    0.5176 H   0  0  0  0  0  0  0  0  0  0  0  0
    1.6736   -4.8089   -2.1702 H   0  0  0  0  0  0  0  0  0  0  0  0
    2.8626   -3.5210   -1.8850 H   0  0  0  0  0  0  0  0  0  0  0  0
    3.0856   -5.1156   -1.1333 H   0  0  0  0  0  0  0  0  0  0  0  0
    0.7979   -1.4897   -0.3904 N   0  0  0  0  0  0  0  0  0  0  0  0
   -0.0839   -0.2987   -0.4851 C   0  0  2  0  0  0  0  0  0  0  0  0
   -1.6084   -0.4007   -0.1756 C   0  0  0  0  0  0  0  0  0  0  0  0
   -2.2621    0.6320   -0.0762 O   0  0  0  0  0  0  0  0  0  0  0  0
    0.1348    0.2648   -1.9041 C   0  0  0  0  0  0  0  0  0  0  0  0
    1.5633    0.8204   -2.0727 C   0  0  0  0  0  0  0  0  0  0  0  0
    1.7842    1.3546   -3.4860 C   0  0  0  0  0  0  0  0  0  0  0  0
    1.5518    2.5698   -3.6974 O   0  5  0  0  0  0  0  0  0  0  0  0
    2.1936    0.5400   -4.3500 O   0  0  0  0  0  0  0  0  0  0  0  0
    1.7513   -1.2981   -0.0973 H   0  0  0  0  0  0  0  0  0  0  0  0
    0.2859    0.4363    0.2362 H   0  0  0  0  0  0  0  0  0  0  0  0
   -0.5744    1.0780   -2.0967 H   0  0  0  0  0  0  0  0  0  0  0  0
   -0.0524   -0.5168   -2.6493 H   0  0  0  0  0  0  0  0  0  0  0  0
    1.7330    1.6272   -1.3537 H   0  0  0  0  0  0  0  0  0  0  0  0
    2.3052    0.0411   -1.8786 H   0  0  0  0  0  0  0  0  0  0  0  0
   -2.2409   -1.5694    0.1995 N   0  0  0  0  0  0  0  0  0  0  0  0
   -3.6429   -1.7016    0.6046 C   0  0  2  0  0  0  0  0  0  0  0  0
   -3.8633   -2.8768    1.5824 C   0  0  0  0  0  0  0  0  0  0  0  0
   -3.1056   -3.8428    1.6113 O   0  0  0  0  0  0  0  0  0  0  0  0
   -4.4906   -1.8893   -0.6563 C   0  0  0  0  0  0  0  0  0  0  0  0
   -1.7360   -2.4299   -0.0249 H   0  0  0  0  0  0  0  0  0  0  0  0
   -3.9599   -0.7882    1.1178 H   0  0  0  0  0  0  0  0  0  0  0  0
   -4.1858   -2.7956   -1.1897 H   0  0  0  0  0  0  0  0  0  0  0  0
   -5.5502   -1.9742   -0.3981 H   0  0  0  0  0  0  0  0  0  0  0  0
   -4.3659   -1.0330   -1.3269 H   0  0  0  0  0  0  0  0  0  0  0  0
   -4.9455   -2.8519    2.4449 N   0  0  0  0  0  0  0  0  0  0  0  0
   -5.2061   -3.8865    3.4370 C   0  0  0  0  0  0  0  0  0  0  0  0
   -5.5305   -2.0217    2.4320 H   0  0  0  0  0  0  0  0  0  0  0  0
   -5.3332   -4.8597    2.9513 H   0  0  0  0  0  0  0  0  0  0  0  0
   -4.3760   -3.9518    4.1481 H   0  0  0  0  0  0  0  0  0  0  0  0
   -6.1204   -3.6553    3.9918 H   0  0  0  0  0  0  0  0  0  0  0  0
  1  2  2  0  0  0  0
  1  3  1  0  0  0  0
  1  7  1  0  0  0  0
  3  4  1  0  0  0  0
  3  5  1  0  0  0  0
  3  6  1  0  0  0  0
  7  8  1  0  0  0  0
  7 12  1  0  0  0  0
  8  9  1  0  0  0  0
  8 11  1  0  0  0  0
  8 13  1  0  0  0  0
  9 10  2  0  0  0  0
  9 17  1  0  0  0  0
 11 14  1  0  0  0  0
 11 15  1  0  0  0  0
 11 16  1  0  0  0  0
 17 18  1  0  0  0  0
 17 26  1  0  0  0  0
 18 19  1  0  0  0  0
 18 21  1  0  0  0  0
 18 27  1  0  0  0  0
 19 20  2  0  0  0  0
 19 32  1  0  0  0  0
 21 22  1  0  0  0  0
 21 28  1  0  0  0  0
 21 29  1  0  0  0  0
 22 23  1  0  0  0  0
 22 30  1  0  0  0  0
 22 31  1  0  0  0  0
 23 24  1  0  0  0  0
 23 25  2  0  0  0  0
 32 33  1  0  0  0  0
 32 37  1  0  0  0  0
 33 34  1  0  0  0  0
 33 36  1  0  0  0  0
 33 38  1  0  0  0  0
 34 35  2  0  0  0  0
 34 42  1  0  0  0  0
 36 39  1  0  0  0  0
 36 40  1  0  0  0  0
 36 41  1  0  0  0  0
 42 43  1  0  0  0  0
 42 44  1  0  0  0  0
 43 45  1  0  0  0  0
 43 46  1  0  0  0  0
 43 47  1  0  0  0  0
M  CHG  1  24  -1
M  END
$$$$

  -OEChem-05262216243D

 47 46  0     1  0  0  0  0  0999 V2000
    0.9075   -5.2888    1.7570 C   0  0  0  0  0  0  0  0  0  0  0  0
    1.8465   -4.7916    2.3605 O   0  0  0  0  0  0  0  0  0  0  0  0
   -0.0991   -6.1487    2.4988 C   0  0  0  0  0  0  0  0  0  0  0  0
   -0.1133   -7.1564    2.0769 H   0  0  0  0  0  0  0  0  0  0  0  0
    0.1657   -6.2123    3.5579 H   0  0  0  0  0  0  0  0  0  0  0  0
   -1.0973   -5.7103    2.4130 H   0  0  0  0  0  0  0  0  0  0  0  0
    0.7443   -5.0663    0.4052 N   0  0  0  0  0  0  0  0  0  0  0  0
    1.4081   -3.9655   -0.3084 C   0  0  2  0  0  0  0  0  0  0  0  0
    0.4055   -2.8209   -0.5479 C   0  0  0  0  0  0  0  0  0  0  0  0
   -0.7373   -3.1104   -0.8791 O   0  0  0  0  0  0  0  0  0  0  0  0
    1.9455   -4.4991   -1.6378 C   0  0  0  0  0  0  0  0  0  0  0  0
   -0.1666   -5.3356    0.0368 H   0  0  0  0  0  0  0  0  0  0  0  0
    2.2504   -3.5729    0.2707 H   0  0  0  0  0  0  0  0  0  0  0  0
    1.1303   -4.8955   -2.2515 H   0  0  0  0  0  0  0  0  0  0  0  0
    2.4405   -3.6986   -2.1969 H   0  0  0  0  0  0  0  0  0  0  0  0
    2.6705   -5.2991   -1.4598 H   0  0  0  0  0  0  0  0  0  0  0  0
    0.7969   -1.5067   -0.3638 N   0  0  0  0  0  0  0  0  0  0  0  0
   -0.0010   -0.2565   -0.4205 C   0  0  2  0  0  0  0  0  0  0  0  0
   -1.5083   -0.2715   -0.0263 C   0  0  0  0  0  0  0  0  0  0  0  0
   -2.1724    0.7558   -0.1142 O   0  0  0  0  0  0  0  0  0  0  0  0
    0.1866    0.2778   -1.8556 C   0  0  0  0  0  0  0  0  0  0  0  0
    1.6420    0.7241   -2.0990 C   0  0  0  0  0  0  0  0  0  0  0  0
    1.8322    1.2287   -3.5274 C   0  0  0  0  0  0  0  0  0  0  0  0
    2.1258    0.3749   -4.4009 O   0  5  0  0  0  0  0  0  0  0  0  0
    1.6970    2.4581   -3.7406 O   0  0  0  0  0  0  0  0  0  0  0  0
    1.7942   -1.3784   -0.2185 H   0  0  0  0  0  0  0  0  0  0  0  0
    0.4525    0.4554    0.2757 H   0  0  0  0  0  0  0  0  0  0  0  0
   -0.4665    1.1412   -2.0241 H   0  0  0  0  0  0  0  0  0  0  0  0
   -0.0958   -0.4929   -2.5817 H   0  0  0  0  0  0  0  0  0  0  0  0
    1.9062    1.5212   -1.3976 H   0  0  0  0  0  0  0  0  0  0  0  0
    2.3329   -0.1070   -1.9334 H   0  0  0  0  0  0  0  0  0  0  0  0
   -2.0803   -1.3237    0.6623 N   0  0  0  0  0  0  0  0  0  0  0  0
   -3.4842   -1.3979    1.0770 C   0  0  2  0  0  0  0  0  0  0  0  0
   -3.7108   -2.4520    2.1825 C   0  0  0  0  0  0  0  0  0  0  0  0
   -2.9660   -3.4201    2.3095 O   0  0  0  0  0  0  0  0  0  0  0  0
   -4.3410   -1.7365   -0.1481 C   0  0  0  0  0  0  0  0  0  0  0  0
   -1.5991   -2.2158    0.5305 H   0  0  0  0  0  0  0  0  0  0  0  0
   -3.7925   -0.4264    1.4766 H   0  0  0  0  0  0  0  0  0  0  0  0
   -4.0335   -2.6972   -0.5736 H   0  0  0  0  0  0  0  0  0  0  0  0
   -5.3978   -1.7973    0.1272 H   0  0  0  0  0  0  0  0  0  0  0  0
   -4.2296   -0.9658   -0.9172 H   0  0  0  0  0  0  0  0  0  0  0  0
   -4.7931   -2.3249    3.0357 N   0  0  0  0  0  0  0  0  0  0  0  0
   -5.0832   -3.2621    4.1125 C   0  0  0  0  0  0  0  0  0  0  0  0
   -5.3822   -1.5056    2.9209 H   0  0  0  0  0  0  0  0  0  0  0  0
   -5.2279   -4.2713    3.7131 H   0  0  0  0  0  0  0  0  0  0  0  0
   -4.2601   -3.2821    4.8344 H   0  0  0  0  0  0  0  0  0  0  0  0
   -5.9964   -2.9643    4.6363 H   0  0  0  0  0  0  0  0  0  0  0  0
  1  2  2  0  0  0  0
  1  3  1  0  0  0  0
  1  7  1  0  0  0  0
  3  4  1  0  0  0  0
  3  5  1  0  0  0  0
  3  6  1  0  0  0  0
  7  8  1  0  0  0  0
  7 12  1  0  0  0  0
  8  9  1  0  0  0  0
  8 11  1  0  0  0  0
  8 13  1  0  0  0  0
  9 10  2  0  0  0  0
  9 17  1  0  0  0  0
 11 14  1  0  0  0  0
 11 15  1  0  0  0  0
 11 16  1  0  0  0  0
 17 18  1  0  0  0  0
 17 26  1  0  0  0  0
 18 19  1  0  0  0  0
 18 21  1  0  0  0  0
 18 27  1  0  0  0  0
 19 20  2  0  0  0  0
 19 32  1  0  0  0  0
 21 22  1  0  0  0  0
 21 28  1  0  0  0  0
 21 29  1  0  0  0  0
 22 23  1  0  0  0  0
 22 30  1  0  0  0  0
 22 31  1  0  0  0  0
 23 24  1  0  0  0  0
 23 25  2  0  0  0  0
 32 33  1  0  0  0  0
 32 37  1  0  0  0  0
 33 34  1  0  0  0  0
 33 36  1  0  0  0  0
 33 38  1  0  0  0  0
 34 35  2  0  0  0  0
 34 42  1  0  0  0  0
 36 39  1  0  0  0  0
 36 40  1  0  0  0  0
 36 41  1  0  0  0  0
 42 43  1  0  0  0  0
 42 44  1  0  0  0  0
 43 45  1  0  0  0  0
 43 46  1  0  0  0  0
 43 47  1  0  0  0  0
M  CHG  1  24  -1
M  END
$$$$

  -OEChem-05262216243D

 47 46  0     1  0  0  0  0  0999 V2000
    1.3117   -5.9591    1.2744 C   0  0  0  0  0  0  0  0  0  0  0  0
    2.4339   -5.7616    1.7142 O   0  0  0  0  0  0  0  0  0  0  0  0
    0.4862   -7.1201    1.7979 C   0  0  0  0  0  0  0  0  0  0  0  0
    0.2715   -7.8205    0.9871 H   0  0  0  0  0  0  0  0  0  0  0  0
    1.0316   -7.6480    2.5851 H   0  0  0  0  0  0  0  0  0  0  0  0
   -0.4566   -6.7504    2.2096 H   0  0  0  0  0  0  0  0  0  0  0  0
    0.7768   -5.1321    0.3107 N   0  0  0  0  0  0  0  0  0  0  0  0
    1.3491   -3.8378   -0.0843 C   0  0  2  0  0  0  0  0  0  0  0  0
    0.2739   -2.7312   -0.0779 C   0  0  0  0  0  0  0  0  0  0  0  0
   -0.9076   -3.0535   -0.0896 O   0  0  0  0  0  0  0  0  0  0  0  0
    1.9496   -3.9867   -1.4852 C   0  0  0  0  0  0  0  0  0  0  0  0
   -0.2178   -5.2474    0.1205 H   0  0  0  0  0  0  0  0  0  0  0  0
    2.1373   -3.5371    0.6140 H   0  0  0  0  0  0  0  0  0  0  0  0
    1.1760   -4.2720   -2.2056 H   0  0  0  0  0  0  0  0  0  0  0  0
    2.3976   -3.0442   -1.8168 H   0  0  0  0  0  0  0  0  0  0  0  0
    2.7274   -4.7564   -1.4843 H   0  0  0  0  0  0  0  0  0  0  0  0
    0.6729   -1.4059   -0.0789 N   0  0  0  0  0  0  0  0  0  0  0  0
   -0.1187   -0.1821   -0.3507 C   0  0  2  0  0  0  0  0  0  0  0  0
   -1.6382   -0.1445   -0.0106 C   0  0  0  0  0  0  0  0  0  0  0  0
   -2.3706    0.7036   -0.5094 O   0  0  0  0  0  0  0  0  0  0  0  0
    0.1455    0.1157   -1.8428 C   0  0  0  0  0  0  0  0  0  0  0  0
    1.6162    0.5173   -2.0780 C   0  0  0  0  0  0  0  0  0  0  0  0
    1.8816    0.7856   -3.5566 C   0  0  0  0  0  0  0  0  0  0  0  0
    2.0801   -0.2175   -4.2861 O   0  5  0  0  0  0  0  0  0  0  0  0
    1.9091    1.9774   -3.9476 O   0  0  0  0  0  0  0  0  0  0  0  0
    1.6758   -1.2860   -0.1956 H   0  0  0  0  0  0  0  0  0  0  0  0
    0.3098    0.6288    0.2454 H   0  0  0  0  0  0  0  0  0  0  0  0
   -0.4858    0.9453   -2.1800 H   0  0  0  0  0  0  0  0  0  0  0  0
   -0.1106   -0.7581   -2.4527 H   0  0  0  0  0  0  0  0  0  0  0  0
    1.8496    1.4165   -1.5001 H   0  0  0  0  0  0  0  0  0  0  0  0
    2.2936   -0.2746   -1.7484 H   0  0  0  0  0  0  0  0  0  0  0  0
   -2.1590   -0.8869    1.0324 N   0  0  0  0  0  0  0  0  0  0  0  0
   -3.5800   -0.9167    1.3982 C   0  0  2  0  0  0  0  0  0  0  0  0
   -3.8148   -1.4249    2.8365 C   0  0  0  0  0  0  0  0  0  0  0  0
   -3.0080   -2.1597    3.3970 O   0  0  0  0  0  0  0  0  0  0  0  0
   -4.3198   -1.8170    0.4021 C   0  0  0  0  0  0  0  0  0  0  0  0
   -1.6171   -1.7242    1.2532 H   0  0  0  0  0  0  0  0  0  0  0  0
   -3.9882    0.0972    1.3392 H   0  0  0  0  0  0  0  0  0  0  0  0
   -3.9127   -2.8330    0.4331 H   0  0  0  0  0  0  0  0  0  0  0  0
   -5.3864   -1.8594    0.6408 H   0  0  0  0  0  0  0  0  0  0  0  0
   -4.2104   -1.4314   -0.6165 H   0  0  0  0  0  0  0  0  0  0  0  0
   -4.9750   -1.0754    3.5053 N   0  0  0  0  0  0  0  0  0  0  0  0
   -5.2880   -1.5205    4.8567 C   0  0  0  0  0  0  0  0  0  0  0  0
   -5.6207   -0.4554    3.0255 H   0  0  0  0  0  0  0  0  0  0  0  0
   -5.3420   -2.6134    4.8963 H   0  0  0  0  0  0  0  0  0  0  0  0
   -4.5211   -1.1787    5.5595 H   0  0  0  0  0  0  0  0  0  0  0  0
   -6.2534   -1.1153    5.1738 H   0  0  0  0  0  0  0  0  0  0  0  0
  1  2  2  0  0  0  0
  1  3  1  0  0  0  0
  1  7  1  0  0  0  0
  3  4  1  0  0  0  0
  3  5  1  0  0  0  0
  3  6  1  0  0  0  0
  7  8  1  0  0  0  0
  7 12  1  0  0  0  0
  8  9  1  0  0  0  0
  8 11  1  0  0  0  0
  8 13  1  0  0  0  0
  9 10  2  0  0  0  0
  9 17  1  0  0  0  0
 11 14  1  0  0  0  0
 11 15  1  0  0  0  0
 11 16  1  0  0  0  0
 17 18  1  0  0  0  0
 17 26  1  0  0  0  0
 18 19  1  0  0  0  0
 18 21  1  0  0  0  0
 18 27  1  0  0  0  0
 19 20  2  0  0  0  0
 19 32  1  0  0  0  0
 21 22  1  0  0  0  0
 21 28  1  0  0  0  0
 21 29  1  0  0  0  0
 22 23  1  0  0  0  0
 22 30  1  0  0  0  0
 22 31  1  0  0  0  0
 23 24  1  0  0  0  0
 23 25  2  0  0  0  0
 32 33  1  0  0  0  0
 32 37  1  0  0  0  0
 33 34  1  0  0  0  0
 33 36  1  0  0  0  0
 33 38  1  0  0  0  0
 34 35  2  0  0  0  0
 34 42  1  0  0  0  0
 36 39  1  0  0  0  0
 36 40  1  0  0  0  0
 36 41  1  0  0  0  0
 42 43  1  0  0  0  0
 42 44  1  0  0  0  0
 43 45  1  0  0  0  0
 43 46  1  0  0  0  0
 43 47  1  0  0  0  0
M  CHG  1  24  -1
M  END
$$$$

  -OEChem-05262216243D

 47 46  0     1  0  0  0  0  0999 V2000
    1.0979   -6.0112    1.1829 C   0  0  0  0  0  0  0  0  0  0  0  0
    2.2322   -5.8736    1.6143 O   0  0  0  0  0  0  0  0  0  0  0  0
    0.2412   -7.1668    1.6657 C   0  0  0  0  0  0  0  0  0  0  0  0
   -0.0735   -7.7777    0.8163 H   0  0  0  0  0  0  0  0  0  0  0  0
    0.8082   -7.7930    2.3600 H   0  0  0  0  0  0  0  0  0  0  0  0
   -0.6446   -6.7840    2.1785 H   0  0  0  0  0  0  0  0  0  0  0  0
    0.5784   -5.1195    0.2697 N   0  0  0  0  0  0  0  0  0  0  0  0
    1.1998   -3.8353   -0.0805 C   0  0  2  0  0  0  0  0  0  0  0  0
    0.1764   -2.6824   -0.0167 C   0  0  0  0  0  0  0  0  0  0  0  0
   -1.0187   -2.9467    0.0323 O   0  0  0  0  0  0  0  0  0  0  0  0
    1.7802   -3.9541   -1.4926 C   0  0  0  0  0  0  0  0  0  0  0  0
   -0.4225   -5.1876    0.0894 H   0  0  0  0  0  0  0  0  0  0  0  0
    2.0072   -3.5971    0.6199 H   0  0  0  0  0  0  0  0  0  0  0  0
    0.9871   -4.1686   -2.2163 H   0  0  0  0  0  0  0  0  0  0  0  0
    2.2734   -3.0224   -1.7887 H   0  0  0  0  0  0  0  0  0  0  0  0
    2.5176   -4.7616   -1.5319 H   0  0  0  0  0  0  0  0  0  0  0  0
    0.6375   -1.3774   -0.0282 N   0  0  0  0  0  0  0  0  0  0  0  0
   -0.1150   -0.1402   -0.3366 C   0  0  2  0  0  0  0  0  0  0  0  0
   -1.6351   -0.0965   -0.0103 C   0  0  0  0  0  0  0  0  0  0  0  0
   -2.4265    0.5415   -0.6967 O   0  0  0  0  0  0  0  0  0  0  0  0
    0.1820    0.1277   -1.8277 C   0  0  0  0  0  0  0  0  0  0  0  0
    1.6666    0.4875   -2.0401 C   0  0  0  0  0  0  0  0  0  0  0  0
    1.9677    0.7266   -3.5166 C   0  0  0  0  0  0  0  0  0  0  0  0
    2.1486   -0.2923   -4.2287 O   0  5  0  0  0  0  0  0  0  0  0  0
    2.0437    1.9118   -3.9213 O   0  0  0  0  0  0  0  0  0  0  0  0
    1.6394   -1.3041   -0.1867 H   0  0  0  0  0  0  0  0  0  0  0  0
    0.3162    0.6742    0.2526 H   0  0  0  0  0  0  0  0  0  0  0  0
   -0.4214    0.9679   -2.1877 H   0  0  0  0  0  0  0  0  0  0  0  0
   -0.0863   -0.7481   -2.4294 H   0  0  0  0  0  0  0  0  0  0  0  0
    1.9127    1.3888   -1.4703 H   0  0  0  0  0  0  0  0  0  0  0  0
    2.3165   -0.3172   -1.6867 H   0  0  0  0  0  0  0  0  0  0  0  0
   -2.0876   -0.5728    1.2063 N   0  0  0  0  0  0  0  0  0  0  0  0
   -3.4961   -0.5855    1.6175 C   0  0  2  0  0  0  0  0  0  0  0  0
   -3.6623   -0.7073    3.1464 C   0  0  0  0  0  0  0  0  0  0  0  0
   -2.8023   -1.2409    3.8400 O   0  0  0  0  0  0  0  0  0  0  0  0
   -4.1993   -1.7560    0.9212 C   0  0  0  0  0  0  0  0  0  0  0  0
   -1.4726   -1.2484    1.6565 H   0  0  0  0  0  0  0  0  0  0  0  0
   -3.9687    0.3529    1.3100 H   0  0  0  0  0  0  0  0  0  0  0  0
   -3.7390   -2.7053    1.2140 H   0  0  0  0  0  0  0  0  0  0  0  0
   -5.2593   -1.7826    1.1898 H   0  0  0  0  0  0  0  0  0  0  0  0
   -4.1219   -1.6555   -0.1661 H   0  0  0  0  0  0  0  0  0  0  0  0
   -4.8091   -0.2268    3.7545 N   0  0  0  0  0  0  0  0  0  0  0  0
   -5.0373   -0.2823    5.1925 C   0  0  0  0  0  0  0  0  0  0  0  0
   -5.4916    0.2373    3.1624 H   0  0  0  0  0  0  0  0  0  0  0  0
   -5.0333   -1.3205    5.5403 H   0  0  0  0  0  0  0  0  0  0  0  0
   -4.2572    0.2716    5.7249 H   0  0  0  0  0  0  0  0  0  0  0  0
   -6.0066    0.1612    5.4388 H   0  0  0  0  0  0  0  0  0  0  0  0
  1  2  2  0  0  0  0
  1  3  1  0  0  0  0
  1  7  1  0  0  0  0
  3  4  1  0  0  0  0
  3  5  1  0  0  0  0
  3  6  1  0  0  0  0
  7  8  1  0  0  0  0
  7 12  1  0  0  0  0
  8  9  1  0  0  0  0
  8 11  1  0  0  0  0
  8 13  1  0  0  0  0
  9 10  2  0  0  0  0
  9 17  1  0  0  0  0
 11 14  1  0  0  0  0
 11 15  1  0  0  0  0
 11 16  1  0  0  0  0
 17 18  1  0  0  0  0
 17 26  1  0  0  0  0
 18 19  1  0  0  0  0
 18 21  1  0  0  0  0
 18 27  1  0  0  0  0
 19 20  2  0  0  0  0
 19 32  1  0  0  0  0
 21 22  1  0  0  0  0
 21 28  1  0  0  0  0
 21 29  1  0  0  0  0
 22 23  1  0  0  0  0
 22 30  1  0  0  0  0
 22 31  1  0  0  0  0
 23 24  1  0  0  0  0
 23 25  2  0  0  0  0
 32 33  1  0  0  0  0
 32 37  1  0  0  0  0
 33 34  1  0  0  0  0
 33 36  1  0  0  0  0
 33 38  1  0  0  0  0
 34 35  2  0  0  0  0
 34 42  1  0  0  0  0
 36 39  1  0  0  0  0
 36 40  1  0  0  0  0
 36 41  1  0  0  0  0
 42 43  1  0  0  0  0
 42 44  1  0  0  0  0
 43 45  1  0  0  0  0
 43 46  1  0  0  0  0
 43 47  1  0  0  0  0
M  CHG  1  24  -1
M  END
$$$$

  -OEChem-05262216243D

 47 46  0     1  0  0  0  0  0999 V2000
    0.8475   -5.9128    1.2978 C   0  0  0  0  0  0  0  0  0  0  0  0
    1.9469   -5.7772    1.8127 O   0  0  0  0  0  0  0  0  0  0  0  0
   -0.0811   -7.0127    1.7786 C   0  0  0  0  0  0  0  0  0  0  0  0
   -0.3110   -7.6923    0.9544 H   0  0  0  0  0  0  0  0  0  0  0  0
    0.3917   -7.5813    2.5840 H   0  0  0  0  0  0  0  0  0  0  0  0
   -1.0112   -6.5781    2.1534 H   0  0  0  0  0  0  0  0  0  0  0  0
    0.4307   -5.0740    0.2868 N   0  0  0  0  0  0  0  0  0  0  0  0
    1.1015   -3.8173   -0.0749 C   0  0  2  0  0  0  0  0  0  0  0  0
    0.1244   -2.6237   -0.0129 C   0  0  0  0  0  0  0  0  0  0  0  0
   -1.0786   -2.8433    0.0659 O   0  0  0  0  0  0  0  0  0  0  0  0
    1.6671   -3.9722   -1.4894 C   0  0  0  0  0  0  0  0  0  0  0  0
   -0.5600   -5.1196    0.0527 H   0  0  0  0  0  0  0  0  0  0  0  0
    1.9243   -3.6057    0.6158 H   0  0  0  0  0  0  0  0  0  0  0  0
    0.8617   -4.1641   -2.2057 H   0  0  0  0  0  0  0  0  0  0  0  0
    2.1932   -3.0629   -1.7983 H   0  0  0  0  0  0  0  0  0  0  0  0
    2.3727   -4.8080   -1.5249 H   0  0  0  0  0  0  0  0  0  0  0  0
    0.6341   -1.3361   -0.0370 N   0  0  0  0  0  0  0  0  0  0  0  0
   -0.0873   -0.0879   -0.3689 C   0  0  2  0  0  0  0  0  0  0  0  0
   -1.6043   -0.0379   -0.0410 C   0  0  0  0  0  0  0  0  0  0  0  0
   -2.4465    0.3237   -0.8566 O   0  0  0  0  0  0  0  0  0  0  0  0
    0.2165    0.1749   -1.8582 C   0  0  0  0  0  0  0  0  0  0  0  0
    1.7077    0.5090   -2.0654 C   0  0  0  0  0  0  0  0  0  0  0  0
    2.0195    0.7441   -3.5402 C   0  0  0  0  0  0  0  0  0  0  0  0
    2.2045   -0.2761   -4.2489 O   0  5  0  0  0  0  0  0  0  0  0  0
    2.0996    1.9286   -3.9465 O   0  0  0  0  0  0  0  0  0  0  0  0
    1.6342   -1.3000   -0.2171 H   0  0  0  0  0  0  0  0  0  0  0  0
    0.3525    0.7253    0.2158 H   0  0  0  0  0  0  0  0  0  0  0  0
   -0.3753    1.0253   -2.2152 H   0  0  0  0  0  0  0  0  0  0  0  0
   -0.0653   -0.6965   -2.4603 H   0  0  0  0  0  0  0  0  0  0  0  0
    1.9680    1.4057   -1.4949 H   0  0  0  0  0  0  0  0  0  0  0  0
    2.3413   -0.3072   -1.7090 H   0  0  0  0  0  0  0  0  0  0  0  0
   -2.0048   -0.2032    1.2724 N   0  0  0  0  0  0  0  0  0  0  0  0
   -3.4036   -0.2293    1.7140 C   0  0  2  0  0  0  0  0  0  0  0  0
   -3.5450    0.0128    3.2310 C   0  0  0  0  0  0  0  0  0  0  0  0
   -2.6166   -0.2187    3.9991 O   0  0  0  0  0  0  0  0  0  0  0  0
   -4.0088   -1.5889    1.3455 C   0  0  0  0  0  0  0  0  0  0  0  0
   -1.3114   -0.5948    1.9055 H   0  0  0  0  0  0  0  0  0  0  0  0
   -3.9569    0.5636    1.2001 H   0  0  0  0  0  0  0  0  0  0  0  0
   -3.4519   -2.3972    1.8301 H   0  0  0  0  0  0  0  0  0  0  0  0
   -5.0543   -1.6448    1.6619 H   0  0  0  0  0  0  0  0  0  0  0  0
   -3.9679   -1.7431    0.2625 H   0  0  0  0  0  0  0  0  0  0  0  0
   -4.7431    0.4762    3.7457 N   0  0  0  0  0  0  0  0  0  0  0  0
   -4.9676    0.7214    5.1643 C   0  0  0  0  0  0  0  0  0  0  0  0
   -5.4901    0.6699    3.0852 H   0  0  0  0  0  0  0  0  0  0  0  0
   -4.8859   -0.2117    5.7312 H   0  0  0  0  0  0  0  0  0  0  0  0
   -4.2328    1.4349    5.5515 H   0  0  0  0  0  0  0  0  0  0  0  0
   -5.9675    1.1364    5.3221 H   0  0  0  0  0  0  0  0  0  0  0  0
  1  2  2  0  0  0  0
  1  3  1  0  0  0  0
  1  7  1  0  0  0  0
  3  4  1  0  0  0  0
  3  5  1  0  0  0  0
  3  6  1  0  0  0  0
  7  8  1  0  0  0  0
  7 12  1  0  0  0  0
  8  9  1  0  0  0  0
  8 11  1  0  0  0  0
  8 13  1  0  0  0  0
  9 10  2  0  0  0  0
  9 17  1  0  0  0  0
 11 14  1  0  0  0  0
 11 15  1  0  0  0  0
 11 16  1  0  0  0  0
 17 18  1  0  0  0  0
 17 26  1  0  0  0  0
 18 19  1  0  0  0  0
 18 21  1  0  0  0  0
 18 27  1  0  0  0  0
 19 20  2  0  0  0  0
 19 32  1  0  0  0  0
 21 22  1  0  0  0  0
 21 28  1  0  0  0  0
 21 29  1  0  0  0  0
 22 23  1  0  0  0  0
 22 30  1  0  0  0  0
 22 31  1  0  0  0  0
 23 24  1  0  0  0  0
 23 25  2  0  0  0  0
 32 33  1  0  0  0  0
 32 37  1  0  0  0  0
 33 34  1  0  0  0  0
 33 36  1  0  0  0  0
 33 38  1  0  0  0  0
 34 35  2  0  0  0  0
 34 42  1  0  0  0  0
 36 39  1  0  0  0  0
 36 40  1  0  0  0  0
 36 41  1  0  0  0  0
 42 43  1  0  0  0  0
 42 44  1  0  0  0  0
 43 45  1  0  0  0  0
 43 46  1  0  0  0  0
 43 47  1  0  0  0  0
M  CHG  1  24  -1
M  END
$$$$

  -OEChem-05262216243D

 47 46  0     1  0  0  0  0  0999 V2000
    0.8648   -5.9814    1.2002 C   0  0  0  0  0  0  0  0  0  0  0  0
    2.0142   -5.9146    1.6082 O   0  0  0  0  0  0  0  0  0  0  0  0
   -0.0602   -7.0642    1.7255 C   0  0  0  0  0  0  0  0  0  0  0  0
   -0.4335   -7.6714    0.8971 H   0  0  0  0  0  0  0  0  0  0  0  0
    0.4750   -7.7128    2.4246 H   0  0  0  0  0  0  0  0  0  0  0  0
   -0.9071   -6.6085    2.2447 H   0  0  0  0  0  0  0  0  0  0  0  0
    0.3840   -5.0697    0.2852 N   0  0  0  0  0  0  0  0  0  0  0  0
    1.0600   -3.8111   -0.0608 C   0  0  2  0  0  0  0  0  0  0  0  0
    0.1106   -2.6048    0.1092 C   0  0  0  0  0  0  0  0  0  0  0  0
   -1.0805   -2.8075    0.3161 O   0  0  0  0  0  0  0  0  0  0  0  0
    1.5412   -3.9110   -1.5115 C   0  0  0  0  0  0  0  0  0  0  0  0
   -0.6261   -5.0688    0.1489 H   0  0  0  0  0  0  0  0  0  0  0  0
    1.9244   -3.6458    0.5909 H   0  0  0  0  0  0  0  0  0  0  0  0
    0.6919   -4.0458   -2.1890 H   0  0  0  0  0  0  0  0  0  0  0  0
    2.0757   -3.0022   -1.8071 H   0  0  0  0  0  0  0  0  0  0  0  0
    2.2194   -4.7620   -1.6275 H   0  0  0  0  0  0  0  0  0  0  0  0
    0.6335   -1.3231    0.0657 N   0  0  0  0  0  0  0  0  0  0  0  0
   -0.0865   -0.0880   -0.3121 C   0  0  2  0  0  0  0  0  0  0  0  0
   -1.6089   -0.0383   -0.0140 C   0  0  0  0  0  0  0  0  0  0  0  0
   -2.4531    0.0265   -0.9023 O   0  0  0  0  0  0  0  0  0  0  0  0
    0.2350    0.1402   -1.8026 C   0  0  0  0  0  0  0  0  0  0  0  0
    1.7263    0.4765   -2.0010 C   0  0  0  0  0  0  0  0  0  0  0  0
    2.0504    0.6769   -3.4780 C   0  0  0  0  0  0  0  0  0  0  0  0
    2.3309   -0.3521   -4.1413 O   0  5  0  0  0  0  0  0  0  0  0  0
    2.0335    1.8464   -3.9324 O   0  0  0  0  0  0  0  0  0  0  0  0
    1.6224   -1.3065   -0.1705 H   0  0  0  0  0  0  0  0  0  0  0  0
    0.3414    0.7441    0.2546 H   0  0  0  0  0  0  0  0  0  0  0  0
   -0.3593    0.9773   -2.1862 H   0  0  0  0  0  0  0  0  0  0  0  0
   -0.0342   -0.7470   -2.3870 H   0  0  0  0  0  0  0  0  0  0  0  0
    1.9774    1.3882   -1.4503 H   0  0  0  0  0  0  0  0  0  0  0  0
    2.3601   -0.3275   -1.6181 H   0  0  0  0  0  0  0  0  0  0  0  0
   -2.0269    0.1435    1.2919 N   0  0  0  0  0  0  0  0  0  0  0  0
   -3.4319    0.1692    1.7138 C   0  0  2  0  0  0  0  0  0  0  0  0
   -3.6167    0.8190    3.1001 C   0  0  0  0  0  0  0  0  0  0  0  0
   -2.6895    0.8718    3.9021 O   0  0  0  0  0  0  0  0  0  0  0  0
   -3.9635   -1.2684    1.7358 C   0  0  0  0  0  0  0  0  0  0  0  0
   -1.3230    0.0335    2.0182 H   0  0  0  0  0  0  0  0  0  0  0  0
   -4.0116    0.7569    0.9944 H   0  0  0  0  0  0  0  0  0  0  0  0
   -3.3874   -1.8771    2.4400 H   0  0  0  0  0  0  0  0  0  0  0  0
   -5.0150   -1.2849    2.0363 H   0  0  0  0  0  0  0  0  0  0  0  0
   -3.8822   -1.7208    0.7421 H   0  0  0  0  0  0  0  0  0  0  0  0
   -4.8481    1.3378    3.4592 N   0  0  0  0  0  0  0  0  0  0  0  0
   -5.1062    1.9784    4.7420 C   0  0  0  0  0  0  0  0  0  0  0  0
   -5.5901    1.2999    2.7664 H   0  0  0  0  0  0  0  0  0  0  0  0
   -4.9575    1.2673    5.5614 H   0  0  0  0  0  0  0  0  0  0  0  0
   -4.4338    2.8307    4.8869 H   0  0  0  0  0  0  0  0  0  0  0  0
   -6.1376    2.3413    4.7818 H   0  0  0  0  0  0  0  0  0  0  0  0
  1  2  2  0  0  0  0
  1  3  1  0  0  0  0
  1  7  1  0  0  0  0
  3  4  1  0  0  0  0
  3  5  1  0  0  0  0
  3  6  1  0  0  0  0
  7  8  1  0  0  0  0
  7 12  1  0  0  0  0
  8  9  1  0  0  0  0
  8 11  1  0  0  0  0
  8 13  1  0  0  0  0
  9 10  2  0  0  0  0
  9 17  1  0  0  0  0
 11 14  1  0  0  0  0
 11 15  1  0  0  0  0
 11 16  1  0  0  0  0
 17 18  1  0  0  0  0
 17 26  1  0  0  0  0
 18 19  1  0  0  0  0
 18 21  1  0  0  0  0
 18 27  1  0  0  0  0
 19 20  2  0  0  0  0
 19 32  1  0  0  0  0
 21 22  1  0  0  0  0
 21 28  1  0  0  0  0
 21 29  1  0  0  0  0
 22 23  1  0  0  0  0
 22 30  1  0  0  0  0
 22 31  1  0  0  0  0
 23 24  1  0  0  0  0
 23 25  2  0  0  0  0
 32 33  1  0  0  0  0
 32 37  1  0  0  0  0
 33 34  1  0  0  0  0
 33 36  1  0  0  0  0
 33 38  1  0  0  0  0
 34 35  2  0  0  0  0
 34 42  1  0  0  0  0
 36 39  1  0  0  0  0
 36 40  1  0  0  0  0
 36 41  1  0  0  0  0
 42 43  1  0  0  0  0
 42 44  1  0  0  0  0
 43 45  1  0  0  0  0
 43 46  1  0  0  0  0
 43 47  1  0  0  0  0
M  CHG  1  24  -1
M  END
$$$$

  -OEChem-05262216243D

 47 46  0     1  0  0  0  0  0999 V2000
    0.8724   -5.9043    1.2807 C   0  0  0  0  0  0  0  0  0  0  0  0
    2.0151   -5.8042    1.7008 O   0  0  0  0  0  0  0  0  0  0  0  0
   -0.0360   -6.9936    1.8199 C   0  0  0  0  0  0  0  0  0  0  0  0
   -0.3509   -7.6520    1.0066 H   0  0  0  0  0  0  0  0  0  0  0  0
    0.4906   -7.5877    2.5718 H   0  0  0  0  0  0  0  0  0  0  0  0
   -0.9206   -6.5459    2.2797 H   0  0  0  0  0  0  0  0  0  0  0  0
    0.3857   -5.0329    0.3304 N   0  0  0  0  0  0  0  0  0  0  0  0
    1.0430   -3.7725   -0.0440 C   0  0  2  0  0  0  0  0  0  0  0  0
    0.1097   -2.5646    0.1883 C   0  0  0  0  0  0  0  0  0  0  0  0
   -1.0641   -2.7621    0.4824 O   0  0  0  0  0  0  0  0  0  0  0  0
    1.4405   -3.8633   -1.5204 C   0  0  0  0  0  0  0  0  0  0  0  0
   -0.6247   -5.0468    0.1994 H   0  0  0  0  0  0  0  0  0  0  0  0
    1.9444   -3.6122    0.5562 H   0  0  0  0  0  0  0  0  0  0  0  0
    0.5538   -3.9909   -2.1498 H   0  0  0  0  0  0  0  0  0  0  0  0
    1.9607   -2.9541   -1.8394 H   0  0  0  0  0  0  0  0  0  0  0  0
    2.1087   -4.7148   -1.6812 H   0  0  0  0  0  0  0  0  0  0  0  0
    0.6359   -1.2852    0.1286 N   0  0  0  0  0  0  0  0  0  0  0  0
   -0.0863   -0.0657   -0.2911 C   0  0  2  0  0  0  0  0  0  0  0  0
   -1.6139   -0.0202   -0.0244 C   0  0  0  0  0  0  0  0  0  0  0  0
   -2.4386   -0.2291   -0.9092 O   0  0  0  0  0  0  0  0  0  0  0  0
    0.2462    0.1264   -1.7837 C   0  0  0  0  0  0  0  0  0  0  0  0
    1.7361    0.4675   -1.9803 C   0  0  0  0  0  0  0  0  0  0  0  0
    2.0671    0.6314   -3.4605 C   0  0  0  0  0  0  0  0  0  0  0  0
    1.9823    1.7791   -3.9603 O   0  5  0  0  0  0  0  0  0  0  0  0
    2.4087   -0.4043   -4.0830 O   0  0  0  0  0  0  0  0  0  0  0  0
    1.6188   -1.2799   -0.1322 H   0  0  0  0  0  0  0  0  0  0  0  0
    0.3317    0.7828    0.2578 H   0  0  0  0  0  0  0  0  0  0  0  0
   -0.3543    0.9471   -2.1926 H   0  0  0  0  0  0  0  0  0  0  0  0
   -0.0103   -0.7780   -2.3471 H   0  0  0  0  0  0  0  0  0  0  0  0
    1.9755    1.3966   -1.4543 H   0  0  0  0  0  0  0  0  0  0  0  0
    2.3736   -0.3198   -1.5696 H   0  0  0  0  0  0  0  0  0  0  0  0
   -2.0711    0.4902    1.1770 N   0  0  0  0  0  0  0  0  0  0  0  0
   -3.4844    0.5414    1.5665 C   0  0  2  0  0  0  0  0  0  0  0  0
   -3.7288    1.4988    2.7505 C   0  0  0  0  0  0  0  0  0  0  0  0
   -2.8179    1.7997    3.5158 O   0  0  0  0  0  0  0  0  0  0  0  0
   -3.9433   -0.8736    1.9394 C   0  0  0  0  0  0  0  0  0  0  0  0
   -1.3806    0.6484    1.9072 H   0  0  0  0  0  0  0  0  0  0  0  0
   -4.0769    0.9028    0.7196 H   0  0  0  0  0  0  0  0  0  0  0  0
   -3.3537   -1.2571    2.7780 H   0  0  0  0  0  0  0  0  0  0  0  0
   -4.9992   -0.8726    2.2246 H   0  0  0  0  0  0  0  0  0  0  0  0
   -3.8177   -1.5531    1.0903 H   0  0  0  0  0  0  0  0  0  0  0  0
   -4.9950    2.0094    2.9751 N   0  0  0  0  0  0  0  0  0  0  0  0
   -5.3133    2.9135    4.0723 C   0  0  0  0  0  0  0  0  0  0  0  0
   -5.7234    1.7580    2.3131 H   0  0  0  0  0  0  0  0  0  0  0  0
   -5.1209    2.4285    5.0348 H   0  0  0  0  0  0  0  0  0  0  0  0
   -4.7072    3.8232    4.0074 H   0  0  0  0  0  0  0  0  0  0  0  0
   -6.3691    3.1975    4.0327 H   0  0  0  0  0  0  0  0  0  0  0  0
  1  2  2  0  0  0  0
  1  3  1  0  0  0  0
  1  7  1  0  0  0  0
  3  4  1  0  0  0  0
  3  5  1  0  0  0  0
  3  6  1  0  0  0  0
  7  8  1  0  0  0  0
  7 12  1  0  0  0  0
  8  9  1  0  0  0  0
  8 11  1  0  0  0  0
  8 13  1  0  0  0  0
  9 10  2  0  0  0  0
  9 17  1  0  0  0  0
 11 14  1  0  0  0  0
 11 15  1  0  0  0  0
 11 16  1  0  0  0  0
 17 18  1  0  0  0  0
 17 26  1  0  0  0  0
 18 19  1  0  0  0  0
 18 21  1  0  0  0  0
 18 27  1  0  0  0  0
 19 20  2  0  0  0  0
 19 32  1  0  0  0  0
 21 22  1  0  0  0  0
 21 28  1  0  0  0  0
 21 29  1  0  0  0  0
 22 23  1  0  0  0  0
 22 30  1  0  0  0  0
 22 31  1  0  0  0  0
 23 24  1  0  0  0  0
 23 25  2  0  0  0  0
 32 33  1  0  0  0  0
 32 37  1  0  0  0  0
 33 34  1  0  0  0  0
 33 36  1  0  0  0  0
 33 38  1  0  0  0  0
 34 35  2  0  0  0  0
 34 42  1  0  0  0  0
 36 39  1  0  0  0  0
 36 40  1  0  0  0  0
 36 41  1  0  0  0  0
 42 43  1  0  0  0  0
 42 44  1  0  0  0  0
 43 45  1  0  0  0  0
 43 46  1  0  0  0  0
 43 47  1  0  0  0  0
M  CHG  1  24  -1
M  END
$$$$

  -OEChem-05262216243D

 47 46  0     1  0  0  0  0  0999 V2000
    0.9409   -5.9599    1.2056 C   0  0  0  0  0  0  0  0  0  0  0  0
    2.1183   -5.8975    1.5252 O   0  0  0  0  0  0  0  0  0  0  0  0
    0.0590   -7.0485    1.7890 C   0  0  0  0  0  0  0  0  0  0  0  0
   -0.3364   -7.6777    0.9878 H   0  0  0  0  0  0  0  0  0  0  0  0
    0.6349   -7.6734    2.4771 H   0  0  0  0  0  0  0  0  0  0  0  0
   -0.7743   -6.5987    2.3350 H   0  0  0  0  0  0  0  0  0  0  0  0
    0.3907   -5.0429    0.3363 N   0  0  0  0  0  0  0  0  0  0  0  0
    1.0334   -3.7738   -0.0346 C   0  0  2  0  0  0  0  0  0  0  0  0
    0.1199   -2.5727    0.2935 C   0  0  0  0  0  0  0  0  0  0  0  0
   -1.0204   -2.7777    0.6944 O   0  0  0  0  0  0  0  0  0  0  0  0
    1.3432   -3.8148   -1.5341 C   0  0  0  0  0  0  0  0  0  0  0  0
   -0.6276   -5.0354    0.2948 H   0  0  0  0  0  0  0  0  0  0  0  0
    1.9689   -3.6374    0.5178 H   0  0  0  0  0  0  0  0  0  0  0  0
    0.4196   -3.9103   -2.1142 H   0  0  0  0  0  0  0  0  0  0  0  0
    1.8556   -2.8999   -1.8498 H   0  0  0  0  0  0  0  0  0  0  0  0
    1.9905   -4.6666   -1.7641 H   0  0  0  0  0  0  0  0  0  0  0  0
    0.6362   -1.2900    0.2367 N   0  0  0  0  0  0  0  0  0  0  0  0
   -0.1036   -0.0870   -0.1993 C   0  0  2  0  0  0  0  0  0  0  0  0
   -1.6365   -0.0532    0.0413 C   0  0  0  0  0  0  0  0  0  0  0  0
   -2.4286   -0.4827   -0.7924 O   0  0  0  0  0  0  0  0  0  0  0  0
    0.2317    0.0978   -1.6917 C   0  0  0  0  0  0  0  0  0  0  0  0
    1.7159    0.4623   -1.8856 C   0  0  0  0  0  0  0  0  0  0  0  0
    2.0486    0.6185   -3.3660 C   0  0  0  0  0  0  0  0  0  0  0  0
    1.8822    1.7455   -3.8918 O   0  5  0  0  0  0  0  0  0  0  0  0
    2.4684   -0.4030   -3.9635 O   0  0  0  0  0  0  0  0  0  0  0  0
    1.6081   -1.2831   -0.0619 H   0  0  0  0  0  0  0  0  0  0  0  0
    0.3011    0.7708    0.3454 H   0  0  0  0  0  0  0  0  0  0  0  0
   -0.3817    0.9044   -2.1094 H   0  0  0  0  0  0  0  0  0  0  0  0
   -0.0077   -0.8151   -2.2490 H   0  0  0  0  0  0  0  0  0  0  0  0
    1.9363    1.4009   -1.3683 H   0  0  0  0  0  0  0  0  0  0  0  0
    2.3653   -0.3093   -1.4638 H   0  0  0  0  0  0  0  0  0  0  0  0
   -2.1474    0.7275    1.0633 N   0  0  0  0  0  0  0  0  0  0  0  0
   -3.5772    0.8832    1.3545 C   0  0  2  0  0  0  0  0  0  0  0  0
   -3.8594    2.1114    2.2439 C   0  0  0  0  0  0  0  0  0  0  0  0
   -2.9842    2.5769    2.9672 O   0  0  0  0  0  0  0  0  0  0  0  0
   -4.0788   -0.3884    2.0500 C   0  0  0  0  0  0  0  0  0  0  0  0
   -1.4882    1.1212    1.7310 H   0  0  0  0  0  0  0  0  0  0  0  0
   -4.1217    1.0219    0.4145 H   0  0  0  0  0  0  0  0  0  0  0  0
   -3.5439   -0.5436    2.9923 H   0  0  0  0  0  0  0  0  0  0  0  0
   -5.1490   -0.3131    2.2631 H   0  0  0  0  0  0  0  0  0  0  0  0
   -3.9164   -1.2635    1.4124 H   0  0  0  0  0  0  0  0  0  0  0  0
   -5.1181    2.6856    2.2519 N   0  0  0  0  0  0  0  0  0  0  0  0
   -5.4650    3.8476    3.0595 C   0  0  0  0  0  0  0  0  0  0  0  0
   -5.8113    2.2988    1.6179 H   0  0  0  0  0  0  0  0  0  0  0  0
   -5.3308    3.6269    4.1236 H   0  0  0  0  0  0  0  0  0  0  0  0
   -4.8337    4.7020    2.7936 H   0  0  0  0  0  0  0  0  0  0  0  0
   -6.5102    4.1248    2.8928 H   0  0  0  0  0  0  0  0  0  0  0  0
  1  2  2  0  0  0  0
  1  3  1  0  0  0  0
  1  7  1  0  0  0  0
  3  4  1  0  0  0  0
  3  5  1  0  0  0  0
  3  6  1  0  0  0  0
  7  8  1  0  0  0  0
  7 12  1  0  0  0  0
  8  9  1  0  0  0  0
  8 11  1  0  0  0  0
  8 13  1  0  0  0  0
  9 10  2  0  0  0  0
  9 17  1  0  0  0  0
 11 14  1  0  0  0  0
 11 15  1  0  0  0  0
 11 16  1  0  0  0  0
 17 18  1  0  0  0  0
 17 26  1  0  0  0  0
 18 19  1  0  0  0  0
 18 21  1  0  0  0  0
 18 27  1  0  0  0  0
 19 20  2  0  0  0  0
 19 32  1  0  0  0  0
 21 22  1  0  0  0  0
 21 28  1  0  0  0  0
 21 29  1  0  0  0  0
 22 23  1  0  0  0  0
 22 30  1  0  0  0  0
 22 31  1  0  0  0  0
 23 24  1  0  0  0  0
 23 25  2  0  0  0  0
 32 33  1  0  0  0  0
 32 37  1  0  0  0  0
 33 34  1  0  0  0  0
 33 36  1  0  0  0  0
 33 38  1  0  0  0  0
 34 35  2  0  0  0  0
 34 42  1  0  0  0  0
 36 39  1  0  0  0  0
 36 40  1  0  0  0  0
 36 41  1  0  0  0  0
 42 43  1  0  0  0  0
 42 44  1  0  0  0  0
 43 45  1  0  0  0  0
 43 46  1  0  0  0  0
 43 47  1  0  0  0  0
M  CHG  1  24  -1
M  END
$$$$

  -OEChem-05262216243D

 47 46  0     1  0  0  0  0  0999 V2000
    1.0493   -6.0294    1.0922 C   0  0  0  0  0  0  0  0  0  0  0  0
    2.2542   -5.9996    1.2910 O   0  0  0  0  0  0  0  0  0  0  0  0
    0.2170   -7.1572    1.6745 C   0  0  0  0  0  0  0  0  0  0  0  0
   -0.3353   -7.6633    0.8787 H   0  0  0  0  0  0  0  0  0  0  0  0
    0.8626   -7.8849    2.1737 H   0  0  0  0  0  0  0  0  0  0  0  0
   -0.4928   -6.7564    2.4026 H   0  0  0  0  0  0  0  0  0  0  0  0
    0.4245   -5.0432    0.3604 N   0  0  0  0  0  0  0  0  0  0  0  0
    1.0426   -3.7559    0.0124 C   0  0  2  0  0  0  0  0  0  0  0  0
    0.1492   -2.5770    0.4578 C   0  0  0  0  0  0  0  0  0  0  0  0
   -0.9257   -2.8065    1.0016 O   0  0  0  0  0  0  0  0  0  0  0  0
    1.2593   -3.7260   -1.5041 C   0  0  0  0  0  0  0  0  0  0  0  0
   -0.5924   -5.0256    0.4266 H   0  0  0  0  0  0  0  0  0  0  0  0
    2.0102   -3.6445    0.5129 H   0  0  0  0  0  0  0  0  0  0  0  0
    0.3009   -3.7828   -2.0300 H   0  0  0  0  0  0  0  0  0  0  0  0
    1.7652   -2.8037   -1.8081 H   0  0  0  0  0  0  0  0  0  0  0  0
    1.8782   -4.5732   -1.8147 H   0  0  0  0  0  0  0  0  0  0  0  0
    0.6332   -1.2833    0.3878 N   0  0  0  0  0  0  0  0  0  0  0  0
   -0.1525   -0.1127   -0.0560 C   0  0  2  0  0  0  0  0  0  0  0  0
   -1.6855   -0.1127    0.1863 C   0  0  0  0  0  0  0  0  0  0  0  0
   -2.4460   -0.7481   -0.5377 O   0  0  0  0  0  0  0  0  0  0  0  0
    0.1526    0.0704   -1.5531 C   0  0  0  0  0  0  0  0  0  0  0  0
    1.6183    0.4860   -1.7746 C   0  0  0  0  0  0  0  0  0  0  0  0
    1.9146    0.6390   -3.2627 C   0  0  0  0  0  0  0  0  0  0  0  0
    1.7627    1.7717   -3.7803 O   0  5  0  0  0  0  0  0  0  0  0  0
    2.2805   -0.3931   -3.8766 O   0  0  0  0  0  0  0  0  0  0  0  0
    1.5873   -1.2598    0.0371 H   0  0  0  0  0  0  0  0  0  0  0  0
    0.2325    0.7613    0.4770 H   0  0  0  0  0  0  0  0  0  0  0  0
   -0.4959    0.8506   -1.9676 H   0  0  0  0  0  0  0  0  0  0  0  0
   -0.0630   -0.8559   -2.0979 H   0  0  0  0  0  0  0  0  0  0  0  0
    1.8139    1.4362   -1.2690 H   0  0  0  0  0  0  0  0  0  0  0  0
    2.3024   -0.2586   -1.3589 H   0  0  0  0  0  0  0  0  0  0  0  0
   -2.2467    0.8813    0.9689 N   0  0  0  0  0  0  0  0  0  0  0  0
   -3.6859    1.1403    1.0918 C   0  0  2  0  0  0  0  0  0  0  0  0
   -3.9716    2.5753    1.5788 C   0  0  0  0  0  0  0  0  0  0  0  0
   -3.1183    3.2086    2.1925 O   0  0  0  0  0  0  0  0  0  0  0  0
   -4.2902    0.1224    2.0654 C   0  0  0  0  0  0  0  0  0  0  0  0
   -1.6161    1.5014    1.4727 H   0  0  0  0  0  0  0  0  0  0  0  0
   -4.1581    1.0258    0.1105 H   0  0  0  0  0  0  0  0  0  0  0  0
   -3.8281    0.2179    3.0531 H   0  0  0  0  0  0  0  0  0  0  0  0
   -5.3679    0.2811    2.1659 H   0  0  0  0  0  0  0  0  0  0  0  0
   -4.1252   -0.8972    1.7022 H   0  0  0  0  0  0  0  0  0  0  0  0
   -5.2012    3.1597    1.3326 N   0  0  0  0  0  0  0  0  0  0  0  0
   -5.5233    4.5308    1.7048 C   0  0  0  0  0  0  0  0  0  0  0  0
   -5.8620    2.6334    0.7685 H   0  0  0  0  0  0  0  0  0  0  0  0
   -5.4101    4.6713    2.7847 H   0  0  0  0  0  0  0  0  0  0  0  0
   -4.8622    5.2325    1.1858 H   0  0  0  0  0  0  0  0  0  0  0  0
   -6.5574    4.7629    1.4336 H   0  0  0  0  0  0  0  0  0  0  0  0
  1  2  2  0  0  0  0
  1  3  1  0  0  0  0
  1  7  1  0  0  0  0
  3  4  1  0  0  0  0
  3  5  1  0  0  0  0
  3  6  1  0  0  0  0
  7  8  1  0  0  0  0
  7 12  1  0  0  0  0
  8  9  1  0  0  0  0
  8 11  1  0  0  0  0
  8 13  1  0  0  0  0
  9 10  2  0  0  0  0
  9 17  1  0  0  0  0
 11 14  1  0  0  0  0
 11 15  1  0  0  0  0
 11 16  1  0  0  0  0
 17 18  1  0  0  0  0
 17 26  1  0  0  0  0
 18 19  1  0  0  0  0
 18 21  1  0  0  0  0
 18 27  1  0  0  0  0
 19 20  2  0  0  0  0
 19 32  1  0  0  0  0
 21 22  1  0  0  0  0
 21 28  1  0  0  0  0
 21 29  1  0  0  0  0
 22 23  1  0  0  0  0
 22 30  1  0  0  0  0
 22 31  1  0  0  0  0
 23 24  1  0  0  0  0
 23 25  2  0  0  0  0
 32 33  1  0  0  0  0
 32 37  1  0  0  0  0
 33 34  1  0  0  0  0
 33 36  1  0  0  0  0
 33 38  1  0  0  0  0
 34 35  2  0  0  0  0
 34 42  1  0  0  0  0
 36 39  1  0  0  0  0
 36 40  1  0  0  0  0
 36 41  1  0  0  0  0
 42 43  1  0  0  0  0
 42 44  1  0  0  0  0
 43 45  1  0  0  0  0
 43 46  1  0  0  0  0
 43 47  1  0  0  0  0
M  CHG  1  24  -1
M  END
$$$$

  -OEChem-05262216243D

 47 46  0     1  0  0  0  0  0999 V2000
    1.0825   -6.0364    1.0273 C   0  0  0  0  0  0  0  0  0  0  0  0
    2.3015   -6.0214    1.1056 O   0  0  0  0  0  0  0  0  0  0  0  0
    0.3030   -7.1905    1.6301 C   0  0  0  0  0  0  0  0  0  0  0  0
   -0.2994   -7.6759    0.8583 H   0  0  0  0  0  0  0  0  0  0  0  0
    0.9885   -7.9269    2.0586 H   0  0  0  0  0  0  0  0  0  0  0  0
   -0.3573   -6.8211    2.4187 H   0  0  0  0  0  0  0  0  0  0  0  0
    0.3968   -5.0135    0.4094 N   0  0  0  0  0  0  0  0  0  0  0  0
    0.9935   -3.7203    0.0474 C   0  0  2  0  0  0  0  0  0  0  0  0
    0.1372   -2.5490    0.5778 C   0  0  0  0  0  0  0  0  0  0  0  0
   -0.8674   -2.7873    1.2399 O   0  0  0  0  0  0  0  0  0  0  0  0
    1.1140   -3.6595   -1.4784 C   0  0  0  0  0  0  0  0  0  0  0  0
   -0.6083   -4.9908    0.5782 H   0  0  0  0  0  0  0  0  0  0  0  0
    1.9913   -3.6215    0.4868 H   0  0  0  0  0  0  0  0  0  0  0  0
    0.1251   -3.7167   -1.9444 H   0  0  0  0  0  0  0  0  0  0  0  0
    1.5911   -2.7262   -1.7941 H   0  0  0  0  0  0  0  0  0  0  0  0
    1.7212   -4.4933   -1.8439 H   0  0  0  0  0  0  0  0  0  0  0  0
    0.6140   -1.2531    0.5039 N   0  0  0  0  0  0  0  0  0  0  0  0
   -0.1856   -0.0938    0.0540 C   0  0  2  0  0  0  0  0  0  0  0  0
   -1.7197   -0.0940    0.2872 C   0  0  0  0  0  0  0  0  0  0  0  0
   -2.4516   -0.8860   -0.2982 O   0  0  0  0  0  0  0  0  0  0  0  0
    0.1031    0.0882   -1.4461 C   0  0  0  0  0  0  0  0  0  0  0  0
    1.5599    0.5201   -1.6904 C   0  0  0  0  0  0  0  0  0  0  0  0
    1.8262    0.6681   -3.1849 C   0  0  0  0  0  0  0  0  0  0  0  0
    1.6897    1.8051   -3.6975 O   0  5  0  0  0  0  0  0  0  0  0  0
    2.1407   -0.3737   -3.8107 O   0  0  0  0  0  0  0  0  0  0  0  0
    1.5545   -1.2301    0.1183 H   0  0  0  0  0  0  0  0  0  0  0  0
    0.1940    0.7833    0.5852 H   0  0  0  0  0  0  0  0  0  0  0  0
   -0.5585    0.8599   -1.8559 H   0  0  0  0  0  0  0  0  0  0  0  0
   -0.1106   -0.8414   -1.9857 H   0  0  0  0  0  0  0  0  0  0  0  0
    1.7532    1.4749   -1.1922 H   0  0  0  0  0  0  0  0  0  0  0  0
    2.2595   -0.2147   -1.2834 H   0  0  0  0  0  0  0  0  0  0  0  0
   -2.3207    1.0506    0.7828 N   0  0  0  0  0  0  0  0  0  0  0  0
   -3.7614    1.3271    0.7375 C   0  0  2  0  0  0  0  0  0  0  0  0
   -4.0590    2.8362    0.8386 C   0  0  0  0  0  0  0  0  0  0  0  0
   -3.2608    3.5942    1.3804 O   0  0  0  0  0  0  0  0  0  0  0  0
   -4.4464    0.5757    1.8841 C   0  0  0  0  0  0  0  0  0  0  0  0
   -1.7144    1.7995    1.1121 H   0  0  0  0  0  0  0  0  0  0  0  0
   -4.1663    0.9763   -0.2174 H   0  0  0  0  0  0  0  0  0  0  0  0
   -4.0562    0.9145    2.8491 H   0  0  0  0  0  0  0  0  0  0  0  0
   -5.5267    0.7473    1.8632 H   0  0  0  0  0  0  0  0  0  0  0  0
   -4.2675   -0.5009    1.7955 H   0  0  0  0  0  0  0  0  0  0  0  0
   -5.2388    3.3454    0.3266 N   0  0  0  0  0  0  0  0  0  0  0  0
   -5.5650    4.7653    0.3299 C   0  0  0  0  0  0  0  0  0  0  0  0
   -5.8383    2.7039   -0.1844 H   0  0  0  0  0  0  0  0  0  0  0  0
   -5.5449    5.1611    1.3508 H   0  0  0  0  0  0  0  0  0  0  0  0
   -4.8477    5.3242   -0.2803 H   0  0  0  0  0  0  0  0  0  0  0  0
   -6.5672    4.9223   -0.0802 H   0  0  0  0  0  0  0  0  0  0  0  0
  1  2  2  0  0  0  0
  1  3  1  0  0  0  0
  1  7  1  0  0  0  0
  3  4  1  0  0  0  0
  3  5  1  0  0  0  0
  3  6  1  0  0  0  0
  7  8  1  0  0  0  0
  7 12  1  0  0  0  0
  8  9  1  0  0  0  0
  8 11  1  0  0  0  0
  8 13  1  0  0  0  0
  9 10  2  0  0  0  0
  9 17  1  0  0  0  0
 11 14  1  0  0  0  0
 11 15  1  0  0  0  0
 11 16  1  0  0  0  0
 17 18  1  0  0  0  0
 17 26  1  0  0  0  0
 18 19  1  0  0  0  0
 18 21  1  0  0  0  0
 18 27  1  0  0  0  0
 19 20  2  0  0  0  0
 19 32  1  0  0  0  0
 21 22  1  0  0  0  0
 21 28  1  0  0  0  0
 21 29  1  0  0  0  0
 22 23  1  0  0  0  0
 22 30  1  0  0  0  0
 22 31  1  0  0  0  0
 23 24  1  0  0  0  0
 23 25  2  0  0  0  0
 32 33  1  0  0  0  0
 32 37  1  0  0  0  0
 33 34  1  0  0  0  0
 33 36  1  0  0  0  0
 33 38  1  0  0  0  0
 34 35  2  0  0  0  0
 34 42  1  0  0  0  0
 36 39  1  0  0  0  0
 36 40  1  0  0  0  0
 36 41  1  0  0  0  0
 42 43  1  0  0  0  0
 42 44  1  0  0  0  0
 43 45  1  0  0  0  0
 43 46  1  0  0  0  0
 43 47  1  0  0  0  0
M  CHG  1  24  -1
M  END
$$$$

  -OEChem-05262216243D

 47 46  0     1  0  0  0  0  0999 V2000
    0.0784   -5.7332    1.5310 C   0  0  0  0  0  0  0  0  0  0  0  0
    0.8592   -5.5714    2.4574 O   0  0  0  0  0  0  0  0  0  0  0  0
   -1.0003   -6.7966    1.6259 C   0  0  0  0  0  0  0  0  0  0  0  0
   -0.9229   -7.4824    0.7789 H   0  0  0  0  0  0  0  0  0  0  0  0
   -0.8897   -7.3666    2.5525 H   0  0  0  0  0  0  0  0  0  0  0  0
   -1.9871   -6.3268    1.6152 H   0  0  0  0  0  0  0  0  0  0  0  0
    0.1631   -4.9536    0.3989 N   0  0  0  0  0  0  0  0  0  0  0  0
    0.9765   -3.7377    0.2879 C   0  0  2  0  0  0  0  0  0  0  0  0
    0.2082   -2.6417   -0.4788 C   0  0  0  0  0  0  0  0  0  0  0  0
   -0.6988   -2.9749   -1.2333 O   0  0  0  0  0  0  0  0  0  0  0  0
    2.2810   -4.0918   -0.4308 C   0  0  0  0  0  0  0  0  0  0  0  0
   -0.6083   -5.0213   -0.2662 H   0  0  0  0  0  0  0  0  0  0  0  0
    1.2046   -3.3442    1.2838 H   0  0  0  0  0  0  0  0  0  0  0  0
    2.0716   -4.4753   -1.4347 H   0  0  0  0  0  0  0  0  0  0  0  0
    2.9216   -3.2095   -0.5234 H   0  0  0  0  0  0  0  0  0  0  0  0
    2.8255   -4.8578    0.1300 H   0  0  0  0  0  0  0  0  0  0  0  0
    0.6536   -1.3322   -0.4288 N   0  0  0  0  0  0  0  0  0  0  0  0
   -0.1520   -0.1065   -0.6259 C   0  0  2  0  0  0  0  0  0  0  0  0
   -1.6578   -0.0804   -0.2340 C   0  0  0  0  0  0  0  0  0  0  0  0
   -2.3021   -1.0646    0.1065 O   0  0  0  0  0  0  0  0  0  0  0  0
    0.0087    0.3460   -2.0874 C   0  0  0  0  0  0  0  0  0  0  0  0
    1.4501    0.8143   -2.3693 C   0  0  0  0  0  0  0  0  0  0  0  0
    1.6356    1.2465   -3.8241 C   0  0  0  0  0  0  0  0  0  0  0  0
    0.8380    2.1027   -4.2811 O   0  5  0  0  0  0  0  0  0  0  0  0
    2.6050    0.7600   -4.4563 O   0  0  0  0  0  0  0  0  0  0  0  0
    1.5207   -1.2065    0.0808 H   0  0  0  0  0  0  0  0  0  0  0  0
    0.3051    0.6595    0.0068 H   0  0  0  0  0  0  0  0  0  0  0  0
   -0.6765    1.1742   -2.3004 H   0  0  0  0  0  0  0  0  0  0  0  0
   -0.2531   -0.4780   -2.7609 H   0  0  0  0  0  0  0  0  0  0  0  0
    1.6933    1.6611   -1.7217 H   0  0  0  0  0  0  0  0  0  0  0  0
    2.1549    0.0074   -2.1489 H   0  0  0  0  0  0  0  0  0  0  0  0
   -2.1878    1.1365    0.1630 N   0  0  0  0  0  0  0  0  0  0  0  0
   -3.5541    1.3253    0.6690 C   0  0  2  0  0  0  0  0  0  0  0  0
   -4.1224    2.7060    0.2864 C   0  0  0  0  0  0  0  0  0  0  0  0
   -3.3863    3.6848    0.2334 O   0  0  0  0  0  0  0  0  0  0  0  0
   -3.5399    1.1663    2.1922 C   0  0  0  0  0  0  0  0  0  0  0  0
   -1.6776    1.9757   -0.1121 H   0  0  0  0  0  0  0  0  0  0  0  0
   -4.2135    0.5666    0.2345 H   0  0  0  0  0  0  0  0  0  0  0  0
   -2.8846    1.9153    2.6484 H   0  0  0  0  0  0  0  0  0  0  0  0
   -4.5484    1.2893    2.5985 H   0  0  0  0  0  0  0  0  0  0  0  0
   -3.1759    0.1713    2.4667 H   0  0  0  0  0  0  0  0  0  0  0  0
   -5.4727    2.8559    0.0258 N   0  0  0  0  0  0  0  0  0  0  0  0
   -6.0623    4.1131   -0.4161 C   0  0  0  0  0  0  0  0  0  0  0  0
   -6.0351    2.0106   -0.0080 H   0  0  0  0  0  0  0  0  0  0  0  0
   -5.8867    4.8999    0.3249 H   0  0  0  0  0  0  0  0  0  0  0  0
   -5.6278    4.4244   -1.3719 H   0  0  0  0  0  0  0  0  0  0  0  0
   -7.1422    3.9978   -0.5473 H   0  0  0  0  0  0  0  0  0  0  0  0
  1  2  2  0  0  0  0
  1  3  1  0  0  0  0
  1  7  1  0  0  0  0
  3  4  1  0  0  0  0
  3  5  1  0  0  0  0
  3  6  1  0  0  0  0
  7  8  1  0  0  0  0
  7 12  1  0  0  0  0
  8  9  1  0  0  0  0
  8 11  1  0  0  0  0
  8 13  1  0  0  0  0
  9 10  2  0  0  0  0
  9 17  1  0  0  0  0
 11 14  1  0  0  0  0
 11 15  1  0  0  0  0
 11 16  1  0  0  0  0
 17 18  1  0  0  0  0
 17 26  1  0  0  0  0
 18 19  1  0  0  0  0
 18 21  1  0  0  0  0
 18 27  1  0  0  0  0
 19 20  2  0  0  0  0
 19 32  1  0  0  0  0
 21 22  1  0  0  0  0
 21 28  1  0  0  0  0
 21 29  1  0  0  0  0
 22 23  1  0  0  0  0
 22 30  1  0  0  0  0
 22 31  1  0  0  0  0
 23 24  1  0  0  0  0
 23 25  2  0  0  0  0
 32 33  1  0  0  0  0
 32 37  1  0  0  0  0
 33 34  1  0  0  0  0
 33 36  1  0  0  0  0
 33 38  1  0  0  0  0
 34 35  2  0  0  0  0
 34 42  1  0  0  0  0
 36 39  1  0  0  0  0
 36 40  1  0  0  0  0
 36 41  1  0  0  0  0
 42 43  1  0  0  0  0
 42 44  1  0  0  0  0
 43 45  1  0  0  0  0
 43 46  1  0  0  0  0
 43 47  1  0  0  0  0
M  CHG  1  24  -1
M  END
$$$$

  -OEChem-05262216243D

 47 46  0     1  0  0  0  0  0999 V2000
    0.0170   -5.6996    1.5185 C   0  0  0  0  0  0  0  0  0  0  0  0
    0.8315   -5.5775    2.4216 O   0  0  0  0  0  0  0  0  0  0  0  0
   -1.0907   -6.7308    1.6319 C   0  0  0  0  0  0  0  0  0  0  0  0
   -1.0660   -7.4002    0.7687 H   0  0  0  0  0  0  0  0  0  0  0  0
   -0.9647   -7.3238    2.5420 H   0  0  0  0  0  0  0  0  0  0  0  0
   -2.0615   -6.2303    1.6676 H   0  0  0  0  0  0  0  0  0  0  0  0
    0.0919   -4.9055    0.3954 N   0  0  0  0  0  0  0  0  0  0  0  0
    0.9423   -3.7154    0.2767 C   0  0  2  0  0  0  0  0  0  0  0  0
    0.1996   -2.5911   -0.4742 C   0  0  0  0  0  0  0  0  0  0  0  0
   -0.7335   -2.8853   -1.2150 O   0  0  0  0  0  0  0  0  0  0  0  0
    2.2269   -4.1059   -0.4595 C   0  0  0  0  0  0  0  0  0  0  0  0
   -0.6991   -4.9412   -0.2486 H   0  0  0  0  0  0  0  0  0  0  0  0
    1.1951   -3.3338    1.2713 H   0  0  0  0  0  0  0  0  0  0  0  0
    1.9951   -4.4791   -1.4624 H   0  0  0  0  0  0  0  0  0  0  0  0
    2.8924   -3.2428   -0.5564 H   0  0  0  0  0  0  0  0  0  0  0  0
    2.7549   -4.8898    0.0922 H   0  0  0  0  0  0  0  0  0  0  0  0
    0.6768   -1.2931   -0.4124 N   0  0  0  0  0  0  0  0  0  0  0  0
   -0.1061   -0.0593   -0.6430 C   0  0  2  0  0  0  0  0  0  0  0  0
   -1.6214   -0.0424   -0.2922 C   0  0  0  0  0  0  0  0  0  0  0  0
   -2.1659   -0.9430    0.3386 O   0  0  0  0  0  0  0  0  0  0  0  0
    0.1093    0.3658   -2.1071 C   0  0  0  0  0  0  0  0  0  0  0  0
    1.5668    0.8070   -2.3497 C   0  0  0  0  0  0  0  0  0  0  0  0
    1.8073    1.2110   -3.8048 C   0  0  0  0  0  0  0  0  0  0  0  0
    1.0241    2.0524   -4.3116 O   0  5  0  0  0  0  0  0  0  0  0  0
    2.8018    0.7140   -4.3881 O   0  0  0  0  0  0  0  0  0  0  0  0
    1.5349   -1.1809    0.1154 H   0  0  0  0  0  0  0  0  0  0  0  0
    0.3293    0.7150   -0.0046 H   0  0  0  0  0  0  0  0  0  0  0  0
   -0.5531    1.2006   -2.3595 H   0  0  0  0  0  0  0  0  0  0  0  0
   -0.1432   -0.4655   -2.7750 H   0  0  0  0  0  0  0  0  0  0  0  0
    1.8016    1.6620   -1.7094 H   0  0  0  0  0  0  0  0  0  0  0  0
    2.2525   -0.0053   -2.0919 H   0  0  0  0  0  0  0  0  0  0  0  0
   -2.2537    1.1888   -0.2206 N   0  0  0  0  0  0  0  0  0  0  0  0
   -3.6225    1.3987    0.2716 C   0  0  2  0  0  0  0  0  0  0  0  0
   -4.3296    2.5595   -0.4561 C   0  0  0  0  0  0  0  0  0  0  0  0
   -3.7041    3.5634   -0.7758 O   0  0  0  0  0  0  0  0  0  0  0  0
   -3.5634    1.6786    1.7763 C   0  0  0  0  0  0  0  0  0  0  0  0
   -1.8100    1.9670   -0.7087 H   0  0  0  0  0  0  0  0  0  0  0  0
   -4.2151    0.4946    0.0978 H   0  0  0  0  0  0  0  0  0  0  0  0
   -2.9677    2.5752    1.9756 H   0  0  0  0  0  0  0  0  0  0  0  0
   -4.5701    1.8319    2.1758 H   0  0  0  0  0  0  0  0  0  0  0  0
   -3.1078    0.8337    2.3021 H   0  0  0  0  0  0  0  0  0  0  0  0
   -5.6847    2.4896   -0.7274 N   0  0  0  0  0  0  0  0  0  0  0  0
   -6.3954    3.5082   -1.4899 C   0  0  0  0  0  0  0  0  0  0  0  0
   -6.1522    1.6101   -0.5286 H   0  0  0  0  0  0  0  0  0  0  0  0
   -6.3103    4.4837   -0.9995 H   0  0  0  0  0  0  0  0  0  0  0  0
   -5.9836    3.5847   -2.5017 H   0  0  0  0  0  0  0  0  0  0  0  0
   -7.4564    3.2520   -1.5656 H   0  0  0  0  0  0  0  0  0  0  0  0
  1  2  2  0  0  0  0
  1  3  1  0  0  0  0
  1  7  1  0  0  0  0
  3  4  1  0  0  0  0
  3  5  1  0  0  0  0
  3  6  1  0  0  0  0
  7  8  1  0  0  0  0
  7 12  1  0  0  0  0
  8  9  1  0  0  0  0
  8 11  1  0  0  0  0
  8 13  1  0  0  0  0
  9 10  2  0  0  0  0
  9 17  1  0  0  0  0
 11 14  1  0  0  0  0
 11 15  1  0  0  0  0
 11 16  1  0  0  0  0
 17 18  1  0  0  0  0
 17 26  1  0  0  0  0
 18 19  1  0  0  0  0
 18 21  1  0  0  0  0
 18 27  1  0  0  0  0
 19 20  2  0  0  0  0
 19 32  1  0  0  0  0
 21 22  1  0  0  0  0
 21 28  1  0  0  0  0
 21 29  1  0  0  0  0
 22 23  1  0  0  0  0
 22 30  1  0  0  0  0
 22 31  1  0  0  0  0
 23 24  1  0  0  0  0
 23 25  2  0  0  0  0
 32 33  1  0  0  0  0
 32 37  1  0  0  0  0
 33 34  1  0  0  0  0
 33 36  1  0  0  0  0
 33 38  1  0  0  0  0
 34 35  2  0  0  0  0
 34 42  1  0  0  0  0
 36 39  1  0  0  0  0
 36 40  1  0  0  0  0
 36 41  1  0  0  0  0
 42 43  1  0  0  0  0
 42 44  1  0  0  0  0
 43 45  1  0  0  0  0
 43 46  1  0  0  0  0
 43 47  1  0  0  0  0
M  CHG  1  24  -1
M  END
$$$$

  -OEChem-05262216243D

 47 46  0     1  0  0  0  0  0999 V2000
    0.0667   -5.7872    1.4380 C   0  0  0  0  0  0  0  0  0  0  0  0
    1.0334   -5.7953    2.1857 O   0  0  0  0  0  0  0  0  0  0  0  0
   -1.0360   -6.8150    1.6136 C   0  0  0  0  0  0  0  0  0  0  0  0
   -1.1315   -7.4179    0.7071 H   0  0  0  0  0  0  0  0  0  0  0  0
   -0.8070   -7.4751    2.4549 H   0  0  0  0  0  0  0  0  0  0  0  0
   -1.9860   -6.3112    1.8092 H   0  0  0  0  0  0  0  0  0  0  0  0
   -0.0372   -4.8468    0.4375 N   0  0  0  0  0  0  0  0  0  0  0  0
    0.8385   -3.6782    0.2966 C   0  0  2  0  0  0  0  0  0  0  0  0
    0.0551   -2.4708   -0.2605 C   0  0  0  0  0  0  0  0  0  0  0  0
   -1.0473   -2.6570   -0.7694 O   0  0  0  0  0  0  0  0  0  0  0  0
    1.9951   -4.0484   -0.6369 C   0  0  0  0  0  0  0  0  0  0  0  0
   -0.9266   -4.7902   -0.0595 H   0  0  0  0  0  0  0  0  0  0  0  0
    1.2356   -3.3896    1.2754 H   0  0  0  0  0  0  0  0  0  0  0  0
    1.6133   -4.3295   -1.6238 H   0  0  0  0  0  0  0  0  0  0  0  0
    2.6798   -3.2034   -0.7581 H   0  0  0  0  0  0  0  0  0  0  0  0
    2.5577   -4.8927   -0.2269 H   0  0  0  0  0  0  0  0  0  0  0  0
    0.6332   -1.2118   -0.2476 N   0  0  0  0  0  0  0  0  0  0  0  0
   -0.0549    0.0540   -0.5716 C   0  0  2  0  0  0  0  0  0  0  0  0
   -1.4569    0.2435    0.0692 C   0  0  0  0  0  0  0  0  0  0  0  0
   -1.7869   -0.3921    1.0676 O   0  0  0  0  0  0  0  0  0  0  0  0
   -0.0909    0.2105   -2.1055 C   0  0  0  0  0  0  0  0  0  0  0  0
    1.3285    0.4165   -2.6696 C   0  0  0  0  0  0  0  0  0  0  0  0
    1.3162    0.5499   -4.1918 C   0  0  0  0  0  0  0  0  0  0  0  0
    0.6276    1.4771   -4.6853 O   0  5  0  0  0  0  0  0  0  0  0  0
    2.0222   -0.2506   -4.8529 O   0  0  0  0  0  0  0  0  0  0  0  0
    1.5686   -1.1513    0.1383 H   0  0  0  0  0  0  0  0  0  0  0  0
    0.5492    0.8724   -0.1702 H   0  0  0  0  0  0  0  0  0  0  0  0
   -0.7007    1.0756   -2.3848 H   0  0  0  0  0  0  0  0  0  0  0  0
   -0.5489   -0.6726   -2.5645 H   0  0  0  0  0  0  0  0  0  0  0  0
    1.7654    1.3236   -2.2428 H   0  0  0  0  0  0  0  0  0  0  0  0
    1.9687   -0.4269   -2.3949 H   0  0  0  0  0  0  0  0  0  0  0  0
   -2.1763    1.3998   -0.1836 N   0  0  0  0  0  0  0  0  0  0  0  0
   -3.4494    1.7402    0.4659 C   0  0  2  0  0  0  0  0  0  0  0  0
   -4.4038    2.4951   -0.4803 C   0  0  0  0  0  0  0  0  0  0  0  0
   -3.9688    3.3297   -1.2645 O   0  0  0  0  0  0  0  0  0  0  0  0
   -3.1506    2.5877    1.7062 C   0  0  0  0  0  0  0  0  0  0  0  0
   -1.9041    1.9492   -0.9990 H   0  0  0  0  0  0  0  0  0  0  0  0
   -3.9584    0.8213    0.7747 H   0  0  0  0  0  0  0  0  0  0  0  0
   -2.6377    3.5124    1.4229 H   0  0  0  0  0  0  0  0  0  0  0  0
   -4.0787    2.8470    2.2242 H   0  0  0  0  0  0  0  0  0  0  0  0
   -2.5107    2.0330    2.3996 H   0  0  0  0  0  0  0  0  0  0  0  0
   -5.7662    2.2580   -0.4292 N   0  0  0  0  0  0  0  0  0  0  0  0
   -6.7140    2.8734   -1.3494 C   0  0  0  0  0  0  0  0  0  0  0  0
   -6.0820    1.4982    0.1662 H   0  0  0  0  0  0  0  0  0  0  0  0
   -6.6639    3.9650   -1.2778 H   0  0  0  0  0  0  0  0  0  0  0  0
   -6.4935    2.5765   -2.3802 H   0  0  0  0  0  0  0  0  0  0  0  0
   -7.7337    2.5586   -1.1082 H   0  0  0  0  0  0  0  0  0  0  0  0
  1  2  2  0  0  0  0
  1  3  1  0  0  0  0
  1  7  1  0  0  0  0
  3  4  1  0  0  0  0
  3  5  1  0  0  0  0
  3  6  1  0  0  0  0
  7  8  1  0  0  0  0
  7 12  1  0  0  0  0
  8  9  1  0  0  0  0
  8 11  1  0  0  0  0
  8 13  1  0  0  0  0
  9 10  2  0  0  0  0
  9 17  1  0  0  0  0
 11 14  1  0  0  0  0
 11 15  1  0  0  0  0
 11 16  1  0  0  0  0
 17 18  1  0  0  0  0
 17 26  1  0  0  0  0
 18 19  1  0  0  0  0
 18 21  1  0  0  0  0
 18 27  1  0  0  0  0
 19 20  2  0  0  0  0
 19 32  1  0  0  0  0
 21 22  1  0  0  0  0
 21 28  1  0  0  0  0
 21 29  1  0  0  0  0
 22 23  1  0  0  0  0
 22 30  1  0  0  0  0
 22 31  1  0  0  0  0
 23 24  1  0  0  0  0
 23 25  2  0  0  0  0
 32 33  1  0  0  0  0
 32 37  1  0  0  0  0
 33 34  1  0  0  0  0
 33 36  1  0  0  0  0
 33 38  1  0  0  0  0
 34 35  2  0  0  0  0
 34 42  1  0  0  0  0
 36 39  1  0  0  0  0
 36 40  1  0  0  0  0
 36 41  1  0  0  0  0
 42 43  1  0  0  0  0
 42 44  1  0  0  0  0
 43 45  1  0  0  0  0
 43 46  1  0  0  0  0
 43 47  1  0  0  0  0
M  CHG  1  24  -1
M  END
$$$$

  -OEChem-05262216243D

 47 46  0     1  0  0  0  0  0999 V2000
    0.0582   -5.7624    1.4186 C   0  0  0  0  0  0  0  0  0  0  0  0
    1.0282   -5.7659    2.1620 O   0  0  0  0  0  0  0  0  0  0  0  0
   -1.0381   -6.7961    1.6002 C   0  0  0  0  0  0  0  0  0  0  0  0
   -1.1596   -7.3751    0.6814 H   0  0  0  0  0  0  0  0  0  0  0  0
   -0.7832   -7.4779    2.4161 H   0  0  0  0  0  0  0  0  0  0  0  0
   -1.9826   -6.2999    1.8372 H   0  0  0  0  0  0  0  0  0  0  0  0
   -0.0536   -4.8250    0.4157 N   0  0  0  0  0  0  0  0  0  0  0  0
    0.8164   -3.6521    0.2713 C   0  0  2  0  0  0  0  0  0  0  0  0
    0.0156   -2.4250   -0.2123 C   0  0  0  0  0  0  0  0  0  0  0  0
   -1.1166   -2.5853   -0.6614 O   0  0  0  0  0  0  0  0  0  0  0  0
    1.9279   -3.9945   -0.7253 C   0  0  0  0  0  0  0  0  0  0  0  0
   -0.9480   -4.7705   -0.0719 H   0  0  0  0  0  0  0  0  0  0  0  0
    1.2602   -3.3929    1.2382 H   0  0  0  0  0  0  0  0  0  0  0  0
    1.5007   -4.2510   -1.7005 H   0  0  0  0  0  0  0  0  0  0  0  0
    2.6040   -3.1441   -0.8567 H   0  0  0  0  0  0  0  0  0  0  0  0
    2.5114   -4.8468   -0.3639 H   0  0  0  0  0  0  0  0  0  0  0  0
    0.6131   -1.1756   -0.2052 N   0  0  0  0  0  0  0  0  0  0  0  0
   -0.0393    0.0968   -0.5695 C   0  0  2  0  0  0  0  0  0  0  0  0
   -1.4540    0.3012    0.0381 C   0  0  0  0  0  0  0  0  0  0  0  0
   -1.7199   -0.1611    1.1454 O   0  0  0  0  0  0  0  0  0  0  0  0
   -0.0153    0.2201   -2.1076 C   0  0  0  0  0  0  0  0  0  0  0  0
    1.4296    0.3867   -2.6188 C   0  0  0  0  0  0  0  0  0  0  0  0
    1.4815    0.4870   -4.1423 C   0  0  0  0  0  0  0  0  0  0  0  0
    0.8684    1.4421   -4.6795 O   0  5  0  0  0  0  0  0  0  0  0  0
    2.1603   -0.3697   -4.7600 O   0  0  0  0  0  0  0  0  0  0  0  0
    1.5788   -1.1382    0.1013 H   0  0  0  0  0  0  0  0  0  0  0  0
    0.5616    0.9149   -0.1627 H   0  0  0  0  0  0  0  0  0  0  0  0
   -0.5917    1.0929   -2.4300 H   0  0  0  0  0  0  0  0  0  0  0  0
   -0.4742   -0.6637   -2.5644 H   0  0  0  0  0  0  0  0  0  0  0  0
    1.8674    1.2946   -2.1946 H   0  0  0  0  0  0  0  0  0  0  0  0
    2.0427   -0.4618   -2.3013 H   0  0  0  0  0  0  0  0  0  0  0  0
   -2.3065    1.2776   -0.4493 N   0  0  0  0  0  0  0  0  0  0  0  0
   -3.6354    1.5616    0.1085 C   0  0  2  0  0  0  0  0  0  0  0  0
   -4.6613    1.9172   -0.9855 C   0  0  0  0  0  0  0  0  0  0  0  0
   -4.3183    2.5470   -1.9786 O   0  0  0  0  0  0  0  0  0  0  0  0
   -3.5045    2.7128    1.1093 C   0  0  0  0  0  0  0  0  0  0  0  0
   -2.1010    1.6519   -1.3759 H   0  0  0  0  0  0  0  0  0  0  0  0
   -4.0121    0.6755    0.6300 H   0  0  0  0  0  0  0  0  0  0  0  0
   -3.1263    3.6112    0.6109 H   0  0  0  0  0  0  0  0  0  0  0  0
   -4.4764    2.9437    1.5556 H   0  0  0  0  0  0  0  0  0  0  0  0
   -2.8111    2.4397    1.9110 H   0  0  0  0  0  0  0  0  0  0  0  0
   -5.9879    1.5519   -0.8406 N   0  0  0  0  0  0  0  0  0  0  0  0
   -6.9895    1.7773   -1.8748 C   0  0  0  0  0  0  0  0  0  0  0  0
   -6.2182    0.9487   -0.0567 H   0  0  0  0  0  0  0  0  0  0  0  0
   -7.0344    2.8386   -2.1411 H   0  0  0  0  0  0  0  0  0  0  0  0
   -6.7478    1.1986   -2.7726 H   0  0  0  0  0  0  0  0  0  0  0  0
   -7.9771    1.4705   -1.5178 H   0  0  0  0  0  0  0  0  0  0  0  0
  1  2  2  0  0  0  0
  1  3  1  0  0  0  0
  1  7  1  0  0  0  0
  3  4  1  0  0  0  0
  3  5  1  0  0  0  0
  3  6  1  0  0  0  0
  7  8  1  0  0  0  0
  7 12  1  0  0  0  0
  8  9  1  0  0  0  0
  8 11  1  0  0  0  0
  8 13  1  0  0  0  0
  9 10  2  0  0  0  0
  9 17  1  0  0  0  0
 11 14  1  0  0  0  0
 11 15  1  0  0  0  0
 11 16  1  0  0  0  0
 17 18  1  0  0  0  0
 17 26  1  0  0  0  0
 18 19  1  0  0  0  0
 18 21  1  0  0  0  0
 18 27  1  0  0  0  0
 19 20  2  0  0  0  0
 19 32  1  0  0  0  0
 21 22  1  0  0  0  0
 21 28  1  0  0  0  0
 21 29  1  0  0  0  0
 22 23  1  0  0  0  0
 22 30  1  0  0  0  0
 22 31  1  0  0  0  0
 23 24  1  0  0  0  0
 23 25  2  0  0  0  0
 32 33  1  0  0  0  0
 32 37  1  0  0  0  0
 33 34  1  0  0  0  0
 33 36  1  0  0  0  0
 33 38  1  0  0  0  0
 34 35  2  0  0  0  0
 34 42  1  0  0  0  0
 36 39  1  0  0  0  0
 36 40  1  0  0  0  0
 36 41  1  0  0  0  0
 42 43  1  0  0  0  0
 42 44  1  0  0  0  0
 43 45  1  0  0  0  0
 43 46  1  0  0  0  0
 43 47  1  0  0  0  0
M  CHG  1  24  -1
M  END
$$$$

  -OEChem-05262216243D

 47 46  0     1  0  0  0  0  0999 V2000
    0.0636   -5.7466    1.3933 C   0  0  0  0  0  0  0  0  0  0  0  0
    1.0514   -5.7623    2.1123 O   0  0  0  0  0  0  0  0  0  0  0  0
   -1.0272   -6.7847    1.5830 C   0  0  0  0  0  0  0  0  0  0  0  0
   -1.1468   -7.3690    0.6674 H   0  0  0  0  0  0  0  0  0  0  0  0
   -0.7682   -7.4609    2.4022 H   0  0  0  0  0  0  0  0  0  0  0  0
   -1.9734   -6.2914    1.8188 H   0  0  0  0  0  0  0  0  0  0  0  0
   -0.0742   -4.7927    0.4090 N   0  0  0  0  0  0  0  0  0  0  0  0
    0.7957   -3.6205    0.2545 C   0  0  2  0  0  0  0  0  0  0  0  0
   -0.0163   -2.3788   -0.1712 C   0  0  0  0  0  0  0  0  0  0  0  0
   -1.1699   -2.5218   -0.5690 O   0  0  0  0  0  0  0  0  0  0  0  0
    1.8643   -3.9489   -0.7929 C   0  0  0  0  0  0  0  0  0  0  0  0
   -0.9812   -4.7311   -0.0534 H   0  0  0  0  0  0  0  0  0  0  0  0
    1.2797   -3.3838    1.2078 H   0  0  0  0  0  0  0  0  0  0  0  0
    1.3981   -4.1687   -1.7590 H   0  0  0  0  0  0  0  0  0  0  0  0
    2.5492   -3.1057   -0.9240 H   0  0  0  0  0  0  0  0  0  0  0  0
    2.4468   -4.8207   -0.4797 H   0  0  0  0  0  0  0  0  0  0  0  0
    0.5912   -1.1345   -0.1677 N   0  0  0  0  0  0  0  0  0  0  0  0
   -0.0383    0.1362   -0.5740 C   0  0  2  0  0  0  0  0  0  0  0  0
   -1.4683    0.3487   -0.0072 C   0  0  0  0  0  0  0  0  0  0  0  0
   -1.6946    0.0799    1.1705 O   0  0  0  0  0  0  0  0  0  0  0  0
    0.0421    0.2297   -2.1123 C   0  0  0  0  0  0  0  0  0  0  0  0
    1.5057    0.3749   -2.5728 C   0  0  0  0  0  0  0  0  0  0  0  0
    1.6076    0.4446   -4.0946 C   0  0  0  0  0  0  0  0  0  0  0  0
    1.0862    1.4346   -4.6636 O   0  5  0  0  0  0  0  0  0  0  0  0
    2.2241   -0.4794   -4.6794 O   0  0  0  0  0  0  0  0  0  0  0  0
    1.5782   -1.1148    0.0646 H   0  0  0  0  0  0  0  0  0  0  0  0
    0.5518    0.9588   -0.1606 H   0  0  0  0  0  0  0  0  0  0  0  0
   -0.5099    1.1046   -2.4704 H   0  0  0  0  0  0  0  0  0  0  0  0
   -0.4098   -0.6574   -2.5702 H   0  0  0  0  0  0  0  0  0  0  0  0
    1.9372    1.2867   -2.1502 H   0  0  0  0  0  0  0  0  0  0  0  0
    2.0997   -0.4726   -2.2190 H   0  0  0  0  0  0  0  0  0  0  0  0
   -2.4267    1.0813   -0.6869 N   0  0  0  0  0  0  0  0  0  0  0  0
   -3.7983    1.2829   -0.2016 C   0  0  2  0  0  0  0  0  0  0  0  0
   -4.8341    1.2270   -1.3419 C   0  0  0  0  0  0  0  0  0  0  0  0
   -4.5499    1.6315   -2.4627 O   0  0  0  0  0  0  0  0  0  0  0  0
   -3.8638    2.6350    0.5128 C   0  0  0  0  0  0  0  0  0  0  0  0
   -2.2552    1.2546   -1.6776 H   0  0  0  0  0  0  0  0  0  0  0  0
   -4.0582    0.4903    0.5077 H   0  0  0  0  0  0  0  0  0  0  0  0
   -3.6013    3.4444   -0.1761 H   0  0  0  0  0  0  0  0  0  0  0  0
   -4.8717    2.8163    0.8977 H   0  0  0  0  0  0  0  0  0  0  0  0
   -3.1634    2.6513    1.3536 H   0  0  0  0  0  0  0  0  0  0  0  0
   -6.1074    0.7423   -1.0997 N   0  0  0  0  0  0  0  0  0  0  0  0
   -7.1056    0.5739   -2.1481 C   0  0  0  0  0  0  0  0  0  0  0  0
   -6.2783    0.3290   -0.1881 H   0  0  0  0  0  0  0  0  0  0  0  0
   -7.2910    1.5246   -2.6591 H   0  0  0  0  0  0  0  0  0  0  0  0
   -6.7651   -0.1619   -2.8842 H   0  0  0  0  0  0  0  0  0  0  0  0
   -8.0496    0.2254   -1.7187 H   0  0  0  0  0  0  0  0  0  0  0  0
  1  2  2  0  0  0  0
  1  3  1  0  0  0  0
  1  7  1  0  0  0  0
  3  4  1  0  0  0  0
  3  5  1  0  0  0  0
  3  6  1  0  0  0  0
  7  8  1  0  0  0  0
  7 12  1  0  0  0  0
  8  9  1  0  0  0  0
  8 11  1  0  0  0  0
  8 13  1  0  0  0  0
  9 10  2  0  0  0  0
  9 17  1  0  0  0  0
 11 14  1  0  0  0  0
 11 15  1  0  0  0  0
 11 16  1  0  0  0  0
 17 18  1  0  0  0  0
 17 26  1  0  0  0  0
 18 19  1  0  0  0  0
 18 21  1  0  0  0  0
 18 27  1  0  0  0  0
 19 20  2  0  0  0  0
 19 32  1  0  0  0  0
 21 22  1  0  0  0  0
 21 28  1  0  0  0  0
 21 29  1  0  0  0  0
 22 23  1  0  0  0  0
 22 30  1  0  0  0  0
 22 31  1  0  0  0  0
 23 24  1  0  0  0  0
 23 25  2  0  0  0  0
 32 33  1  0  0  0  0
 32 37  1  0  0  0  0
 33 34  1  0  0  0  0
 33 36  1  0  0  0  0
 33 38  1  0  0  0  0
 34 35  2  0  0  0  0
 34 42  1  0  0  0  0
 36 39  1  0  0  0  0
 36 40  1  0  0  0  0
 36 41  1  0  0  0  0
 42 43  1  0  0  0  0
 42 44  1  0  0  0  0
 43 45  1  0  0  0  0
 43 46  1  0  0  0  0
 43 47  1  0  0  0  0
M  CHG  1  24  -1
M  END
$$$$

  -OEChem-05262216243D

 47 46  0     1  0  0  0  0  0999 V2000
    0.1005   -5.7226    1.3871 C   0  0  0  0  0  0  0  0  0  0  0  0
    1.1040   -5.7311    2.0841 O   0  0  0  0  0  0  0  0  0  0  0  0
   -0.9921   -6.7496    1.6214 C   0  0  0  0  0  0  0  0  0  0  0  0
   -1.1505   -7.3389    0.7149 H   0  0  0  0  0  0  0  0  0  0  0  0
   -0.7099   -7.4232    2.4354 H   0  0  0  0  0  0  0  0  0  0  0  0
   -1.9247   -6.2457    1.8877 H   0  0  0  0  0  0  0  0  0  0  0  0
   -0.0580   -4.7799    0.3952 N   0  0  0  0  0  0  0  0  0  0  0  0
    0.8017   -3.6030    0.2199 C   0  0  2  0  0  0  0  0  0  0  0  0
   -0.0305   -2.3594   -0.1575 C   0  0  0  0  0  0  0  0  0  0  0  0
   -1.1959   -2.5035   -0.5182 O   0  0  0  0  0  0  0  0  0  0  0  0
    1.8282   -3.9157   -0.8733 C   0  0  0  0  0  0  0  0  0  0  0  0
   -0.9758   -4.7229   -0.0457 H   0  0  0  0  0  0  0  0  0  0  0  0
    1.3243   -3.3750    1.1547 H   0  0  0  0  0  0  0  0  0  0  0  0
    1.3246   -4.1277   -1.8222 H   0  0  0  0  0  0  0  0  0  0  0  0
    2.5041   -3.0682   -1.0236 H   0  0  0  0  0  0  0  0  0  0  0  0
    2.4261   -4.7883   -0.5927 H   0  0  0  0  0  0  0  0  0  0  0  0
    0.5681   -1.1109   -0.1437 N   0  0  0  0  0  0  0  0  0  0  0  0
   -0.0576    0.1504   -0.5825 C   0  0  2  0  0  0  0  0  0  0  0  0
   -1.5065    0.3501   -0.0650 C   0  0  0  0  0  0  0  0  0  0  0  0
   -1.7210    0.2760    1.1426 O   0  0  0  0  0  0  0  0  0  0  0  0
    0.0753    0.2287   -2.1166 C   0  0  0  0  0  0  0  0  0  0  0  0
    1.5528    0.3815   -2.5258 C   0  0  0  0  0  0  0  0  0  0  0  0
    1.7050    0.4361   -4.0438 C   0  0  0  0  0  0  0  0  0  0  0  0
    1.2294    1.4349   -4.6373 O   0  5  0  0  0  0  0  0  0  0  0  0
    2.3076   -0.5136   -4.6014 O   0  0  0  0  0  0  0  0  0  0  0  0
    1.5675   -1.0957    0.0309 H   0  0  0  0  0  0  0  0  0  0  0  0
    0.5094    0.9833   -0.1571 H   0  0  0  0  0  0  0  0  0  0  0  0
   -0.4721    1.0968   -2.4991 H   0  0  0  0  0  0  0  0  0  0  0  0
   -0.3536   -0.6664   -2.5813 H   0  0  0  0  0  0  0  0  0  0  0  0
    1.9614    1.3012   -2.0976 H   0  0  0  0  0  0  0  0  0  0  0  0
    2.1420   -0.4569   -2.1431 H   0  0  0  0  0  0  0  0  0  0  0  0
   -2.5347    0.7906   -0.8810 N   0  0  0  0  0  0  0  0  0  0  0  0
   -3.9334    0.8855   -0.4443 C   0  0  2  0  0  0  0  0  0  0  0  0
   -4.9249    0.4618   -1.5467 C   0  0  0  0  0  0  0  0  0  0  0  0
   -4.6557    0.6277   -2.7302 O   0  0  0  0  0  0  0  0  0  0  0  0
   -4.2048    2.3268   -0.0063 C   0  0  0  0  0  0  0  0  0  0  0  0
   -2.3654    0.7557   -1.8866 H   0  0  0  0  0  0  0  0  0  0  0  0
   -4.0983    0.2165    0.4064 H   0  0  0  0  0  0  0  0  0  0  0  0
   -4.0431    3.0170   -0.8407 H   0  0  0  0  0  0  0  0  0  0  0  0
   -5.2369    2.4328    0.3408 H   0  0  0  0  0  0  0  0  0  0  0  0
   -3.5333    2.6053    0.8121 H   0  0  0  0  0  0  0  0  0  0  0  0
   -6.1482   -0.0865   -1.2027 N   0  0  0  0  0  0  0  0  0  0  0  0
   -7.1038   -0.5823   -2.1850 C   0  0  0  0  0  0  0  0  0  0  0  0
   -6.3042   -0.2877   -0.2198 H   0  0  0  0  0  0  0  0  0  0  0  0
   -7.3878    0.2140   -2.8811 H   0  0  0  0  0  0  0  0  0  0  0  0
   -6.6706   -1.4107   -2.7553 H   0  0  0  0  0  0  0  0  0  0  0  0
   -8.0084   -0.9403   -1.6845 H   0  0  0  0  0  0  0  0  0  0  0  0
  1  2  2  0  0  0  0
  1  3  1  0  0  0  0
  1  7  1  0  0  0  0
  3  4  1  0  0  0  0
  3  5  1  0  0  0  0
  3  6  1  0  0  0  0
  7  8  1  0  0  0  0
  7 12  1  0  0  0  0
  8  9  1  0  0  0  0
  8 11  1  0  0  0  0
  8 13  1  0  0  0  0
  9 10  2  0  0  0  0
  9 17  1  0  0  0  0
 11 14  1  0  0  0  0
 11 15  1  0  0  0  0
 11 16  1  0  0  0  0
 17 18  1  0  0  0  0
 17 26  1  0  0  0  0
 18 19  1  0  0  0  0
 18 21  1  0  0  0  0
 18 27  1  0  0  0  0
 19 20  2  0  0  0  0
 19 32  1  0  0  0  0
 21 22  1  0  0  0  0
 21 28  1  0  0  0  0
 21 29  1  0  0  0  0
 22 23  1  0  0  0  0
 22 30  1  0  0  0  0
 22 31  1  0  0  0  0
 23 24  1  0  0  0  0
 23 25  2  0  0  0  0
 32 33  1  0  0  0  0
 32 37  1  0  0  0  0
 33 34  1  0  0  0  0
 33 36  1  0  0  0  0
 33 38  1  0  0  0  0
 34 35  2  0  0  0  0
 34 42  1  0  0  0  0
 36 39  1  0  0  0  0
 36 40  1  0  0  0  0
 36 41  1  0  0  0  0
 42 43  1  0  0  0  0
 42 44  1  0  0  0  0
 43 45  1  0  0  0  0
 43 46  1  0  0  0  0
 43 47  1  0  0  0  0
M  CHG  1  24  -1
M  END
$$$$

  -OEChem-05262216243D

 47 46  0     1  0  0  0  0  0999 V2000
    0.1147   -5.7754    1.3053 C   0  0  0  0  0  0  0  0  0  0  0  0
    1.1181   -5.8005    2.0020 O   0  0  0  0  0  0  0  0  0  0  0  0
   -0.9364   -6.8603    1.4518 C   0  0  0  0  0  0  0  0  0  0  0  0
   -1.0647   -7.3848    0.5016 H   0  0  0  0  0  0  0  0  0  0  0  0
   -0.6319   -7.5823    2.2147 H   0  0  0  0  0  0  0  0  0  0  0  0
   -1.8905   -6.4163    1.7468 H   0  0  0  0  0  0  0  0  0  0  0  0
   -0.0797   -4.7630    0.3916 N   0  0  0  0  0  0  0  0  0  0  0  0
    0.7591   -3.5634    0.2805 C   0  0  2  0  0  0  0  0  0  0  0  0
   -0.0841   -2.3242   -0.0899 C   0  0  0  0  0  0  0  0  0  0  0  0
   -1.2576   -2.4714   -0.4210 O   0  0  0  0  0  0  0  0  0  0  0  0
    1.8309   -3.8229   -0.7833 C   0  0  0  0  0  0  0  0  0  0  0  0
   -0.9940   -4.7083   -0.0569 H   0  0  0  0  0  0  0  0  0  0  0  0
    1.2427   -3.3549    1.2406 H   0  0  0  0  0  0  0  0  0  0  0  0
    1.3659   -4.0070   -1.7576 H   0  0  0  0  0  0  0  0  0  0  0  0
    2.5000   -2.9621   -0.8773 H   0  0  0  0  0  0  0  0  0  0  0  0
    2.4310   -4.6970   -0.5119 H   0  0  0  0  0  0  0  0  0  0  0  0
    0.5105   -1.0740   -0.0949 N   0  0  0  0  0  0  0  0  0  0  0  0
   -0.1040    0.1737   -0.5859 C   0  0  2  0  0  0  0  0  0  0  0  0
   -1.5659    0.3912   -0.1199 C   0  0  0  0  0  0  0  0  0  0  0  0
   -1.7890    0.5592    1.0761 O   0  0  0  0  0  0  0  0  0  0  0  0
    0.0610    0.2119   -2.1176 C   0  0  0  0  0  0  0  0  0  0  0  0
    1.5447    0.3544   -2.5036 C   0  0  0  0  0  0  0  0  0  0  0  0
    1.7187    0.3683   -4.0199 C   0  0  0  0  0  0  0  0  0  0  0  0
    1.2712    1.3601   -4.6459 O   0  5  0  0  0  0  0  0  0  0  0  0
    2.3015   -0.6119   -4.5445 O   0  0  0  0  0  0  0  0  0  0  0  0
    1.5147   -1.0627    0.0516 H   0  0  0  0  0  0  0  0  0  0  0  0
    0.4532    1.0180   -0.1696 H   0  0  0  0  0  0  0  0  0  0  0  0
   -0.4811    1.0707   -2.5292 H   0  0  0  0  0  0  0  0  0  0  0  0
   -0.3576   -0.6953   -2.5685 H   0  0  0  0  0  0  0  0  0  0  0  0
    1.9464    1.2851   -2.0931 H   0  0  0  0  0  0  0  0  0  0  0  0
    2.1270   -0.4734   -2.0888 H   0  0  0  0  0  0  0  0  0  0  0  0
   -2.6173    0.5113   -1.0122 N   0  0  0  0  0  0  0  0  0  0  0  0
   -4.0265    0.5644   -0.6082 C   0  0  2  0  0  0  0  0  0  0  0  0
   -4.9302   -0.2725   -1.5356 C   0  0  0  0  0  0  0  0  0  0  0  0
   -4.7343   -0.2980   -2.7449 O   0  0  0  0  0  0  0  0  0  0  0  0
   -4.4698    2.0286   -0.6110 C   0  0  0  0  0  0  0  0  0  0  0  0
   -2.4230    0.2411   -1.9763 H   0  0  0  0  0  0  0  0  0  0  0  0
   -4.1377    0.1591    0.4024 H   0  0  0  0  0  0  0  0  0  0  0  0
   -4.3687    2.4564   -1.6138 H   0  0  0  0  0  0  0  0  0  0  0  0
   -5.5149    2.1113   -0.2988 H   0  0  0  0  0  0  0  0  0  0  0  0
   -3.8534    2.6111    0.0807 H   0  0  0  0  0  0  0  0  0  0  0  0
   -6.0104   -0.9610   -1.0125 N   0  0  0  0  0  0  0  0  0  0  0  0
   -6.8753   -1.8130   -1.8182 C   0  0  0  0  0  0  0  0  0  0  0  0
   -6.0828   -1.0029   -0.0005 H   0  0  0  0  0  0  0  0  0  0  0  0
   -7.3271   -1.2395   -2.6346 H   0  0  0  0  0  0  0  0  0  0  0  0
   -6.3027   -2.6432   -2.2447 H   0  0  0  0  0  0  0  0  0  0  0  0
   -7.6796   -2.2246   -1.2014 H   0  0  0  0  0  0  0  0  0  0  0  0
  1  2  2  0  0  0  0
  1  3  1  0  0  0  0
  1  7  1  0  0  0  0
  3  4  1  0  0  0  0
  3  5  1  0  0  0  0
  3  6  1  0  0  0  0
  7  8  1  0  0  0  0
  7 12  1  0  0  0  0
  8  9  1  0  0  0  0
  8 11  1  0  0  0  0
  8 13  1  0  0  0  0
  9 10  2  0  0  0  0
  9 17  1  0  0  0  0
 11 14  1  0  0  0  0
 11 15  1  0  0  0  0
 11 16  1  0  0  0  0
 17 18  1  0  0  0  0
 17 26  1  0  0  0  0
 18 19  1  0  0  0  0
 18 21  1  0  0  0  0
 18 27  1  0  0  0  0
 19 20  2  0  0  0  0
 19 32  1  0  0  0  0
 21 22  1  0  0  0  0
 21 28  1  0  0  0  0
 21 29  1  0  0  0  0
 22 23  1  0  0  0  0
 22 30  1  0  0  0  0
 22 31  1  0  0  0  0
 23 24  1  0  0  0  0
 23 25  2  0  0  0  0
 32 33  1  0  0  0  0
 32 37  1  0  0  0  0
 33 34  1  0  0  0  0
 33 36  1  0  0  0  0
 33 38  1  0  0  0  0
 34 35  2  0  0  0  0
 34 42  1  0  0  0  0
 36 39  1  0  0  0  0
 36 40  1  0  0  0  0
 36 41  1  0  0  0  0
 42 43  1  0  0  0  0
 42 44  1  0  0  0  0
 43 45  1  0  0  0  0
 43 46  1  0  0  0  0
 43 47  1  0  0  0  0
M  CHG  1  24  -1
M  END
$$$$

  -OEChem-05262216243D

 47 46  0     1  0  0  0  0  0999 V2000
   -0.5466   -5.8064    0.9966 C   0  0  0  0  0  0  0  0  0  0  0  0
    0.2715   -5.8611    1.9018 O   0  0  0  0  0  0  0  0  0  0  0  0
   -1.6628   -6.8319    0.9205 C   0  0  0  0  0  0  0  0  0  0  0  0
   -2.6301   -6.3388    1.0448 H   0  0  0  0  0  0  0  0  0  0  0  0
   -1.6413   -7.3366   -0.0486 H   0  0  0  0  0  0  0  0  0  0  0  0
   -1.5434   -7.5789    1.7102 H   0  0  0  0  0  0  0  0  0  0  0  0
   -0.4776   -4.8100    0.0472 N   0  0  0  0  0  0  0  0  0  0  0  0
    0.3916   -3.6297    0.1432 C   0  0  2  0  0  0  0  0  0  0  0  0
   -0.3754   -2.3415   -0.2197 C   0  0  0  0  0  0  0  0  0  0  0  0
   -1.4630   -2.4254   -0.7847 O   0  0  0  0  0  0  0  0  0  0  0  0
    1.5761   -3.8311   -0.8067 C   0  0  0  0  0  0  0  0  0  0  0  0
   -1.2717   -4.7264   -0.5859 H   0  0  0  0  0  0  0  0  0  0  0  0
    0.7630   -3.5123    1.1668 H   0  0  0  0  0  0  0  0  0  0  0  0
    1.2270   -3.9237   -1.8405 H   0  0  0  0  0  0  0  0  0  0  0  0
    2.2656   -2.9831   -0.7509 H   0  0  0  0  0  0  0  0  0  0  0  0
    2.1250   -4.7398   -0.5410 H   0  0  0  0  0  0  0  0  0  0  0  0
    0.1954   -1.1063    0.0301 N   0  0  0  0  0  0  0  0  0  0  0  0
   -0.3370    0.1988   -0.4057 C   0  0  2  0  0  0  0  0  0  0  0  0
   -1.8594    0.3849   -0.1841 C   0  0  0  0  0  0  0  0  0  0  0  0
   -2.2781    0.6166    0.9434 O   0  0  0  0  0  0  0  0  0  0  0  0
    0.0649    0.3968   -1.8794 C   0  0  0  0  0  0  0  0  0  0  0  0
    1.5873    0.5553   -2.0295 C   0  0  0  0  0  0  0  0  0  0  0  0
    1.9647    0.7244   -3.4989 C   0  0  0  0  0  0  0  0  0  0  0  0
    1.5661    1.7593   -4.0871 O   0  5  0  0  0  0  0  0  0  0  0  0
    2.6206   -0.2015   -4.0349 O   0  0  0  0  0  0  0  0  0  0  0  0
    1.1500   -1.1202    0.3762 H   0  0  0  0  0  0  0  0  0  0  0  0
    0.1422    0.9850    0.1859 H   0  0  0  0  0  0  0  0  0  0  0  0
   -0.4149    1.3009   -2.2718 H   0  0  0  0  0  0  0  0  0  0  0  0
   -0.2758   -0.4509   -2.4841 H   0  0  0  0  0  0  0  0  0  0  0  0
    1.9269    1.4329   -1.4721 H   0  0  0  0  0  0  0  0  0  0  0  0
    2.1045   -0.3200   -1.6265 H   0  0  0  0  0  0  0  0  0  0  0  0
   -2.7633    0.3242   -1.2304 N   0  0  0  0  0  0  0  0  0  0  0  0
   -4.2167    0.5026   -1.0849 C   0  0  2  0  0  0  0  0  0  0  0  0
   -4.9816   -0.7815   -0.6832 C   0  0  0  0  0  0  0  0  0  0  0  0
   -6.2042   -0.7608   -0.5789 O   0  0  0  0  0  0  0  0  0  0  0  0
   -4.7295    1.0536   -2.4190 C   0  0  0  0  0  0  0  0  0  0  0  0
   -2.3969   -0.0075   -2.1193 H   0  0  0  0  0  0  0  0  0  0  0  0
   -4.4142    1.2478   -0.3072 H   0  0  0  0  0  0  0  0  0  0  0  0
   -4.5809    0.3214   -3.2189 H   0  0  0  0  0  0  0  0  0  0  0  0
   -5.7977    1.2827   -2.3519 H   0  0  0  0  0  0  0  0  0  0  0  0
   -4.1964    1.9729   -2.6809 H   0  0  0  0  0  0  0  0  0  0  0  0
   -4.3209   -1.9825   -0.5037 N   0  0  0  0  0  0  0  0  0  0  0  0
   -4.9710   -3.2148   -0.0867 C   0  0  0  0  0  0  0  0  0  0  0  0
   -3.2988   -1.9621   -0.5706 H   0  0  0  0  0  0  0  0  0  0  0  0
   -5.7285   -3.5148   -0.8178 H   0  0  0  0  0  0  0  0  0  0  0  0
   -4.2315   -4.0167   -0.0044 H   0  0  0  0  0  0  0  0  0  0  0  0
   -5.4508   -3.0830    0.8886 H   0  0  0  0  0  0  0  0  0  0  0  0
  1  2  2  0  0  0  0
  1  3  1  0  0  0  0
  1  7  1  0  0  0  0
  3  4  1  0  0  0  0
  3  5  1  0  0  0  0
  3  6  1  0  0  0  0
  7  8  1  0  0  0  0
  7 12  1  0  0  0  0
  8  9  1  0  0  0  0
  8 11  1  0  0  0  0
  8 13  1  0  0  0  0
  9 10  2  0  0  0  0
  9 17  1  0  0  0  0
 11 14  1  0  0  0  0
 11 15  1  0  0  0  0
 11 16  1  0  0  0  0
 17 18  1  0  0  0  0
 17 26  1  0  0  0  0
 18 19  1  0  0  0  0
 18 21  1  0  0  0  0
 18 27  1  0  0  0  0
 19 20  2  0  0  0  0
 19 32  1  0  0  0  0
 21 22  1  0  0  0  0
 21 28  1  0  0  0  0
 21 29  1  0  0  0  0
 22 23  1  0  0  0  0
 22 30  1  0  0  0  0
 22 31  1  0  0  0  0
 23 24  1  0  0  0  0
 23 25  2  0  0  0  0
 32 33  1  0  0  0  0
 32 37  1  0  0  0  0
 33 34  1  0  0  0  0
 33 36  1  0  0  0  0
 33 38  1  0  0  0  0
 34 35  2  0  0  0  0
 34 42  1  0  0  0  0
 36 39  1  0  0  0  0
 36 40  1  0  0  0  0
 36 41  1  0  0  0  0
 42 43  1  0  0  0  0
 42 44  1  0  0  0  0
 43 45  1  0  0  0  0
 43 46  1  0  0  0  0
 43 47  1  0  0  0  0
M  CHG  1  24  -1
M  END
$$$$

  -OEChem-05262216243D

 47 46  0     1  0  0  0  0  0999 V2000
   -1.0464   -5.5657    0.7723 C   0  0  0  0  0  0  0  0  0  0  0  0
   -0.9411   -5.3470    1.9699 O   0  0  0  0  0  0  0  0  0  0  0  0
   -2.0401   -6.6005    0.2767 C   0  0  0  0  0  0  0  0  0  0  0  0
   -1.5091   -7.4298   -0.1966 H   0  0  0  0  0  0  0  0  0  0  0  0
   -2.6318   -6.9883    1.1107 H   0  0  0  0  0  0  0  0  0  0  0  0
   -2.7163   -6.1478   -0.4535 H   0  0  0  0  0  0  0  0  0  0  0  0
   -0.2825   -4.8744   -0.1440 N   0  0  0  0  0  0  0  0  0  0  0  0
    0.4430   -3.6357    0.1771 C   0  0  2  0  0  0  0  0  0  0  0  0
   -0.2709   -2.4011   -0.4114 C   0  0  0  0  0  0  0  0  0  0  0  0
   -1.1252   -2.5568   -1.2784 O   0  0  0  0  0  0  0  0  0  0  0  0
    1.8563   -3.7585   -0.3984 C   0  0  0  0  0  0  0  0  0  0  0  0
   -0.6108   -4.9454   -1.1056 H   0  0  0  0  0  0  0  0  0  0  0  0
    0.5159   -3.4962    1.2607 H   0  0  0  0  0  0  0  0  0  0  0  0
    1.8190   -3.8688   -1.4873 H   0  0  0  0  0  0  0  0  0  0  0  0
    2.4474   -2.8681   -0.1624 H   0  0  0  0  0  0  0  0  0  0  0  0
    2.3629   -4.6314    0.0246 H   0  0  0  0  0  0  0  0  0  0  0  0
    0.1079   -1.1256   -0.0277 N   0  0  0  0  0  0  0  0  0  0  0  0
   -0.5256    0.1358   -0.4602 C   0  0  2  0  0  0  0  0  0  0  0  0
   -2.0724    0.1072   -0.4161 C   0  0  0  0  0  0  0  0  0  0  0  0
   -2.6427    0.3810    0.6358 O   0  0  0  0  0  0  0  0  0  0  0  0
    0.0067    0.5030   -1.8581 C   0  0  0  0  0  0  0  0  0  0  0  0
    1.5032    0.8580   -1.8039 C   0  0  0  0  0  0  0  0  0  0  0  0
    2.0383    1.1982   -3.1932 C   0  0  0  0  0  0  0  0  0  0  0  0
    1.5733    2.2165   -3.7614 O   0  5  0  0  0  0  0  0  0  0  0  0
    2.9092    0.4369   -3.6808 O   0  0  0  0  0  0  0  0  0  0  0  0
    0.8889   -1.0590    0.6170 H   0  0  0  0  0  0  0  0  0  0  0  0
   -0.2240    0.9292    0.2308 H   0  0  0  0  0  0  0  0  0  0  0  0
   -0.5452    1.3672   -2.2448 H   0  0  0  0  0  0  0  0  0  0  0  0
   -0.1466   -0.3266   -2.5566 H   0  0  0  0  0  0  0  0  0  0  0  0
    1.6560    1.7189   -1.1467 H   0  0  0  0  0  0  0  0  0  0  0  0
    2.0766    0.0195   -1.3980 H   0  0  0  0  0  0  0  0  0  0  0  0
   -2.8291   -0.2995   -1.4996 N   0  0  0  0  0  0  0  0  0  0  0  0
   -4.2703   -0.5842   -1.4157 C   0  0  2  0  0  0  0  0  0  0  0  0
   -4.5759   -1.9285   -0.7017 C   0  0  0  0  0  0  0  0  0  0  0  0
   -5.2622   -2.8031   -1.2229 O   0  0  0  0  0  0  0  0  0  0  0  0
   -4.8199   -0.5297   -2.8462 C   0  0  0  0  0  0  0  0  0  0  0  0
   -2.2916   -0.8548   -2.1671 H   0  0  0  0  0  0  0  0  0  0  0  0
   -4.7622    0.2054   -0.8386 H   0  0  0  0  0  0  0  0  0  0  0  0
   -4.3661   -1.3131   -3.4617 H   0  0  0  0  0  0  0  0  0  0  0  0
   -5.9047   -0.6735   -2.8434 H   0  0  0  0  0  0  0  0  0  0  0  0
   -4.6016    0.4418   -3.3000 H   0  0  0  0  0  0  0  0  0  0  0  0
   -4.1003   -2.1322    0.5795 N   0  0  0  0  0  0  0  0  0  0  0  0
   -4.2087   -3.3880    1.3060 C   0  0  0  0  0  0  0  0  0  0  0  0
   -3.5084   -1.3867    0.9541 H   0  0  0  0  0  0  0  0  0  0  0  0
   -5.2593   -3.6432    1.4767 H   0  0  0  0  0  0  0  0  0  0  0  0
   -3.7357   -4.1957    0.7406 H   0  0  0  0  0  0  0  0  0  0  0  0
   -3.7087   -3.3060    2.2760 H   0  0  0  0  0  0  0  0  0  0  0  0
  1  2  2  0  0  0  0
  1  3  1  0  0  0  0
  1  7  1  0  0  0  0
  3  4  1  0  0  0  0
  3  5  1  0  0  0  0
  3  6  1  0  0  0  0
  7  8  1  0  0  0  0
  7 12  1  0  0  0  0
  8  9  1  0  0  0  0
  8 11  1  0  0  0  0
  8 13  1  0  0  0  0
  9 10  2  0  0  0  0
  9 17  1  0  0  0  0
 11 14  1  0  0  0  0
 11 15  1  0  0  0  0
 11 16  1  0  0  0  0
 17 18  1  0  0  0  0
 17 26  1  0  0  0  0
 18 19  1  0  0  0  0
 18 21  1  0  0  0  0
 18 27  1  0  0  0  0
 19 20  2  0  0  0  0
 19 32  1  0  0  0  0
 21 22  1  0  0  0  0
 21 28  1  0  0  0  0
 21 29  1  0  0  0  0
 22 23  1  0  0  0  0
 22 30  1  0  0  0  0
 22 31  1  0  0  0  0
 23 24  1  0  0  0  0
 23 25  2  0  0  0  0
 32 33  1  0  0  0  0
 32 37  1  0  0  0  0
 33 34  1  0  0  0  0
 33 36  1  0  0  0  0
 33 38  1  0  0  0  0
 34 35  2  0  0  0  0
 34 42  1  0  0  0  0
 36 39  1  0  0  0  0
 36 40  1  0  0  0  0
 36 41  1  0  0  0  0
 42 43  1  0  0  0  0
 42 44  1  0  0  0  0
 43 45  1  0  0  0  0
 43 46  1  0  0  0  0
 43 47  1  0  0  0  0
M  CHG  1  24  -1
M  END
$$$$

  -OEChem-05262216243D

 47 46  0     1  0  0  0  0  0999 V2000
    0.0778   -6.1592    0.7049 C   0  0  0  0  0  0  0  0  0  0  0  0
    0.7457   -6.1322    1.7275 O   0  0  0  0  0  0  0  0  0  0  0  0
   -0.7460   -7.3889    0.3689 C   0  0  0  0  0  0  0  0  0  0  0  0
   -0.4205   -7.8055   -0.5876 H   0  0  0  0  0  0  0  0  0  0  0  0
   -0.6236   -8.1494    1.1450 H   0  0  0  0  0  0  0  0  0  0  0  0
   -1.8037   -7.1223    0.3002 H   0  0  0  0  0  0  0  0  0  0  0  0
    0.0618   -5.0771   -0.1480 N   0  0  0  0  0  0  0  0  0  0  0  0
    0.6576   -3.7687    0.1521 C   0  0  2  0  0  0  0  0  0  0  0  0
   -0.2493   -2.6163   -0.3283 C   0  0  0  0  0  0  0  0  0  0  0  0
   -1.1797   -2.8615   -1.0892 O   0  0  0  0  0  0  0  0  0  0  0  0
    2.0261   -3.6977   -0.5328 C   0  0  0  0  0  0  0  0  0  0  0  0
   -0.6269   -5.0924   -0.8997 H   0  0  0  0  0  0  0  0  0  0  0  0
    0.7879   -3.6530    1.2334 H   0  0  0  0  0  0  0  0  0  0  0  0
    1.9163   -3.7854   -1.6188 H   0  0  0  0  0  0  0  0  0  0  0  0
    2.5211   -2.7471   -0.3117 H   0  0  0  0  0  0  0  0  0  0  0  0
    2.6685   -4.5105   -0.1801 H   0  0  0  0  0  0  0  0  0  0  0  0
    0.0369   -1.3169    0.0543 N   0  0  0  0  0  0  0  0  0  0  0  0
   -0.6443   -0.0763   -0.3729 C   0  0  2  0  0  0  0  0  0  0  0  0
   -2.1936   -0.0956   -0.3818 C   0  0  0  0  0  0  0  0  0  0  0  0
   -2.8068    0.4663    0.5208 O   0  0  0  0  0  0  0  0  0  0  0  0
   -0.1029    0.2964   -1.7647 C   0  0  0  0  0  0  0  0  0  0  0  0
    1.3813    0.6977   -1.6945 C   0  0  0  0  0  0  0  0  0  0  0  0
    1.9169    1.0411   -3.0823 C   0  0  0  0  0  0  0  0  0  0  0  0
    1.4970    2.0915   -3.6261 O   0  5  0  0  0  0  0  0  0  0  0  0
    2.7350    0.2406   -3.5979 O   0  0  0  0  0  0  0  0  0  0  0  0
    0.9129   -1.1975    0.5543 H   0  0  0  0  0  0  0  0  0  0  0  0
   -0.3648    0.7206    0.3237 H   0  0  0  0  0  0  0  0  0  0  0  0
   -0.6746    1.1418   -2.1650 H   0  0  0  0  0  0  0  0  0  0  0  0
   -0.2253   -0.5419   -2.4594 H   0  0  0  0  0  0  0  0  0  0  0  0
    1.5000    1.5683   -1.0433 H   0  0  0  0  0  0  0  0  0  0  0  0
    1.9786   -0.1173   -1.2760 H   0  0  0  0  0  0  0  0  0  0  0  0
   -2.9162   -0.7538   -1.3577 N   0  0  0  0  0  0  0  0  0  0  0  0
   -4.3814   -0.8706   -1.3754 C   0  0  2  0  0  0  0  0  0  0  0  0
   -4.9210   -1.9064   -0.3556 C   0  0  0  0  0  0  0  0  0  0  0  0
   -5.6844   -2.8096   -0.6848 O   0  0  0  0  0  0  0  0  0  0  0  0
   -4.7784   -1.1955   -2.8204 C   0  0  0  0  0  0  0  0  0  0  0  0
   -2.3792   -1.4856   -1.8313 H   0  0  0  0  0  0  0  0  0  0  0  0
   -4.8224    0.0971   -1.1152 H   0  0  0  0  0  0  0  0  0  0  0  0
   -4.3697   -2.1660   -3.1200 H   0  0  0  0  0  0  0  0  0  0  0  0
   -5.8679   -1.2308   -2.9185 H   0  0  0  0  0  0  0  0  0  0  0  0
   -4.3946   -0.4291   -3.5011 H   0  0  0  0  0  0  0  0  0  0  0  0
   -4.5754   -1.7826    0.9761 N   0  0  0  0  0  0  0  0  0  0  0  0
   -4.9876   -2.7050    2.0229 C   0  0  0  0  0  0  0  0  0  0  0  0
   -3.9409   -1.0116    1.2011 H   0  0  0  0  0  0  0  0  0  0  0  0
   -6.0793   -2.7375    2.0961 H   0  0  0  0  0  0  0  0  0  0  0  0
   -4.6162   -3.7128    1.8112 H   0  0  0  0  0  0  0  0  0  0  0  0
   -4.5853   -2.3824    2.9878 H   0  0  0  0  0  0  0  0  0  0  0  0
  1  2  2  0  0  0  0
  1  3  1  0  0  0  0
  1  7  1  0  0  0  0
  3  4  1  0  0  0  0
  3  5  1  0  0  0  0
  3  6  1  0  0  0  0
  7  8  1  0  0  0  0
  7 12  1  0  0  0  0
  8  9  1  0  0  0  0
  8 11  1  0  0  0  0
  8 13  1  0  0  0  0
  9 10  2  0  0  0  0
  9 17  1  0  0  0  0
 11 14  1  0  0  0  0
 11 15  1  0  0  0  0
 11 16  1  0  0  0  0
 17 18  1  0  0  0  0
 17 26  1  0  0  0  0
 18 19  1  0  0  0  0
 18 21  1  0  0  0  0
 18 27  1  0  0  0  0
 19 20  2  0  0  0  0
 19 32  1  0  0  0  0
 21 22  1  0  0  0  0
 21 28  1  0  0  0  0
 21 29  1  0  0  0  0
 22 23  1  0  0  0  0
 22 30  1  0  0  0  0
 22 31  1  0  0  0  0
 23 24  1  0  0  0  0
 23 25  2  0  0  0  0
 32 33  1  0  0  0  0
 32 37  1  0  0  0  0
 33 34  1  0  0  0  0
 33 36  1  0  0  0  0
 33 38  1  0  0  0  0
 34 35  2  0  0  0  0
 34 42  1  0  0  0  0
 36 39  1  0  0  0  0
 36 40  1  0  0  0  0
 36 41  1  0  0  0  0
 42 43  1  0  0  0  0
 42 44  1  0  0  0  0
 43 45  1  0  0  0  0
 43 46  1  0  0  0  0
 43 47  1  0  0  0  0
M  CHG  1  24  -1
M  END
$$$$

  -OEChem-05262216243D

 47 46  0     1  0  0  0  0  0999 V2000
    0.3554   -6.2126    0.7209 C   0  0  0  0  0  0  0  0  0  0  0  0
    1.0153   -6.1080    1.7438 O   0  0  0  0  0  0  0  0  0  0  0  0
   -0.4781   -7.4580    0.4803 C   0  0  0  0  0  0  0  0  0  0  0  0
   -0.1683   -7.9395   -0.4504 H   0  0  0  0  0  0  0  0  0  0  0  0
   -0.3475   -8.1655    1.3039 H   0  0  0  0  0  0  0  0  0  0  0  0
   -1.5355   -7.1908    0.4093 H   0  0  0  0  0  0  0  0  0  0  0  0
    0.3528   -5.2041   -0.2185 N   0  0  0  0  0  0  0  0  0  0  0  0
    0.9105   -3.8627    0.0015 C   0  0  2  0  0  0  0  0  0  0  0  0
   -0.0999   -2.7667   -0.3963 C   0  0  0  0  0  0  0  0  0  0  0  0
   -1.0293   -3.0578   -1.1409 O   0  0  0  0  0  0  0  0  0  0  0  0
    2.1905   -3.7359   -0.8294 C   0  0  0  0  0  0  0  0  0  0  0  0
   -0.3430   -5.2781   -0.9599 H   0  0  0  0  0  0  0  0  0  0  0  0
    1.1534   -3.7177    1.0592 H   0  0  0  0  0  0  0  0  0  0  0  0
    1.9695   -3.8542   -1.8954 H   0  0  0  0  0  0  0  0  0  0  0  0
    2.6522   -2.7547   -0.6804 H   0  0  0  0  0  0  0  0  0  0  0  0
    2.9110   -4.5051   -0.5345 H   0  0  0  0  0  0  0  0  0  0  0  0
    0.1033   -1.4674    0.0368 N   0  0  0  0  0  0  0  0  0  0  0  0
   -0.6585   -0.2413   -0.2943 C   0  0  2  0  0  0  0  0  0  0  0  0
   -2.2087   -0.2991   -0.2690 C   0  0  0  0  0  0  0  0  0  0  0  0
   -2.8137    0.3866    0.5495 O   0  0  0  0  0  0  0  0  0  0  0  0
   -0.1814    0.2230   -1.6818 C   0  0  0  0  0  0  0  0  0  0  0  0
    1.2846    0.6924   -1.6374 C   0  0  0  0  0  0  0  0  0  0  0  0
    1.7640    1.1286   -3.0198 C   0  0  0  0  0  0  0  0  0  0  0  0
    1.2343    2.1468   -3.5277 O   0  5  0  0  0  0  0  0  0  0  0  0
    2.6566    0.4338   -3.5644 O   0  0  0  0  0  0  0  0  0  0  0  0
    0.9838   -1.3176    0.5207 H   0  0  0  0  0  0  0  0  0  0  0  0
   -0.3839    0.5280    0.4348 H   0  0  0  0  0  0  0  0  0  0  0  0
   -0.8044    1.0579   -2.0229 H   0  0  0  0  0  0  0  0  0  0  0  0
   -0.2892   -0.5865   -2.4118 H   0  0  0  0  0  0  0  0  0  0  0  0
    1.3817    1.5360   -0.9480 H   0  0  0  0  0  0  0  0  0  0  0  0
    1.9320   -0.1118   -1.2762 H   0  0  0  0  0  0  0  0  0  0  0  0
   -2.9492   -1.1464   -1.0691 N   0  0  0  0  0  0  0  0  0  0  0  0
   -4.4069   -1.3211   -0.9936 C   0  0  2  0  0  0  0  0  0  0  0  0
   -4.8478   -2.1815    0.2177 C   0  0  0  0  0  0  0  0  0  0  0  0
   -5.5283   -3.1948    0.0881 O   0  0  0  0  0  0  0  0  0  0  0  0
   -4.8541   -1.9110   -2.3361 C   0  0  0  0  0  0  0  0  0  0  0  0
   -2.4002   -1.8843   -1.5204 H   0  0  0  0  0  0  0  0  0  0  0  0
   -4.8815   -0.3406   -0.8842 H   0  0  0  0  0  0  0  0  0  0  0  0
   -4.4032   -2.8967   -2.4911 H   0  0  0  0  0  0  0  0  0  0  0  0
   -5.9429   -2.0178   -2.3614 H   0  0  0  0  0  0  0  0  0  0  0  0
   -4.5520   -1.2553   -3.1585 H   0  0  0  0  0  0  0  0  0  0  0  0
   -4.4921   -1.7779    1.4898 N   0  0  0  0  0  0  0  0  0  0  0  0
   -4.7691   -2.5365    2.6999 C   0  0  0  0  0  0  0  0  0  0  0  0
   -3.8992   -0.9448    1.5404 H   0  0  0  0  0  0  0  0  0  0  0  0
   -4.2358   -3.4924    2.6799 H   0  0  0  0  0  0  0  0  0  0  0  0
   -4.4419   -1.9732    3.5789 H   0  0  0  0  0  0  0  0  0  0  0  0
   -5.8423   -2.7305    2.7943 H   0  0  0  0  0  0  0  0  0  0  0  0
  1  2  2  0  0  0  0
  1  3  1  0  0  0  0
  1  7  1  0  0  0  0
  3  4  1  0  0  0  0
  3  5  1  0  0  0  0
  3  6  1  0  0  0  0
  7  8  1  0  0  0  0
  7 12  1  0  0  0  0
  8  9  1  0  0  0  0
  8 11  1  0  0  0  0
  8 13  1  0  0  0  0
  9 10  2  0  0  0  0
  9 17  1  0  0  0  0
 11 14  1  0  0  0  0
 11 15  1  0  0  0  0
 11 16  1  0  0  0  0
 17 18  1  0  0  0  0
 17 26  1  0  0  0  0
 18 19  1  0  0  0  0
 18 21  1  0  0  0  0
 18 27  1  0  0  0  0
 19 20  2  0  0  0  0
 19 32  1  0  0  0  0
 21 22  1  0  0  0  0
 21 28  1  0  0  0  0
 21 29  1  0  0  0  0
 22 23  1  0  0  0  0
 22 30  1  0  0  0  0
 22 31  1  0  0  0  0
 23 24  1  0  0  0  0
 23 25  2  0  0  0  0
 32 33  1  0  0  0  0
 32 37  1  0  0  0  0
 33 34  1  0  0  0  0
 33 36  1  0  0  0  0
 33 38  1  0  0  0  0
 34 35  2  0  0  0  0
 34 42  1  0  0  0  0
 36 39  1  0  0  0  0
 36 40  1  0  0  0  0
 36 41  1  0  0  0  0
 42 43  1  0  0  0  0
 42 44  1  0  0  0  0
 43 45  1  0  0  0  0
 43 46  1  0  0  0  0
 43 47  1  0  0  0  0
M  CHG  1  24  -1
M  END
$$$$

  -OEChem-05262216243D

 47 46  0     1  0  0  0  0  0999 V2000
    0.2243   -4.3985    1.4877 C   0  0  0  0  0  0  0  0  0  0  0  0
    1.2494   -3.7475    1.6273 O   0  0  0  0  0  0  0  0  0  0  0  0
   -0.5331   -4.8840    2.7077 C   0  0  0  0  0  0  0  0  0  0  0  0
   -1.5538   -5.1617    2.4349 H   0  0  0  0  0  0  0  0  0  0  0  0
   -0.0323   -5.7594    3.1280 H   0  0  0  0  0  0  0  0  0  0  0  0
   -0.5681   -4.0949    3.4633 H   0  0  0  0  0  0  0  0  0  0  0  0
   -0.2272   -4.6908    0.2191 N   0  0  0  0  0  0  0  0  0  0  0  0
    0.4742   -4.2681   -1.0039 C   0  0  2  0  0  0  0  0  0  0  0  0
    0.1088   -2.8178   -1.3874 C   0  0  0  0  0  0  0  0  0  0  0  0
   -0.4977   -2.5863   -2.4275 O   0  0  0  0  0  0  0  0  0  0  0  0
    0.1343   -5.2899   -2.0962 C   0  0  0  0  0  0  0  0  0  0  0  0
   -1.2209   -4.9298    0.1460 H   0  0  0  0  0  0  0  0  0  0  0  0
    1.5578   -4.2973   -0.8474 H   0  0  0  0  0  0  0  0  0  0  0  0
   -0.9432   -5.3024   -2.2901 H   0  0  0  0  0  0  0  0  0  0  0  0
    0.6517   -5.0365   -3.0269 H   0  0  0  0  0  0  0  0  0  0  0  0
    0.4463   -6.2925   -1.7891 H   0  0  0  0  0  0  0  0  0  0  0  0
    0.3735   -1.8039   -0.4810 N   0  0  0  0  0  0  0  0  0  0  0  0
   -0.3900   -0.5458   -0.2866 C   0  0  2  0  0  0  0  0  0  0  0  0
   -1.9336   -0.6925   -0.2363 C   0  0  0  0  0  0  0  0  0  0  0  0
   -2.5483   -0.3013    0.7529 O   0  0  0  0  0  0  0  0  0  0  0  0
   -0.0044    0.4792   -1.3690 C   0  0  0  0  0  0  0  0  0  0  0  0
    1.4539    0.9489   -1.2113 C   0  0  0  0  0  0  0  0  0  0  0  0
    1.8472    1.9499   -2.2999 C   0  0  0  0  0  0  0  0  0  0  0  0
    1.1233    2.9675   -2.4441 O   0  5  0  0  0  0  0  0  0  0  0  0
    2.8881    1.7141   -2.9618 O   0  0  0  0  0  0  0  0  0  0  0  0
    0.8917   -2.1335    0.3369 H   0  0  0  0  0  0  0  0  0  0  0  0
   -0.0952   -0.1282    0.6814 H   0  0  0  0  0  0  0  0  0  0  0  0
   -0.6625    1.3521   -1.2920 H   0  0  0  0  0  0  0  0  0  0  0  0
   -0.1450    0.0504   -2.3665 H   0  0  0  0  0  0  0  0  0  0  0  0
    1.5831    1.4244   -0.2352 H   0  0  0  0  0  0  0  0  0  0  0  0
    2.1280    0.0885   -1.2591 H   0  0  0  0  0  0  0  0  0  0  0  0
   -2.6238   -1.4741   -1.1409 N   0  0  0  0  0  0  0  0  0  0  0  0
   -3.8455   -2.2093   -0.8069 C   0  0  2  0  0  0  0  0  0  0  0  0
   -3.6638   -3.1336    0.4246 C   0  0  0  0  0  0  0  0  0  0  0  0
   -3.1807   -4.2626    0.3341 O   0  0  0  0  0  0  0  0  0  0  0  0
   -4.2488   -3.0043   -2.0527 C   0  0  0  0  0  0  0  0  0  0  0  0
   -2.0338   -1.8607   -1.8837 H   0  0  0  0  0  0  0  0  0  0  0  0
   -4.6431   -1.4942   -0.5813 H   0  0  0  0  0  0  0  0  0  0  0  0
   -3.4528   -3.6987   -2.3419 H   0  0  0  0  0  0  0  0  0  0  0  0
   -5.1596   -3.5786   -1.8593 H   0  0  0  0  0  0  0  0  0  0  0  0
   -4.4369   -2.3256   -2.8903 H   0  0  0  0  0  0  0  0  0  0  0  0
   -4.0401   -2.6455    1.6614 N   0  0  0  0  0  0  0  0  0  0  0  0
   -3.8239   -3.3475    2.9175 C   0  0  0  0  0  0  0  0  0  0  0  0
   -4.0799   -1.6245    1.6967 H   0  0  0  0  0  0  0  0  0  0  0  0
   -4.0023   -4.4220    2.8055 H   0  0  0  0  0  0  0  0  0  0  0  0
   -2.7995   -3.1894    3.2657 H   0  0  0  0  0  0  0  0  0  0  0  0
   -4.5115   -2.9681    3.6792 H   0  0  0  0  0  0  0  0  0  0  0  0
  1  2  2  0  0  0  0
  1  3  1  0  0  0  0
  1  7  1  0  0  0  0
  3  4  1  0  0  0  0
  3  5  1  0  0  0  0
  3  6  1  0  0  0  0
  7  8  1  0  0  0  0
  7 12  1  0  0  0  0
  8  9  1  0  0  0  0
  8 11  1  0  0  0  0
  8 13  1  0  0  0  0
  9 10  2  0  0  0  0
  9 17  1  0  0  0  0
 11 14  1  0  0  0  0
 11 15  1  0  0  0  0
 11 16  1  0  0  0  0
 17 18  1  0  0  0  0
 17 26  1  0  0  0  0
 18 19  1  0  0  0  0
 18 21  1  0  0  0  0
 18 27  1  0  0  0  0
 19 20  2  0  0  0  0
 19 32  1  0  0  0  0
 21 22  1  0  0  0  0
 21 28  1  0  0  0  0
 21 29  1  0  0  0  0
 22 23  1  0  0  0  0
 22 30  1  0  0  0  0
 22 31  1  0  0  0  0
 23 24  1  0  0  0  0
 23 25  2  0  0  0  0
 32 33  1  0  0  0  0
 32 37  1  0  0  0  0
 33 34  1  0  0  0  0
 33 36  1  0  0  0  0
 33 38  1  0  0  0  0
 34 35  2  0  0  0  0
 34 42  1  0  0  0  0
 36 39  1  0  0  0  0
 36 40  1  0  0  0  0
 36 41  1  0  0  0  0
 42 43  1  0  0  0  0
 42 44  1  0  0  0  0
 43 45  1  0  0  0  0
 43 46  1  0  0  0  0
 43 47  1  0  0  0  0
M  CHG  1  24  -1
M  END
$$$$

  -OEChem-05262216243D

 47 46  0     1  0  0  0  0  0999 V2000
    0.4369   -4.3453    1.6320 C   0  0  0  0  0  0  0  0  0  0  0  0
    1.4448   -3.6560    1.6752 O   0  0  0  0  0  0  0  0  0  0  0  0
   -0.2008   -4.8288    2.9201 C   0  0  0  0  0  0  0  0  0  0  0  0
   -1.2525   -5.0746    2.7572 H   0  0  0  0  0  0  0  0  0  0  0  0
    0.3178   -5.7229    3.2742 H   0  0  0  0  0  0  0  0  0  0  0  0
   -0.1324   -4.0512    3.6851 H   0  0  0  0  0  0  0  0  0  0  0  0
   -0.0998   -4.6831    0.4085 N   0  0  0  0  0  0  0  0  0  0  0  0
    0.5070   -4.3006   -0.8787 C   0  0  2  0  0  0  0  0  0  0  0  0
    0.1032   -2.8701   -1.3015 C   0  0  0  0  0  0  0  0  0  0  0  0
   -0.5203   -2.6827   -2.3401 O   0  0  0  0  0  0  0  0  0  0  0  0
    0.1005   -5.3710   -1.8992 C   0  0  0  0  0  0  0  0  0  0  0  0
   -1.0832   -4.9677    0.4173 H   0  0  0  0  0  0  0  0  0  0  0  0
    1.5994   -4.3150   -0.7974 H   0  0  0  0  0  0  0  0  0  0  0  0
   -0.9878   -5.3961   -2.0173 H   0  0  0  0  0  0  0  0  0  0  0  0
    0.5516   -5.1576   -2.8735 H   0  0  0  0  0  0  0  0  0  0  0  0
    0.4396   -6.3577   -1.5704 H   0  0  0  0  0  0  0  0  0  0  0  0
    0.3148   -1.8354   -0.4066 N   0  0  0  0  0  0  0  0  0  0  0  0
   -0.4545   -0.5749   -0.2521 C   0  0  2  0  0  0  0  0  0  0  0  0
   -2.0033   -0.6969   -0.2549 C   0  0  0  0  0  0  0  0  0  0  0  0
   -2.6448   -0.1481    0.6378 O   0  0  0  0  0  0  0  0  0  0  0  0
   -0.0217    0.4278   -1.3370 C   0  0  0  0  0  0  0  0  0  0  0  0
    1.4328    0.8920   -1.1331 C   0  0  0  0  0  0  0  0  0  0  0  0
    1.8700    1.8702   -2.2252 C   0  0  0  0  0  0  0  0  0  0  0  0
    1.1828    2.9111   -2.3820 O   0  5  0  0  0  0  0  0  0  0  0  0
    2.9048    1.5914   -2.8801 O   0  0  0  0  0  0  0  0  0  0  0  0
    0.8687   -2.1196    0.4050 H   0  0  0  0  0  0  0  0  0  0  0  0
   -0.1895   -0.1466    0.7200 H   0  0  0  0  0  0  0  0  0  0  0  0
   -0.6757    1.3063   -1.3009 H   0  0  0  0  0  0  0  0  0  0  0  0
   -0.1283   -0.0197   -2.3307 H   0  0  0  0  0  0  0  0  0  0  0  0
    1.5285    1.3853   -0.1617 H   0  0  0  0  0  0  0  0  0  0  0  0
    2.1044    0.0282   -1.1394 H   0  0  0  0  0  0  0  0  0  0  0  0
   -2.6566   -1.6882   -0.9601 N   0  0  0  0  0  0  0  0  0  0  0  0
   -3.8292   -2.4081   -0.4627 C   0  0  2  0  0  0  0  0  0  0  0  0
   -3.5118   -3.1592    0.8531 C   0  0  0  0  0  0  0  0  0  0  0  0
   -3.0486   -4.2997    0.8586 O   0  0  0  0  0  0  0  0  0  0  0  0
   -4.2889   -3.3578   -1.5733 C   0  0  0  0  0  0  0  0  0  0  0  0
   -2.0700   -2.1614   -1.6522 H   0  0  0  0  0  0  0  0  0  0  0  0
   -4.6372   -1.6961   -0.2648 H   0  0  0  0  0  0  0  0  0  0  0  0
   -3.4932   -4.0644   -1.8310 H   0  0  0  0  0  0  0  0  0  0  0  0
   -5.1671   -3.9242   -1.2494 H   0  0  0  0  0  0  0  0  0  0  0  0
   -4.5523   -2.7900   -2.4711 H   0  0  0  0  0  0  0  0  0  0  0  0
   -3.7013   -2.4865    2.0449 N   0  0  0  0  0  0  0  0  0  0  0  0
   -3.3023   -3.0010    3.3460 C   0  0  0  0  0  0  0  0  0  0  0  0
   -3.7627   -1.4705    1.9366 H   0  0  0  0  0  0  0  0  0  0  0  0
   -3.5256   -4.0694    3.4318 H   0  0  0  0  0  0  0  0  0  0  0  0
   -2.2309   -2.8464    3.4996 H   0  0  0  0  0  0  0  0  0  0  0  0
   -3.8461   -2.4763    4.1372 H   0  0  0  0  0  0  0  0  0  0  0  0
  1  2  2  0  0  0  0
  1  3  1  0  0  0  0
  1  7  1  0  0  0  0
  3  4  1  0  0  0  0
  3  5  1  0  0  0  0
  3  6  1  0  0  0  0
  7  8  1  0  0  0  0
  7 12  1  0  0  0  0
  8  9  1  0  0  0  0
  8 11  1  0  0  0  0
  8 13  1  0  0  0  0
  9 10  2  0  0  0  0
  9 17  1  0  0  0  0
 11 14  1  0  0  0  0
 11 15  1  0  0  0  0
 11 16  1  0  0  0  0
 17 18  1  0  0  0  0
 17 26  1  0  0  0  0
 18 19  1  0  0  0  0
 18 21  1  0  0  0  0
 18 27  1  0  0  0  0
 19 20  2  0  0  0  0
 19 32  1  0  0  0  0
 21 22  1  0  0  0  0
 21 28  1  0  0  0  0
 21 29  1  0  0  0  0
 22 23  1  0  0  0  0
 22 30  1  0  0  0  0
 22 31  1  0  0  0  0
 23 24  1  0  0  0  0
 23 25  2  0  0  0  0
 32 33  1  0  0  0  0
 32 37  1  0  0  0  0
 33 34  1  0  0  0  0
 33 36  1  0  0  0  0
 33 38  1  0  0  0  0
 34 35  2  0  0  0  0
 34 42  1  0  0  0  0
 36 39  1  0  0  0  0
 36 40  1  0  0  0  0
 36 41  1  0  0  0  0
 42 43  1  0  0  0  0
 42 44  1  0  0  0  0
 43 45  1  0  0  0  0
 43 46  1  0  0  0  0
 43 47  1  0  0  0  0
M  CHG  1  24  -1
M  END
$$$$

  -OEChem-05262216243D

 47 46  0     1  0  0  0  0  0999 V2000
    0.6809   -5.4009    1.6605 C   0  0  0  0  0  0  0  0  0  0  0  0
    1.5940   -4.9979    2.3663 O   0  0  0  0  0  0  0  0  0  0  0  0
   -0.3598   -6.3437    2.2359 C   0  0  0  0  0  0  0  0  0  0  0  0
   -0.2828   -7.3220    1.7556 H   0  0  0  0  0  0  0  0  0  0  0  0
   -0.2085   -6.4629    3.3122 H   0  0  0  0  0  0  0  0  0  0  0  0
   -1.3616   -5.9412    2.0659 H   0  0  0  0  0  0  0  0  0  0  0  0
    0.6002   -5.0274    0.3353 N   0  0  0  0  0  0  0  0  0  0  0  0
    1.3494   -3.9006   -0.2393 C   0  0  2  0  0  0  0  0  0  0  0  0
    0.3821   -2.7649   -0.6213 C   0  0  0  0  0  0  0  0  0  0  0  0
   -0.6947   -3.0583   -1.1279 O   0  0  0  0  0  0  0  0  0  0  0  0
    2.1086   -4.3967   -1.4714 C   0  0  0  0  0  0  0  0  0  0  0  0
   -0.2876   -5.2390   -0.1187 H   0  0  0  0  0  0  0  0  0  0  0  0
    2.0732   -3.5047    0.4800 H   0  0  0  0  0  0  0  0  0  0  0  0
    1.4124   -4.7928   -2.2176 H   0  0  0  0  0  0  0  0  0  0  0  0
    2.6737   -3.5770   -1.9266 H   0  0  0  0  0  0  0  0  0  0  0  0
    2.8097   -5.1887   -1.1915 H   0  0  0  0  0  0  0  0  0  0  0  0
    0.7237   -1.4476   -0.3680 N   0  0  0  0  0  0  0  0  0  0  0  0
   -0.1071   -0.2250   -0.4936 C   0  0  2  0  0  0  0  0  0  0  0  0
   -1.5570   -0.2451    0.0700 C   0  0  0  0  0  0  0  0  0  0  0  0
   -2.0797    0.8142    0.3980 O   0  0  0  0  0  0  0  0  0  0  0  0
   -0.1279    0.1619   -1.9851 C   0  0  0  0  0  0  0  0  0  0  0  0
    1.2672    0.6087   -2.4643 C   0  0  0  0  0  0  0  0  0  0  0  0
    1.2607    0.9702   -3.9489 C   0  0  0  0  0  0  0  0  0  0  0  0
    0.6408    2.0051   -4.2966 O   0  5  0  0  0  0  0  0  0  0  0  0
    1.8946    0.2172   -4.7291 O   0  0  0  0  0  0  0  0  0  0  0  0
    1.6752   -1.3058   -0.0438 H   0  0  0  0  0  0  0  0  0  0  0  0
    0.3984    0.5743    0.0573 H   0  0  0  0  0  0  0  0  0  0  0  0
   -0.8290    0.9901   -2.1396 H   0  0  0  0  0  0  0  0  0  0  0  0
   -0.4783   -0.6809   -2.5906 H   0  0  0  0  0  0  0  0  0  0  0  0
    1.5907    1.4817   -1.8906 H   0  0  0  0  0  0  0  0  0  0  0  0
    1.9972   -0.1890   -2.3000 H   0  0  0  0  0  0  0  0  0  0  0  0
   -2.2237   -1.4052    0.4087 N   0  0  0  0  0  0  0  0  0  0  0  0
   -3.5141   -1.5000    1.0946 C   0  0  2  0  0  0  0  0  0  0  0  0
   -3.5882   -2.7274    2.0295 C   0  0  0  0  0  0  0  0  0  0  0  0
   -2.9120   -3.7318    1.8260 O   0  0  0  0  0  0  0  0  0  0  0  0
   -4.6122   -1.5662    0.0307 C   0  0  0  0  0  0  0  0  0  0  0  0
   -1.8194   -2.2696    0.0393 H   0  0  0  0  0  0  0  0  0  0  0  0
   -3.6669   -0.6094    1.7123 H   0  0  0  0  0  0  0  0  0  0  0  0
   -4.4754   -2.4474   -0.6043 H   0  0  0  0  0  0  0  0  0  0  0  0
   -5.5989   -1.6218    0.4995 H   0  0  0  0  0  0  0  0  0  0  0  0
   -4.5787   -0.6734   -0.6018 H   0  0  0  0  0  0  0  0  0  0  0  0
   -4.4419   -2.7093    3.1185 N   0  0  0  0  0  0  0  0  0  0  0  0
   -4.5409   -3.8015    4.0779 C   0  0  0  0  0  0  0  0  0  0  0  0
   -4.9571   -1.8512    3.2914 H   0  0  0  0  0  0  0  0  0  0  0  0
   -4.8731   -4.7187    3.5805 H   0  0  0  0  0  0  0  0  0  0  0  0
   -3.5696   -3.9865    4.5487 H   0  0  0  0  0  0  0  0  0  0  0  0
   -5.2631   -3.5517    4.8610 H   0  0  0  0  0  0  0  0  0  0  0  0
  1  2  2  0  0  0  0
  1  3  1  0  0  0  0
  1  7  1  0  0  0  0
  3  4  1  0  0  0  0
  3  5  1  0  0  0  0
  3  6  1  0  0  0  0
  7  8  1  0  0  0  0
  7 12  1  0  0  0  0
  8  9  1  0  0  0  0
  8 11  1  0  0  0  0
  8 13  1  0  0  0  0
  9 10  2  0  0  0  0
  9 17  1  0  0  0  0
 11 14  1  0  0  0  0
 11 15  1  0  0  0  0
 11 16  1  0  0  0  0
 17 18  1  0  0  0  0
 17 26  1  0  0  0  0
 18 19  1  0  0  0  0
 18 21  1  0  0  0  0
 18 27  1  0  0  0  0
 19 20  2  0  0  0  0
 19 32  1  0  0  0  0
 21 22  1  0  0  0  0
 21 28  1  0  0  0  0
 21 29  1  0  0  0  0
 22 23  1  0  0  0  0
 22 30  1  0  0  0  0
 22 31  1  0  0  0  0
 23 24  1  0  0  0  0
 23 25  2  0  0  0  0
 32 33  1  0  0  0  0
 32 37  1  0  0  0  0
 33 34  1  0  0  0  0
 33 36  1  0  0  0  0
 33 38  1  0  0  0  0
 34 35  2  0  0  0  0
 34 42  1  0  0  0  0
 36 39  1  0  0  0  0
 36 40  1  0  0  0  0
 36 41  1  0  0  0  0
 42 43  1  0  0  0  0
 42 44  1  0  0  0  0
 43 45  1  0  0  0  0
 43 46  1  0  0  0  0
 43 47  1  0  0  0  0
M  CHG  1  24  -1
M  END
$$$$

  -OEChem-05262216243D

 47 46  0     1  0  0  0  0  0999 V2000
    0.9236   -5.3475    1.6851 C   0  0  0  0  0  0  0  0  0  0  0  0
    1.9143   -4.9134    2.2544 O   0  0  0  0  0  0  0  0  0  0  0  0
   -0.0649   -6.2161    2.4406 C   0  0  0  0  0  0  0  0  0  0  0  0
   -0.1737   -7.1817    1.9413 H   0  0  0  0  0  0  0  0  0  0  0  0
    0.2832   -6.3841    3.4635 H   0  0  0  0  0  0  0  0  0  0  0  0
   -1.0397   -5.7220    2.4777 H   0  0  0  0  0  0  0  0  0  0  0  0
    0.6872   -5.0496    0.3592 N   0  0  0  0  0  0  0  0  0  0  0  0
    1.3431   -3.9380   -0.3443 C   0  0  2  0  0  0  0  0  0  0  0  0
    0.3444   -2.7816   -0.5385 C   0  0  0  0  0  0  0  0  0  0  0  0
   -0.8109   -3.0520   -0.8447 O   0  0  0  0  0  0  0  0  0  0  0  0
    1.8495   -4.4437   -1.6964 C   0  0  0  0  0  0  0  0  0  0  0  0
   -0.2490   -5.2800    0.0295 H   0  0  0  0  0  0  0  0  0  0  0  0
    2.1989   -3.5628    0.2259 H   0  0  0  0  0  0  0  0  0  0  0  0
    1.0192   -4.8228   -2.3011 H   0  0  0  0  0  0  0  0  0  0  0  0
    2.3363   -3.6329   -2.2484 H   0  0  0  0  0  0  0  0  0  0  0  0
    2.5748   -5.2499   -1.5522 H   0  0  0  0  0  0  0  0  0  0  0  0
    0.7427   -1.4747   -0.3174 N   0  0  0  0  0  0  0  0  0  0  0  0
   -0.0585   -0.2314   -0.4210 C   0  0  2  0  0  0  0  0  0  0  0  0
   -1.4808   -0.2047    0.2090 C   0  0  0  0  0  0  0  0  0  0  0  0
   -2.0717    0.8641    0.3181 O   0  0  0  0  0  0  0  0  0  0  0  0
   -0.1182    0.1313   -1.9181 C   0  0  0  0  0  0  0  0  0  0  0  0
    1.2733    0.5292   -2.4477 C   0  0  0  0  0  0  0  0  0  0  0  0
    1.2218    0.8645   -3.9363 C   0  0  0  0  0  0  0  0  0  0  0  0
    1.0321    2.0616   -4.2622 O   0  5  0  0  0  0  0  0  0  0  0  0
    1.3821   -0.0838   -4.7441 O   0  0  0  0  0  0  0  0  0  0  0  0
    1.7404   -1.3489   -0.1773 H   0  0  0  0  0  0  0  0  0  0  0  0
    0.4888    0.5595    0.1005 H   0  0  0  0  0  0  0  0  0  0  0  0
   -0.7990    0.9767   -2.0680 H   0  0  0  0  0  0  0  0  0  0  0  0
   -0.5108   -0.7126   -2.4962 H   0  0  0  0  0  0  0  0  0  0  0  0
    1.6442    1.3986   -1.8966 H   0  0  0  0  0  0  0  0  0  0  0  0
    1.9874   -0.2858   -2.3014 H   0  0  0  0  0  0  0  0  0  0  0  0
   -2.0251   -1.2946    0.8594 N   0  0  0  0  0  0  0  0  0  0  0  0
   -3.3333   -1.3288    1.5173 C   0  0  2  0  0  0  0  0  0  0  0  0
   -3.4082   -2.4260    2.6006 C   0  0  0  0  0  0  0  0  0  0  0  0
   -2.7638   -3.4668    2.5045 O   0  0  0  0  0  0  0  0  0  0  0  0
   -4.4068   -1.5622    0.4505 C   0  0  0  0  0  0  0  0  0  0  0  0
   -1.6217   -2.1939    0.5862 H   0  0  0  0  0  0  0  0  0  0  0  0
   -3.5166   -0.3674    2.0074 H   0  0  0  0  0  0  0  0  0  0  0  0
   -4.2312   -2.5119   -0.0656 H   0  0  0  0  0  0  0  0  0  0  0  0
   -5.4007   -1.5890    0.9064 H   0  0  0  0  0  0  0  0  0  0  0  0
   -4.3881   -0.7562   -0.2901 H   0  0  0  0  0  0  0  0  0  0  0  0
   -4.2284   -2.2466    3.7006 N   0  0  0  0  0  0  0  0  0  0  0  0
   -4.3167   -3.2005    4.7983 C   0  0  0  0  0  0  0  0  0  0  0  0
   -4.7090   -1.3553    3.7810 H   0  0  0  0  0  0  0  0  0  0  0  0
   -4.6633   -4.1731    4.4339 H   0  0  0  0  0  0  0  0  0  0  0  0
   -3.3382   -3.3293    5.2725 H   0  0  0  0  0  0  0  0  0  0  0  0
   -5.0233   -2.8425    5.5532 H   0  0  0  0  0  0  0  0  0  0  0  0
  1  2  2  0  0  0  0
  1  3  1  0  0  0  0
  1  7  1  0  0  0  0
  3  4  1  0  0  0  0
  3  5  1  0  0  0  0
  3  6  1  0  0  0  0
  7  8  1  0  0  0  0
  7 12  1  0  0  0  0
  8  9  1  0  0  0  0
  8 11  1  0  0  0  0
  8 13  1  0  0  0  0
  9 10  2  0  0  0  0
  9 17  1  0  0  0  0
 11 14  1  0  0  0  0
 11 15  1  0  0  0  0
 11 16  1  0  0  0  0
 17 18  1  0  0  0  0
 17 26  1  0  0  0  0
 18 19  1  0  0  0  0
 18 21  1  0  0  0  0
 18 27  1  0  0  0  0
 19 20  2  0  0  0  0
 19 32  1  0  0  0  0
 21 22  1  0  0  0  0
 21 28  1  0  0  0  0
 21 29  1  0  0  0  0
 22 23  1  0  0  0  0
 22 30  1  0  0  0  0
 22 31  1  0  0  0  0
 23 24  1  0  0  0  0
 23 25  2  0  0  0  0
 32 33  1  0  0  0  0
 32 37  1  0  0  0  0
 33 34  1  0  0  0  0
 33 36  1  0  0  0  0
 33 38  1  0  0  0  0
 34 35  2  0  0  0  0
 34 42  1  0  0  0  0
 36 39  1  0  0  0  0
 36 40  1  0  0  0  0
 36 41  1  0  0  0  0
 42 43  1  0  0  0  0
 42 44  1  0  0  0  0
 43 45  1  0  0  0  0
 43 46  1  0  0  0  0
 43 47  1  0  0  0  0
M  CHG  1  24  -1
M  END
$$$$

  -OEChem-05262216243D

 47 46  0     1  0  0  0  0  0999 V2000
    1.0496   -5.3010    1.6775 C   0  0  0  0  0  0  0  0  0  0  0  0
    2.1100   -4.8680    2.1035 O   0  0  0  0  0  0  0  0  0  0  0  0
    0.1373   -6.1017    2.5880 C   0  0  0  0  0  0  0  0  0  0  0  0
   -0.1398   -7.0431    2.1076 H   0  0  0  0  0  0  0  0  0  0  0  0
    0.6435   -6.3225    3.5318 H   0  0  0  0  0  0  0  0  0  0  0  0
   -0.7691   -5.5275    2.8002 H   0  0  0  0  0  0  0  0  0  0  0  0
    0.6543   -5.0423    0.3815 N   0  0  0  0  0  0  0  0  0  0  0  0
    1.2271   -3.9533   -0.4220 C   0  0  2  0  0  0  0  0  0  0  0  0
    0.2670   -2.7492   -0.4289 C   0  0  0  0  0  0  0  0  0  0  0  0
   -0.9353   -2.9604   -0.5307 O   0  0  0  0  0  0  0  0  0  0  0  0
    1.4556   -4.4638   -1.8462 C   0  0  0  0  0  0  0  0  0  0  0  0
   -0.3203   -5.2605    0.1814 H   0  0  0  0  0  0  0  0  0  0  0  0
    2.1899   -3.6284   -0.0146 H   0  0  0  0  0  0  0  0  0  0  0  0
    0.5118   -4.7919   -2.2939 H   0  0  0  0  0  0  0  0  0  0  0  0
    1.8764   -3.6699   -2.4723 H   0  0  0  0  0  0  0  0  0  0  0  0
    2.1519   -5.3079   -1.8393 H   0  0  0  0  0  0  0  0  0  0  0  0
    0.7574   -1.4666   -0.2546 N   0  0  0  0  0  0  0  0  0  0  0  0
    0.0181   -0.1872   -0.3690 C   0  0  2  0  0  0  0  0  0  0  0  0
   -1.3779   -0.0882    0.3093 C   0  0  0  0  0  0  0  0  0  0  0  0
   -2.0464    0.9344    0.2010 O   0  0  0  0  0  0  0  0  0  0  0  0
   -0.0666    0.1258   -1.8772 C   0  0  0  0  0  0  0  0  0  0  0  0
    1.3288    0.4311   -2.4588 C   0  0  0  0  0  0  0  0  0  0  0  0
    1.2590    0.7171   -3.9575 C   0  0  0  0  0  0  0  0  0  0  0  0
    1.4536    1.8961   -4.3416 O   0  5  0  0  0  0  0  0  0  0  0  0
    1.0314   -0.2580   -4.7158 O   0  0  0  0  0  0  0  0  0  0  0  0
    1.7702   -1.3932   -0.2831 H   0  0  0  0  0  0  0  0  0  0  0  0
    0.6164    0.5921    0.1113 H   0  0  0  0  0  0  0  0  0  0  0  0
   -0.7045    1.0011   -2.0417 H   0  0  0  0  0  0  0  0  0  0  0  0
   -0.5226   -0.7148   -2.4120 H   0  0  0  0  0  0  0  0  0  0  0  0
    1.7576    1.2970   -1.9452 H   0  0  0  0  0  0  0  0  0  0  0  0
    2.0048   -0.4143   -2.3054 H   0  0  0  0  0  0  0  0  0  0  0  0
   -1.7908   -1.0206    1.2421 N   0  0  0  0  0  0  0  0  0  0  0  0
   -3.1099   -1.0286    1.8816 C   0  0  2  0  0  0  0  0  0  0  0  0
   -3.1437   -1.9312    3.1333 C   0  0  0  0  0  0  0  0  0  0  0  0
   -2.4326   -2.9282    3.2220 O   0  0  0  0  0  0  0  0  0  0  0  0
   -4.1464   -1.5198    0.8640 C   0  0  0  0  0  0  0  0  0  0  0  0
   -1.3390   -1.9302    1.1342 H   0  0  0  0  0  0  0  0  0  0  0  0
   -3.3638   -0.0110    2.1954 H   0  0  0  0  0  0  0  0  0  0  0  0
   -3.8912   -2.5268    0.5173 H   0  0  0  0  0  0  0  0  0  0  0  0
   -5.1436   -1.5465    1.3126 H   0  0  0  0  0  0  0  0  0  0  0  0
   -4.1777   -0.8526   -0.0030 H   0  0  0  0  0  0  0  0  0  0  0  0
   -4.0173   -1.6371    4.1658 N   0  0  0  0  0  0  0  0  0  0  0  0
   -4.1080   -2.4226    5.3894 C   0  0  0  0  0  0  0  0  0  0  0  0
   -4.5786   -0.7954    4.0750 H   0  0  0  0  0  0  0  0  0  0  0  0
   -4.3973   -3.4535    5.1613 H   0  0  0  0  0  0  0  0  0  0  0  0
   -3.1445   -2.4325    5.9099 H   0  0  0  0  0  0  0  0  0  0  0  0
   -4.8594   -1.9934    6.0589 H   0  0  0  0  0  0  0  0  0  0  0  0
  1  2  2  0  0  0  0
  1  3  1  0  0  0  0
  1  7  1  0  0  0  0
  3  4  1  0  0  0  0
  3  5  1  0  0  0  0
  3  6  1  0  0  0  0
  7  8  1  0  0  0  0
  7 12  1  0  0  0  0
  8  9  1  0  0  0  0
  8 11  1  0  0  0  0
  8 13  1  0  0  0  0
  9 10  2  0  0  0  0
  9 17  1  0  0  0  0
 11 14  1  0  0  0  0
 11 15  1  0  0  0  0
 11 16  1  0  0  0  0
 17 18  1  0  0  0  0
 17 26  1  0  0  0  0
 18 19  1  0  0  0  0
 18 21  1  0  0  0  0
 18 27  1  0  0  0  0
 19 20  2  0  0  0  0
 19 32  1  0  0  0  0
 21 22  1  0  0  0  0
 21 28  1  0  0  0  0
 21 29  1  0  0  0  0
 22 23  1  0  0  0  0
 22 30  1  0  0  0  0
 22 31  1  0  0  0  0
 23 24  1  0  0  0  0
 23 25  2  0  0  0  0
 32 33  1  0  0  0  0
 32 37  1  0  0  0  0
 33 34  1  0  0  0  0
 33 36  1  0  0  0  0
 33 38  1  0  0  0  0
 34 35  2  0  0  0  0
 34 42  1  0  0  0  0
 36 39  1  0  0  0  0
 36 40  1  0  0  0  0
 36 41  1  0  0  0  0
 42 43  1  0  0  0  0
 42 44  1  0  0  0  0
 43 45  1  0  0  0  0
 43 46  1  0  0  0  0
 43 47  1  0  0  0  0
M  CHG  1  24  -1
M  END
$$$$

  -OEChem-05262216243D

 47 46  0     1  0  0  0  0  0999 V2000
    1.0053   -5.9488    1.1753 C   0  0  0  0  0  0  0  0  0  0  0  0
    2.1419   -5.8022    1.5984 O   0  0  0  0  0  0  0  0  0  0  0  0
    0.1139   -7.0269    1.7637 C   0  0  0  0  0  0  0  0  0  0  0  0
   -0.2229   -7.7043    0.9752 H   0  0  0  0  0  0  0  0  0  0  0  0
    0.6621   -7.6037    2.5138 H   0  0  0  0  0  0  0  0  0  0  0  0
   -0.7579   -6.5695    2.2386 H   0  0  0  0  0  0  0  0  0  0  0  0
    0.5127   -5.1380    0.1752 N   0  0  0  0  0  0  0  0  0  0  0  0
    1.1493   -3.8872   -0.2604 C   0  0  2  0  0  0  0  0  0  0  0  0
    0.1994   -2.6858   -0.0751 C   0  0  0  0  0  0  0  0  0  0  0  0
   -1.0053   -2.8846    0.0282 O   0  0  0  0  0  0  0  0  0  0  0  0
    1.5304   -4.0369   -1.7360 C   0  0  0  0  0  0  0  0  0  0  0  0
   -0.4911   -5.1957    0.0110 H   0  0  0  0  0  0  0  0  0  0  0  0
    2.0553   -3.6891    0.3216 H   0  0  0  0  0  0  0  0  0  0  0  0
    0.6397   -4.2169   -2.3470 H   0  0  0  0  0  0  0  0  0  0  0  0
    2.0205   -3.1296   -2.1034 H   0  0  0  0  0  0  0  0  0  0  0  0
    2.2194   -4.8769   -1.8664 H   0  0  0  0  0  0  0  0  0  0  0  0
    0.7210   -1.4036   -0.0439 N   0  0  0  0  0  0  0  0  0  0  0  0
   -0.0119   -0.1454   -0.3144 C   0  0  2  0  0  0  0  0  0  0  0  0
   -1.4098    0.0293    0.3407 C   0  0  0  0  0  0  0  0  0  0  0  0
   -2.2025    0.8696   -0.0718 O   0  0  0  0  0  0  0  0  0  0  0  0
   -0.0682   -0.0248   -1.8525 C   0  0  0  0  0  0  0  0  0  0  0  0
    1.3396    0.2015   -2.4390 C   0  0  0  0  0  0  0  0  0  0  0  0
    1.2918    0.2946   -3.9612 C   0  0  0  0  0  0  0  0  0  0  0  0
    1.2857   -0.7910   -4.5930 O   0  5  0  0  0  0  0  0  0  0  0  0
    1.2840    1.4341   -4.4864 O   0  0  0  0  0  0  0  0  0  0  0  0
    1.7151   -1.3655   -0.2521 H   0  0  0  0  0  0  0  0  0  0  0  0
    0.5837    0.6847    0.0763 H   0  0  0  0  0  0  0  0  0  0  0  0
   -0.6956    0.8263   -2.1395 H   0  0  0  0  0  0  0  0  0  0  0  0
   -0.5200   -0.9233   -2.2880 H   0  0  0  0  0  0  0  0  0  0  0  0
    1.7627    1.1259   -2.0346 H   0  0  0  0  0  0  0  0  0  0  0  0
    2.0096   -0.6177   -2.1667 H   0  0  0  0  0  0  0  0  0  0  0  0
   -1.6924   -0.5723    1.5526 N   0  0  0  0  0  0  0  0  0  0  0  0
   -2.9906   -0.4892    2.2309 C   0  0  2  0  0  0  0  0  0  0  0  0
   -2.9006   -0.8580    3.7262 C   0  0  0  0  0  0  0  0  0  0  0  0
   -2.0173   -1.5965    4.1498 O   0  0  0  0  0  0  0  0  0  0  0  0
   -3.9757   -1.4255    1.5216 C   0  0  0  0  0  0  0  0  0  0  0  0
   -1.1163   -1.3859    1.7647 H   0  0  0  0  0  0  0  0  0  0  0  0
   -3.3628    0.5383    2.1688 H   0  0  0  0  0  0  0  0  0  0  0  0
   -3.6084   -2.4564    1.5498 H   0  0  0  0  0  0  0  0  0  0  0  0
   -4.9567   -1.3891    2.0039 H   0  0  0  0  0  0  0  0  0  0  0  0
   -4.0966   -1.1308    0.4746 H   0  0  0  0  0  0  0  0  0  0  0  0
   -3.8453   -0.3683    4.6108 N   0  0  0  0  0  0  0  0  0  0  0  0
   -3.8332   -0.6564    6.0388 C   0  0  0  0  0  0  0  0  0  0  0  0
   -4.5518    0.2590    4.2380 H   0  0  0  0  0  0  0  0  0  0  0  0
   -3.9131   -1.7346    6.2121 H   0  0  0  0  0  0  0  0  0  0  0  0
   -2.9062   -0.2928    6.4943 H   0  0  0  0  0  0  0  0  0  0  0  0
   -4.6772   -0.1637    6.5305 H   0  0  0  0  0  0  0  0  0  0  0  0
  1  2  2  0  0  0  0
  1  3  1  0  0  0  0
  1  7  1  0  0  0  0
  3  4  1  0  0  0  0
  3  5  1  0  0  0  0
  3  6  1  0  0  0  0
  7  8  1  0  0  0  0
  7 12  1  0  0  0  0
  8  9  1  0  0  0  0
  8 11  1  0  0  0  0
  8 13  1  0  0  0  0
  9 10  2  0  0  0  0
  9 17  1  0  0  0  0
 11 14  1  0  0  0  0
 11 15  1  0  0  0  0
 11 16  1  0  0  0  0
 17 18  1  0  0  0  0
 17 26  1  0  0  0  0
 18 19  1  0  0  0  0
 18 21  1  0  0  0  0
 18 27  1  0  0  0  0
 19 20  2  0  0  0  0
 19 32  1  0  0  0  0
 21 22  1  0  0  0  0
 21 28  1  0  0  0  0
 21 29  1  0  0  0  0
 22 23  1  0  0  0  0
 22 30  1  0  0  0  0
 22 31  1  0  0  0  0
 23 24  1  0  0  0  0
 23 25  2  0  0  0  0
 32 33  1  0  0  0  0
 32 37  1  0  0  0  0
 33 34  1  0  0  0  0
 33 36  1  0  0  0  0
 33 38  1  0  0  0  0
 34 35  2  0  0  0  0
 34 42  1  0  0  0  0
 36 39  1  0  0  0  0
 36 40  1  0  0  0  0
 36 41  1  0  0  0  0
 42 43  1  0  0  0  0
 42 44  1  0  0  0  0
 43 45  1  0  0  0  0
 43 46  1  0  0  0  0
 43 47  1  0  0  0  0
M  CHG  1  24  -1
M  END
$$$$

  -OEChem-05262216243D

 47 46  0     1  0  0  0  0  0999 V2000
    0.8063   -5.9580    1.1751 C   0  0  0  0  0  0  0  0  0  0  0  0
    1.9622   -5.8879    1.5638 O   0  0  0  0  0  0  0  0  0  0  0  0
   -0.1182   -7.0182    1.7446 C   0  0  0  0  0  0  0  0  0  0  0  0
   -0.4788   -7.6669    0.9428 H   0  0  0  0  0  0  0  0  0  0  0  0
    0.4136   -7.6287    2.4795 H   0  0  0  0  0  0  0  0  0  0  0  0
   -0.9731   -6.5434    2.2326 H   0  0  0  0  0  0  0  0  0  0  0  0
    0.3236   -5.0780    0.2303 N   0  0  0  0  0  0  0  0  0  0  0  0
    1.0208   -3.8574   -0.1978 C   0  0  2  0  0  0  0  0  0  0  0  0
    0.1218   -2.6150   -0.0281 C   0  0  0  0  0  0  0  0  0  0  0  0
   -1.0872   -2.7652    0.1056 O   0  0  0  0  0  0  0  0  0  0  0  0
    1.4197   -4.0285   -1.6665 C   0  0  0  0  0  0  0  0  0  0  0  0
   -0.6867   -5.0732    0.0960 H   0  0  0  0  0  0  0  0  0  0  0  0
    1.9236   -3.6980    0.4009 H   0  0  0  0  0  0  0  0  0  0  0  0
    0.5314   -4.1590   -2.2934 H   0  0  0  0  0  0  0  0  0  0  0  0
    1.9666   -3.1506   -2.0246 H   0  0  0  0  0  0  0  0  0  0  0  0
    2.0627   -4.9060   -1.7849 H   0  0  0  0  0  0  0  0  0  0  0  0
    0.6958   -1.3544   -0.0285 N   0  0  0  0  0  0  0  0  0  0  0  0
   -0.0021   -0.0874   -0.3392 C   0  0  2  0  0  0  0  0  0  0  0  0
   -1.3929    0.1072    0.3217 C   0  0  0  0  0  0  0  0  0  0  0  0
   -2.3066    0.7043   -0.2379 O   0  0  0  0  0  0  0  0  0  0  0  0
   -0.0427    0.0066   -1.8791 C   0  0  0  0  0  0  0  0  0  0  0  0
    1.3776    0.1881   -2.4503 C   0  0  0  0  0  0  0  0  0  0  0  0
    1.3560    0.2560   -3.9741 C   0  0  0  0  0  0  0  0  0  0  0  0
    1.4148   -0.8371   -4.5902 O   0  5  0  0  0  0  0  0  0  0  0  0
    1.3041    1.3869   -4.5152 O   0  0  0  0  0  0  0  0  0  0  0  0
    1.6829   -1.3610   -0.2708 H   0  0  0  0  0  0  0  0  0  0  0  0
    0.6060    0.7399    0.0376 H   0  0  0  0  0  0  0  0  0  0  0  0
   -0.6462    0.8679   -2.1868 H   0  0  0  0  0  0  0  0  0  0  0  0
   -0.5120   -0.8884   -2.3027 H   0  0  0  0  0  0  0  0  0  0  0  0
    1.8185    1.1090   -2.0569 H   0  0  0  0  0  0  0  0  0  0  0  0
    2.0236   -0.6417   -2.1529 H   0  0  0  0  0  0  0  0  0  0  0  0
   -1.5501   -0.2027    1.6605 N   0  0  0  0  0  0  0  0  0  0  0  0
   -2.8282   -0.1317    2.3775 C   0  0  2  0  0  0  0  0  0  0  0  0
   -2.6477   -0.1012    3.9090 C   0  0  0  0  0  0  0  0  0  0  0  0
   -1.6318   -0.5406    4.4383 O   0  0  0  0  0  0  0  0  0  0  0  0
   -3.6811   -1.3414    1.9776 C   0  0  0  0  0  0  0  0  0  0  0  0
   -0.8200   -0.7822    2.0685 H   0  0  0  0  0  0  0  0  0  0  0  0
   -3.3492    0.7872    2.0901 H   0  0  0  0  0  0  0  0  0  0  0  0
   -3.1746   -2.2725    2.2513 H   0  0  0  0  0  0  0  0  0  0  0  0
   -4.6524   -1.3098    2.4792 H   0  0  0  0  0  0  0  0  0  0  0  0
   -3.8522   -1.3478    0.8963 H   0  0  0  0  0  0  0  0  0  0  0  0
   -3.6545    0.4108    4.7085 N   0  0  0  0  0  0  0  0  0  0  0  0
   -3.5678    0.4831    6.1608 C   0  0  0  0  0  0  0  0  0  0  0  0
   -4.4752    0.7857    4.2421 H   0  0  0  0  0  0  0  0  0  0  0  0
   -3.4499   -0.5184    6.5876 H   0  0  0  0  0  0  0  0  0  0  0  0
   -2.7140    1.0986    6.4626 H   0  0  0  0  0  0  0  0  0  0  0  0
   -4.4782    0.9295    6.5716 H   0  0  0  0  0  0  0  0  0  0  0  0
  1  2  2  0  0  0  0
  1  3  1  0  0  0  0
  1  7  1  0  0  0  0
  3  4  1  0  0  0  0
  3  5  1  0  0  0  0
  3  6  1  0  0  0  0
  7  8  1  0  0  0  0
  7 12  1  0  0  0  0
  8  9  1  0  0  0  0
  8 11  1  0  0  0  0
  8 13  1  0  0  0  0
  9 10  2  0  0  0  0
  9 17  1  0  0  0  0
 11 14  1  0  0  0  0
 11 15  1  0  0  0  0
 11 16  1  0  0  0  0
 17 18  1  0  0  0  0
 17 26  1  0  0  0  0
 18 19  1  0  0  0  0
 18 21  1  0  0  0  0
 18 27  1  0  0  0  0
 19 20  2  0  0  0  0
 19 32  1  0  0  0  0
 21 22  1  0  0  0  0
 21 28  1  0  0  0  0
 21 29  1  0  0  0  0
 22 23  1  0  0  0  0
 22 30  1  0  0  0  0
 22 31  1  0  0  0  0
 23 24  1  0  0  0  0
 23 25  2  0  0  0  0
 32 33  1  0  0  0  0
 32 37  1  0  0  0  0
 33 34  1  0  0  0  0
 33 36  1  0  0  0  0
 33 38  1  0  0  0  0
 34 35  2  0  0  0  0
 34 42  1  0  0  0  0
 36 39  1  0  0  0  0
 36 40  1  0  0  0  0
 36 41  1  0  0  0  0
 42 43  1  0  0  0  0
 42 44  1  0  0  0  0
 43 45  1  0  0  0  0
 43 46  1  0  0  0  0
 43 47  1  0  0  0  0
M  CHG  1  24  -1
M  END
$$$$

  -OEChem-05262216243D

 47 46  0     1  0  0  0  0  0999 V2000
    0.7548   -5.8846    1.2493 C   0  0  0  0  0  0  0  0  0  0  0  0
    1.8880   -5.7937    1.6966 O   0  0  0  0  0  0  0  0  0  0  0  0
   -0.1922   -6.9334    1.8025 C   0  0  0  0  0  0  0  0  0  0  0  0
   -0.5190   -7.6000    1.0006 H   0  0  0  0  0  0  0  0  0  0  0  0
    0.3084   -7.5265    2.5729 H   0  0  0  0  0  0  0  0  0  0  0  0
   -1.0671   -6.4489    2.2434 H   0  0  0  0  0  0  0  0  0  0  0  0
    0.3140   -5.0354    0.2576 N   0  0  0  0  0  0  0  0  0  0  0  0
    1.0126   -3.8076   -0.1471 C   0  0  2  0  0  0  0  0  0  0  0  0
    0.1126   -2.5674    0.0374 C   0  0  0  0  0  0  0  0  0  0  0  0
   -1.0898   -2.7225    0.2188 O   0  0  0  0  0  0  0  0  0  0  0  0
    1.4179   -3.9575   -1.6161 C   0  0  0  0  0  0  0  0  0  0  0  0
   -0.6910   -5.0368    0.0889 H   0  0  0  0  0  0  0  0  0  0  0  0
    1.9133   -3.6564    0.4563 H   0  0  0  0  0  0  0  0  0  0  0  0
    0.5325   -4.0690   -2.2506 H   0  0  0  0  0  0  0  0  0  0  0  0
    1.9744   -3.0787   -1.9564 H   0  0  0  0  0  0  0  0  0  0  0  0
    2.0540   -4.8382   -1.7458 H   0  0  0  0  0  0  0  0  0  0  0  0
    0.6805   -1.3041    0.0042 N   0  0  0  0  0  0  0  0  0  0  0  0
   -0.0295   -0.0591   -0.3586 C   0  0  2  0  0  0  0  0  0  0  0  0
   -1.4289    0.1230    0.2841 C   0  0  0  0  0  0  0  0  0  0  0  0
   -2.4228    0.4329   -0.3648 O   0  0  0  0  0  0  0  0  0  0  0  0
   -0.0538   -0.0111   -1.9003 C   0  0  0  0  0  0  0  0  0  0  0  0
    1.3702    0.1734   -2.4613 C   0  0  0  0  0  0  0  0  0  0  0  0
    1.3643    0.1962   -3.9868 C   0  0  0  0  0  0  0  0  0  0  0  0
    1.3636    1.3119   -4.5609 O   0  5  0  0  0  0  0  0  0  0  0  0
    1.3809   -0.9157   -4.5706 O   0  0  0  0  0  0  0  0  0  0  0  0
    1.6634   -1.3150   -0.2541 H   0  0  0  0  0  0  0  0  0  0  0  0
    0.5601    0.7906   -0.0034 H   0  0  0  0  0  0  0  0  0  0  0  0
   -0.6674    0.8318   -2.2374 H   0  0  0  0  0  0  0  0  0  0  0  0
   -0.5058   -0.9250   -2.3024 H   0  0  0  0  0  0  0  0  0  0  0  0
    1.7920    1.1122   -2.0901 H   0  0  0  0  0  0  0  0  0  0  0  0
    2.0265   -0.6358   -2.1322 H   0  0  0  0  0  0  0  0  0  0  0  0
   -1.5202    0.1542    1.6635 N   0  0  0  0  0  0  0  0  0  0  0  0
   -2.7841    0.2374    2.4033 C   0  0  2  0  0  0  0  0  0  0  0  0
   -2.5826    0.6685    3.8705 C   0  0  0  0  0  0  0  0  0  0  0  0
   -1.4907    0.5589    4.4194 O   0  0  0  0  0  0  0  0  0  0  0  0
   -3.4696   -1.1337    2.3523 C   0  0  0  0  0  0  0  0  0  0  0  0
   -0.6977   -0.1510    2.1786 H   0  0  0  0  0  0  0  0  0  0  0  0
   -3.4298    0.9823    1.9272 H   0  0  0  0  0  0  0  0  0  0  0  0
   -2.8309   -1.8964    2.8092 H   0  0  0  0  0  0  0  0  0  0  0  0
   -4.4230   -1.1079    2.8876 H   0  0  0  0  0  0  0  0  0  0  0  0
   -3.6659   -1.4251    1.3154 H   0  0  0  0  0  0  0  0  0  0  0  0
   -3.6526    1.1672    4.5924 N   0  0  0  0  0  0  0  0  0  0  0  0
   -3.5576    1.5912    5.9827 C   0  0  0  0  0  0  0  0  0  0  0  0
   -4.5381    1.2654    4.1047 H   0  0  0  0  0  0  0  0  0  0  0  0
   -3.1735    0.7771    6.6065 H   0  0  0  0  0  0  0  0  0  0  0  0
   -2.8886    2.4532    6.0741 H   0  0  0  0  0  0  0  0  0  0  0  0
   -4.5451    1.8759    6.3584 H   0  0  0  0  0  0  0  0  0  0  0  0
  1  2  2  0  0  0  0
  1  3  1  0  0  0  0
  1  7  1  0  0  0  0
  3  4  1  0  0  0  0
  3  5  1  0  0  0  0
  3  6  1  0  0  0  0
  7  8  1  0  0  0  0
  7 12  1  0  0  0  0
  8  9  1  0  0  0  0
  8 11  1  0  0  0  0
  8 13  1  0  0  0  0
  9 10  2  0  0  0  0
  9 17  1  0  0  0  0
 11 14  1  0  0  0  0
 11 15  1  0  0  0  0
 11 16  1  0  0  0  0
 17 18  1  0  0  0  0
 17 26  1  0  0  0  0
 18 19  1  0  0  0  0
 18 21  1  0  0  0  0
 18 27  1  0  0  0  0
 19 20  2  0  0  0  0
 19 32  1  0  0  0  0
 21 22  1  0  0  0  0
 21 28  1  0  0  0  0
 21 29  1  0  0  0  0
 22 23  1  0  0  0  0
 22 30  1  0  0  0  0
 22 31  1  0  0  0  0
 23 24  1  0  0  0  0
 23 25  2  0  0  0  0
 32 33  1  0  0  0  0
 32 37  1  0  0  0  0
 33 34  1  0  0  0  0
 33 36  1  0  0  0  0
 33 38  1  0  0  0  0
 34 35  2  0  0  0  0
 34 42  1  0  0  0  0
 36 39  1  0  0  0  0
 36 40  1  0  0  0  0
 36 41  1  0  0  0  0
 42 43  1  0  0  0  0
 42 44  1  0  0  0  0
 43 45  1  0  0  0  0
 43 46  1  0  0  0  0
 43 47  1  0  0  0  0
M  CHG  1  24  -1
M  END
$$$$

  -OEChem-05262216243D

 47 46  0     1  0  0  0  0  0999 V2000
    0.7171   -5.8549    1.2933 C   0  0  0  0  0  0  0  0  0  0  0  0
    1.8368   -5.7438    1.7695 O   0  0  0  0  0  0  0  0  0  0  0  0
   -0.2428   -6.8867    1.8570 C   0  0  0  0  0  0  0  0  0  0  0  0
   -0.4982   -7.6187    1.0869 H   0  0  0  0  0  0  0  0  0  0  0  0
    0.2155   -7.4081    2.7019 H   0  0  0  0  0  0  0  0  0  0  0  0
   -1.1571   -6.3955    2.1997 H   0  0  0  0  0  0  0  0  0  0  0  0
    0.3012   -5.0433    0.2598 N   0  0  0  0  0  0  0  0  0  0  0  0
    0.9956   -3.8136   -0.1491 C   0  0  2  0  0  0  0  0  0  0  0  0
    0.1029   -2.5716    0.0607 C   0  0  0  0  0  0  0  0  0  0  0  0
   -1.0944   -2.7254    0.2720 O   0  0  0  0  0  0  0  0  0  0  0  0
    1.3713   -3.9535   -1.6271 C   0  0  0  0  0  0  0  0  0  0  0  0
   -0.7000   -5.0547    0.0707 H   0  0  0  0  0  0  0  0  0  0  0  0
    1.9092   -3.6699    0.4366 H   0  0  0  0  0  0  0  0  0  0  0  0
    0.4729   -4.0590   -2.2442 H   0  0  0  0  0  0  0  0  0  0  0  0
    1.9226   -3.0733   -1.9723 H   0  0  0  0  0  0  0  0  0  0  0  0
    2.0032   -4.8344   -1.7758 H   0  0  0  0  0  0  0  0  0  0  0  0
    0.6738   -1.3095    0.0370 N   0  0  0  0  0  0  0  0  0  0  0  0
   -0.0295   -0.0637   -0.3353 C   0  0  2  0  0  0  0  0  0  0  0  0
   -1.4385    0.1214    0.2847 C   0  0  0  0  0  0  0  0  0  0  0  0
   -2.4577    0.1897   -0.3951 O   0  0  0  0  0  0  0  0  0  0  0  0
   -0.0354   -0.0083   -1.8761 C   0  0  0  0  0  0  0  0  0  0  0  0
    1.3947    0.1775   -2.4196 C   0  0  0  0  0  0  0  0  0  0  0  0
    1.4052    0.2073   -3.9447 C   0  0  0  0  0  0  0  0  0  0  0  0
    1.2563    1.3157   -4.5140 O   0  5  0  0  0  0  0  0  0  0  0  0
    1.5804   -0.8889   -4.5324 O   0  0  0  0  0  0  0  0  0  0  0  0
    1.6558   -1.3247   -0.2239 H   0  0  0  0  0  0  0  0  0  0  0  0
    0.5579    0.7851    0.0273 H   0  0  0  0  0  0  0  0  0  0  0  0
   -0.6460    0.8365   -2.2143 H   0  0  0  0  0  0  0  0  0  0  0  0
   -0.4829   -0.9200   -2.2876 H   0  0  0  0  0  0  0  0  0  0  0  0
    1.8129    1.1157   -2.0423 H   0  0  0  0  0  0  0  0  0  0  0  0
    2.0464   -0.6330   -2.0838 H   0  0  0  0  0  0  0  0  0  0  0  0
   -1.5329    0.4655    1.6208 N   0  0  0  0  0  0  0  0  0  0  0  0
   -2.8004    0.6166    2.3437 C   0  0  2  0  0  0  0  0  0  0  0  0
   -2.6310    1.3850    3.6697 C   0  0  0  0  0  0  0  0  0  0  0  0
   -1.5410    1.4431    4.2303 O   0  0  0  0  0  0  0  0  0  0  0  0
   -3.3736   -0.7793    2.6186 C   0  0  0  0  0  0  0  0  0  0  0  0
   -0.6838    0.3933    2.1767 H   0  0  0  0  0  0  0  0  0  0  0  0
   -3.5035    1.1809    1.7221 H   0  0  0  0  0  0  0  0  0  0  0  0
   -2.6730   -1.3684    3.2189 H   0  0  0  0  0  0  0  0  0  0  0  0
   -4.3222   -0.7065    3.1580 H   0  0  0  0  0  0  0  0  0  0  0  0
   -3.5534   -1.3108    1.6784 H   0  0  0  0  0  0  0  0  0  0  0  0
   -3.7247    1.9974    4.2553 N   0  0  0  0  0  0  0  0  0  0  0  0
   -3.6596    2.7221    5.5172 C   0  0  0  0  0  0  0  0  0  0  0  0
   -4.6093    1.9463    3.7583 H   0  0  0  0  0  0  0  0  0  0  0  0
   -3.3405    2.0549    6.3249 H   0  0  0  0  0  0  0  0  0  0  0  0
   -2.9511    3.5540    5.4449 H   0  0  0  0  0  0  0  0  0  0  0  0
   -4.6441    3.1267    5.7710 H   0  0  0  0  0  0  0  0  0  0  0  0
  1  2  2  0  0  0  0
  1  3  1  0  0  0  0
  1  7  1  0  0  0  0
  3  4  1  0  0  0  0
  3  5  1  0  0  0  0
  3  6  1  0  0  0  0
  7  8  1  0  0  0  0
  7 12  1  0  0  0  0
  8  9  1  0  0  0  0
  8 11  1  0  0  0  0
  8 13  1  0  0  0  0
  9 10  2  0  0  0  0
  9 17  1  0  0  0  0
 11 14  1  0  0  0  0
 11 15  1  0  0  0  0
 11 16  1  0  0  0  0
 17 18  1  0  0  0  0
 17 26  1  0  0  0  0
 18 19  1  0  0  0  0
 18 21  1  0  0  0  0
 18 27  1  0  0  0  0
 19 20  2  0  0  0  0
 19 32  1  0  0  0  0
 21 22  1  0  0  0  0
 21 28  1  0  0  0  0
 21 29  1  0  0  0  0
 22 23  1  0  0  0  0
 22 30  1  0  0  0  0
 22 31  1  0  0  0  0
 23 24  1  0  0  0  0
 23 25  2  0  0  0  0
 32 33  1  0  0  0  0
 32 37  1  0  0  0  0
 33 34  1  0  0  0  0
 33 36  1  0  0  0  0
 33 38  1  0  0  0  0
 34 35  2  0  0  0  0
 34 42  1  0  0  0  0
 36 39  1  0  0  0  0
 36 40  1  0  0  0  0
 36 41  1  0  0  0  0
 42 43  1  0  0  0  0
 42 44  1  0  0  0  0
 43 45  1  0  0  0  0
 43 46  1  0  0  0  0
 43 47  1  0  0  0  0
M  CHG  1  24  -1
M  END
$$$$

  -OEChem-05262216243D

 47 46  0     1  0  0  0  0  0999 V2000
    0.8036   -5.9081    1.2477 C   0  0  0  0  0  0  0  0  0  0  0  0
    1.9344   -5.7805    1.6929 O   0  0  0  0  0  0  0  0  0  0  0  0
   -0.1138   -6.9764    1.8134 C   0  0  0  0  0  0  0  0  0  0  0  0
   -0.4324   -7.6533    1.0170 H   0  0  0  0  0  0  0  0  0  0  0  0
    0.4066   -7.5554    2.5812 H   0  0  0  0  0  0  0  0  0  0  0  0
   -0.9958   -6.5097    2.2593 H   0  0  0  0  0  0  0  0  0  0  0  0
    0.3365   -5.0864    0.2448 N   0  0  0  0  0  0  0  0  0  0  0  0
    0.9923   -3.8374   -0.1674 C   0  0  2  0  0  0  0  0  0  0  0  0
    0.0987   -2.6132    0.1267 C   0  0  0  0  0  0  0  0  0  0  0  0
   -1.0834   -2.7865    0.3978 O   0  0  0  0  0  0  0  0  0  0  0  0
    1.2820   -3.9360   -1.6678 C   0  0  0  0  0  0  0  0  0  0  0  0
   -0.6702   -5.1146    0.0905 H   0  0  0  0  0  0  0  0  0  0  0  0
    1.9378   -3.6984    0.3664 H   0  0  0  0  0  0  0  0  0  0  0  0
    0.3502   -4.0382   -2.2337 H   0  0  0  0  0  0  0  0  0  0  0  0
    1.8019   -3.0410   -2.0234 H   0  0  0  0  0  0  0  0  0  0  0  0
    1.9141   -4.8048   -1.8751 H   0  0  0  0  0  0  0  0  0  0  0  0
    0.6576   -1.3463    0.1267 N   0  0  0  0  0  0  0  0  0  0  0  0
   -0.0537   -0.1059   -0.2464 C   0  0  2  0  0  0  0  0  0  0  0  0
   -1.4788    0.0769    0.3379 C   0  0  0  0  0  0  0  0  0  0  0  0
   -2.4909   -0.0699   -0.3399 O   0  0  0  0  0  0  0  0  0  0  0  0
   -0.0311   -0.0359   -1.7860 C   0  0  0  0  0  0  0  0  0  0  0  0
    1.4065    0.1728   -2.3003 C   0  0  0  0  0  0  0  0  0  0  0  0
    1.4441    0.2173   -3.8243 C   0  0  0  0  0  0  0  0  0  0  0  0
    1.2801    1.3276   -4.3853 O   0  5  0  0  0  0  0  0  0  0  0  0
    1.6507   -0.8694   -4.4190 O   0  0  0  0  0  0  0  0  0  0  0  0
    1.6360   -1.3528   -0.1478 H   0  0  0  0  0  0  0  0  0  0  0  0
    0.5238    0.7430    0.1310 H   0  0  0  0  0  0  0  0  0  0  0  0
   -0.6478    0.8035   -2.1268 H   0  0  0  0  0  0  0  0  0  0  0  0
   -0.4584   -0.9496   -2.2146 H   0  0  0  0  0  0  0  0  0  0  0  0
    1.8048    1.1127   -1.9070 H   0  0  0  0  0  0  0  0  0  0  0  0
    2.0629   -0.6317   -1.9598 H   0  0  0  0  0  0  0  0  0  0  0  0
   -1.6197    0.7115    1.5592 N   0  0  0  0  0  0  0  0  0  0  0  0
   -2.9063    1.0122    2.1965 C   0  0  2  0  0  0  0  0  0  0  0  0
   -2.7771    2.0897    3.2922 C   0  0  0  0  0  0  0  0  0  0  0  0
   -1.6958    2.3184    3.8258 O   0  0  0  0  0  0  0  0  0  0  0  0
   -3.4695   -0.2814    2.7968 C   0  0  0  0  0  0  0  0  0  0  0  0
   -0.7768    0.8688    2.1068 H   0  0  0  0  0  0  0  0  0  0  0  0
   -3.6006    1.3932    1.4402 H   0  0  0  0  0  0  0  0  0  0  0  0
   -2.7909   -0.6743    3.5604 H   0  0  0  0  0  0  0  0  0  0  0  0
   -4.4456   -0.0987    3.2553 H   0  0  0  0  0  0  0  0  0  0  0  0
   -3.5924   -1.0421    2.0188 H   0  0  0  0  0  0  0  0  0  0  0  0
   -3.8939    2.7987    3.6976 N   0  0  0  0  0  0  0  0  0  0  0  0
   -3.8581    3.8382    4.7177 C   0  0  0  0  0  0  0  0  0  0  0  0
   -4.7686    2.6049    3.2184 H   0  0  0  0  0  0  0  0  0  0  0  0
   -3.5289    3.4228    5.6760 H   0  0  0  0  0  0  0  0  0  0  0  0
   -3.1707    4.6390    4.4249 H   0  0  0  0  0  0  0  0  0  0  0  0
   -4.8547    4.2694    4.8518 H   0  0  0  0  0  0  0  0  0  0  0  0
  1  2  2  0  0  0  0
  1  3  1  0  0  0  0
  1  7  1  0  0  0  0
  3  4  1  0  0  0  0
  3  5  1  0  0  0  0
  3  6  1  0  0  0  0
  7  8  1  0  0  0  0
  7 12  1  0  0  0  0
  8  9  1  0  0  0  0
  8 11  1  0  0  0  0
  8 13  1  0  0  0  0
  9 10  2  0  0  0  0
  9 17  1  0  0  0  0
 11 14  1  0  0  0  0
 11 15  1  0  0  0  0
 11 16  1  0  0  0  0
 17 18  1  0  0  0  0
 17 26  1  0  0  0  0
 18 19  1  0  0  0  0
 18 21  1  0  0  0  0
 18 27  1  0  0  0  0
 19 20  2  0  0  0  0
 19 32  1  0  0  0  0
 21 22  1  0  0  0  0
 21 28  1  0  0  0  0
 21 29  1  0  0  0  0
 22 23  1  0  0  0  0
 22 30  1  0  0  0  0
 22 31  1  0  0  0  0
 23 24  1  0  0  0  0
 23 25  2  0  0  0  0
 32 33  1  0  0  0  0
 32 37  1  0  0  0  0
 33 34  1  0  0  0  0
 33 36  1  0  0  0  0
 33 38  1  0  0  0  0
 34 35  2  0  0  0  0
 34 42  1  0  0  0  0
 36 39  1  0  0  0  0
 36 40  1  0  0  0  0
 36 41  1  0  0  0  0
 42 43  1  0  0  0  0
 42 44  1  0  0  0  0
 43 45  1  0  0  0  0
 43 46  1  0  0  0  0
 43 47  1  0  0  0  0
M  CHG  1  24  -1
M  END
$$$$

  -OEChem-05262216243D

 47 46  0     1  0  0  0  0  0999 V2000
    0.8839   -5.9442    1.2208 C   0  0  0  0  0  0  0  0  0  0  0  0
    2.0195   -5.7970    1.6473 O   0  0  0  0  0  0  0  0  0  0  0  0
   -0.0023   -7.0320    1.7999 C   0  0  0  0  0  0  0  0  0  0  0  0
   -0.3764   -7.6739    0.9985 H   0  0  0  0  0  0  0  0  0  0  0  0
    0.5633   -7.6442    2.5078 H   0  0  0  0  0  0  0  0  0  0  0  0
   -0.8504   -6.5814    2.3216 H   0  0  0  0  0  0  0  0  0  0  0  0
    0.3841   -5.1283    0.2287 N   0  0  0  0  0  0  0  0  0  0  0  0
    1.0014   -3.8564   -0.1735 C   0  0  2  0  0  0  0  0  0  0  0  0
    0.0940   -2.6588    0.1832 C   0  0  0  0  0  0  0  0  0  0  0  0
   -1.0724   -2.8641    0.4937 O   0  0  0  0  0  0  0  0  0  0  0  0
    1.2430   -3.9103   -1.6851 C   0  0  0  0  0  0  0  0  0  0  0  0
   -0.6249   -5.1751    0.0960 H   0  0  0  0  0  0  0  0  0  0  0  0
    1.9616   -3.7114    0.3320 H   0  0  0  0  0  0  0  0  0  0  0  0
    0.2959   -4.0270   -2.2221 H   0  0  0  0  0  0  0  0  0  0  0  0
    1.7240   -2.9915   -2.0348 H   0  0  0  0  0  0  0  0  0  0  0  0
    1.8931   -4.7539   -1.9363 H   0  0  0  0  0  0  0  0  0  0  0  0
    0.6304   -1.3830    0.2125 N   0  0  0  0  0  0  0  0  0  0  0  0
   -0.0937   -0.1456   -0.1459 C   0  0  2  0  0  0  0  0  0  0  0  0
   -1.5320    0.0327    0.4102 C   0  0  0  0  0  0  0  0  0  0  0  0
   -2.5248   -0.3073   -0.2253 O   0  0  0  0  0  0  0  0  0  0  0  0
   -0.0589   -0.0435   -1.6826 C   0  0  0  0  0  0  0  0  0  0  0  0
    1.3779    0.1953   -2.1847 C   0  0  0  0  0  0  0  0  0  0  0  0
    1.4168    0.2703   -3.7075 C   0  0  0  0  0  0  0  0  0  0  0  0
    1.1794    1.3775   -4.2482 O   0  5  0  0  0  0  0  0  0  0  0  0
    1.6906   -0.7900   -4.3219 O   0  0  0  0  0  0  0  0  0  0  0  0
    1.6073   -1.3717   -0.0667 H   0  0  0  0  0  0  0  0  0  0  0  0
    0.4777    0.6976    0.2522 H   0  0  0  0  0  0  0  0  0  0  0  0
   -0.6861    0.7929   -2.0108 H   0  0  0  0  0  0  0  0  0  0  0  0
   -0.4697   -0.9543   -2.1330 H   0  0  0  0  0  0  0  0  0  0  0  0
    1.7622    1.1329   -1.7721 H   0  0  0  0  0  0  0  0  0  0  0  0
    2.0436   -0.6073   -1.8570 H   0  0  0  0  0  0  0  0  0  0  0  0
   -1.7344    0.9134    1.4590 N   0  0  0  0  0  0  0  0  0  0  0  0
   -3.0479    1.3374    1.9586 C   0  0  2  0  0  0  0  0  0  0  0  0
   -2.9628    2.6504    2.7632 C   0  0  0  0  0  0  0  0  0  0  0  0
   -1.9003    3.0144    3.2579 O   0  0  0  0  0  0  0  0  0  0  0  0
   -3.6259    0.2202    2.8348 C   0  0  0  0  0  0  0  0  0  0  0  0
   -0.9123    1.2921    1.9244 H   0  0  0  0  0  0  0  0  0  0  0  0
   -3.7170    1.5137    1.1095 H   0  0  0  0  0  0  0  0  0  0  0  0
   -2.9737    0.0319    3.6934 H   0  0  0  0  0  0  0  0  0  0  0  0
   -4.6187    0.4953    3.2022 H   0  0  0  0  0  0  0  0  0  0  0  0
   -3.7178   -0.7064    2.2591 H   0  0  0  0  0  0  0  0  0  0  0  0
   -4.0943    3.4248    2.9463 N   0  0  0  0  0  0  0  0  0  0  0  0
   -4.0925    4.6901    3.6687 C   0  0  0  0  0  0  0  0  0  0  0  0
   -4.9469    3.1194    2.4861 H   0  0  0  0  0  0  0  0  0  0  0  0
   -3.7473    4.5432    4.6974 H   0  0  0  0  0  0  0  0  0  0  0  0
   -3.4343    5.4124    3.1747 H   0  0  0  0  0  0  0  0  0  0  0  0
   -5.1033    5.1077    3.7006 H   0  0  0  0  0  0  0  0  0  0  0  0
  1  2  2  0  0  0  0
  1  3  1  0  0  0  0
  1  7  1  0  0  0  0
  3  4  1  0  0  0  0
  3  5  1  0  0  0  0
  3  6  1  0  0  0  0
  7  8  1  0  0  0  0
  7 12  1  0  0  0  0
  8  9  1  0  0  0  0
  8 11  1  0  0  0  0
  8 13  1  0  0  0  0
  9 10  2  0  0  0  0
  9 17  1  0  0  0  0
 11 14  1  0  0  0  0
 11 15  1  0  0  0  0
 11 16  1  0  0  0  0
 17 18  1  0  0  0  0
 17 26  1  0  0  0  0
 18 19  1  0  0  0  0
 18 21  1  0  0  0  0
 18 27  1  0  0  0  0
 19 20  2  0  0  0  0
 19 32  1  0  0  0  0
 21 22  1  0  0  0  0
 21 28  1  0  0  0  0
 21 29  1  0  0  0  0
 22 23  1  0  0  0  0
 22 30  1  0  0  0  0
 22 31  1  0  0  0  0
 23 24  1  0  0  0  0
 23 25  2  0  0  0  0
 32 33  1  0  0  0  0
 32 37  1  0  0  0  0
 33 34  1  0  0  0  0
 33 36  1  0  0  0  0
 33 38  1  0  0  0  0
 34 35  2  0  0  0  0
 34 42  1  0  0  0  0
 36 39  1  0  0  0  0
 36 40  1  0  0  0  0
 36 41  1  0  0  0  0
 42 43  1  0  0  0  0
 42 44  1  0  0  0  0
 43 45  1  0  0  0  0
 43 46  1  0  0  0  0
 43 47  1  0  0  0  0
M  CHG  1  24  -1
M  END
$$$$

  -OEChem-05262216243D

 47 46  0     1  0  0  0  0  0999 V2000
    1.0192   -5.9965    1.1581 C   0  0  0  0  0  0  0  0  0  0  0  0
    2.1912   -5.8535    1.4729 O   0  0  0  0  0  0  0  0  0  0  0  0
    0.2076   -7.1233    1.7704 C   0  0  0  0  0  0  0  0  0  0  0  0
   -0.1989   -7.7604    0.9814 H   0  0  0  0  0  0  0  0  0  0  0  0
    0.8381   -7.7311    2.4252 H   0  0  0  0  0  0  0  0  0  0  0  0
   -0.6174   -6.7111    2.3569 H   0  0  0  0  0  0  0  0  0  0  0  0
    0.4130   -5.1433    0.2617 N   0  0  0  0  0  0  0  0  0  0  0  0
    0.9781   -3.8531   -0.1572 C   0  0  2  0  0  0  0  0  0  0  0  0
    0.0611   -2.6827    0.2607 C   0  0  0  0  0  0  0  0  0  0  0  0
   -1.0782   -2.9242    0.6375 O   0  0  0  0  0  0  0  0  0  0  0  0
    1.1441   -3.8859   -1.6793 C   0  0  0  0  0  0  0  0  0  0  0  0
   -0.6041   -5.1951    0.2293 H   0  0  0  0  0  0  0  0  0  0  0  0
    1.9586   -3.6904    0.3018 H   0  0  0  0  0  0  0  0  0  0  0  0
    0.1738   -4.0146   -2.1694 H   0  0  0  0  0  0  0  0  0  0  0  0
    1.5905   -2.9549   -2.0429 H   0  0  0  0  0  0  0  0  0  0  0  0
    1.7958   -4.7150   -1.9711 H   0  0  0  0  0  0  0  0  0  0  0  0
    0.5768   -1.3995    0.3123 N   0  0  0  0  0  0  0  0  0  0  0  0
   -0.1569   -0.1630   -0.0326 C   0  0  2  0  0  0  0  0  0  0  0  0
   -1.6044    0.0209    0.4990 C   0  0  0  0  0  0  0  0  0  0  0  0
   -2.5715   -0.4910   -0.0544 O   0  0  0  0  0  0  0  0  0  0  0  0
   -0.1192   -0.0376   -1.5670 C   0  0  0  0  0  0  0  0  0  0  0  0
    1.3162    0.2209   -2.0623 C   0  0  0  0  0  0  0  0  0  0  0  0
    1.3563    0.3191   -3.5838 C   0  0  0  0  0  0  0  0  0  0  0  0
    1.2027    1.4508   -4.1035 O   0  5  0  0  0  0  0  0  0  0  0  0
    1.5402   -0.7483   -4.2187 O   0  0  0  0  0  0  0  0  0  0  0  0
    1.5495   -1.3739    0.0200 H   0  0  0  0  0  0  0  0  0  0  0  0
    0.4124    0.6734    0.3821 H   0  0  0  0  0  0  0  0  0  0  0  0
   -0.7527    0.7986   -1.8836 H   0  0  0  0  0  0  0  0  0  0  0  0
   -0.5220   -0.9450   -2.0320 H   0  0  0  0  0  0  0  0  0  0  0  0
    1.6926    1.1544   -1.6339 H   0  0  0  0  0  0  0  0  0  0  0  0
    1.9876   -0.5816   -1.7467 H   0  0  0  0  0  0  0  0  0  0  0  0
   -1.8739    1.1033    1.3198 N   0  0  0  0  0  0  0  0  0  0  0  0
   -3.2160    1.6028    1.6429 C   0  0  2  0  0  0  0  0  0  0  0  0
   -3.1809    3.0695    2.1188 C   0  0  0  0  0  0  0  0  0  0  0  0
   -2.1454    3.5582    2.5604 O   0  0  0  0  0  0  0  0  0  0  0  0
   -3.8316    0.7117    2.7274 C   0  0  0  0  0  0  0  0  0  0  0  0
   -1.0833    1.6472    1.6595 H   0  0  0  0  0  0  0  0  0  0  0  0
   -3.8415    1.5637    0.7448 H   0  0  0  0  0  0  0  0  0  0  0  0
   -3.2212    0.7396    3.6355 H   0  0  0  0  0  0  0  0  0  0  0  0
   -4.8424    1.0498    2.9737 H   0  0  0  0  0  0  0  0  0  0  0  0
   -3.8917   -0.3248    2.3804 H   0  0  0  0  0  0  0  0  0  0  0  0
   -4.3238    3.8465    2.0570 N   0  0  0  0  0  0  0  0  0  0  0  0
   -4.3558    5.2542    2.4311 C   0  0  0  0  0  0  0  0  0  0  0  0
   -5.1459    3.4311    1.6283 H   0  0  0  0  0  0  0  0  0  0  0  0
   -4.0210    5.3836    3.4655 H   0  0  0  0  0  0  0  0  0  0  0  0
   -3.7055    5.8399    1.7730 H   0  0  0  0  0  0  0  0  0  0  0  0
   -5.3749    5.6432    2.3483 H   0  0  0  0  0  0  0  0  0  0  0  0
  1  2  2  0  0  0  0
  1  3  1  0  0  0  0
  1  7  1  0  0  0  0
  3  4  1  0  0  0  0
  3  5  1  0  0  0  0
  3  6  1  0  0  0  0
  7  8  1  0  0  0  0
  7 12  1  0  0  0  0
  8  9  1  0  0  0  0
  8 11  1  0  0  0  0
  8 13  1  0  0  0  0
  9 10  2  0  0  0  0
  9 17  1  0  0  0  0
 11 14  1  0  0  0  0
 11 15  1  0  0  0  0
 11 16  1  0  0  0  0
 17 18  1  0  0  0  0
 17 26  1  0  0  0  0
 18 19  1  0  0  0  0
 18 21  1  0  0  0  0
 18 27  1  0  0  0  0
 19 20  2  0  0  0  0
 19 32  1  0  0  0  0
 21 22  1  0  0  0  0
 21 28  1  0  0  0  0
 21 29  1  0  0  0  0
 22 23  1  0  0  0  0
 22 30  1  0  0  0  0
 22 31  1  0  0  0  0
 23 24  1  0  0  0  0
 23 25  2  0  0  0  0
 32 33  1  0  0  0  0
 32 37  1  0  0  0  0
 33 34  1  0  0  0  0
 33 36  1  0  0  0  0
 33 38  1  0  0  0  0
 34 35  2  0  0  0  0
 34 42  1  0  0  0  0
 36 39  1  0  0  0  0
 36 40  1  0  0  0  0
 36 41  1  0  0  0  0
 42 43  1  0  0  0  0
 42 44  1  0  0  0  0
 43 45  1  0  0  0  0
 43 46  1  0  0  0  0
 43 47  1  0  0  0  0
M  CHG  1  24  -1
M  END
$$$$

  -OEChem-05262216243D

 47 46  0     1  0  0  0  0  0999 V2000
    0.2204   -5.7282    1.5768 C   0  0  0  0  0  0  0  0  0  0  0  0
    1.1047   -5.5616    2.4041 O   0  0  0  0  0  0  0  0  0  0  0  0
   -0.8802   -6.7398    1.8389 C   0  0  0  0  0  0  0  0  0  0  0  0
   -0.9073   -7.4783    1.0340 H   0  0  0  0  0  0  0  0  0  0  0  0
   -0.7026   -7.2563    2.7863 H   0  0  0  0  0  0  0  0  0  0  0  0
   -1.8467   -6.2317    1.8893 H   0  0  0  0  0  0  0  0  0  0  0  0
    0.2053   -5.0011    0.4069 N   0  0  0  0  0  0  0  0  0  0  0  0
    1.0188   -3.8027    0.1678 C   0  0  2  0  0  0  0  0  0  0  0  0
    0.1425   -2.6570   -0.3796 C   0  0  0  0  0  0  0  0  0  0  0  0
   -0.9053   -2.9448   -0.9441 O   0  0  0  0  0  0  0  0  0  0  0  0
    2.1229   -4.1639   -0.8290 C   0  0  0  0  0  0  0  0  0  0  0  0
   -0.6515   -5.0532   -0.1456 H   0  0  0  0  0  0  0  0  0  0  0  0
    1.4729   -3.4547    1.1012 H   0  0  0  0  0  0  0  0  0  0  0  0
    1.6874   -4.5003   -1.7757 H   0  0  0  0  0  0  0  0  0  0  0  0
    2.7593   -3.2967   -1.0300 H   0  0  0  0  0  0  0  0  0  0  0  0
    2.7476   -4.9671   -0.4264 H   0  0  0  0  0  0  0  0  0  0  0  0
    0.6137   -1.3561   -0.3173 N   0  0  0  0  0  0  0  0  0  0  0  0
   -0.1478   -0.1037   -0.5142 C   0  0  2  0  0  0  0  0  0  0  0  0
   -1.5317    0.0540    0.1783 C   0  0  0  0  0  0  0  0  0  0  0  0
   -2.3300   -0.8523    0.3725 O   0  0  0  0  0  0  0  0  0  0  0  0
   -0.2732    0.1802   -2.0212 C   0  0  0  0  0  0  0  0  0  0  0  0
    1.1036    0.5057   -2.6345 C   0  0  0  0  0  0  0  0  0  0  0  0
    1.0149    0.7700   -4.1378 C   0  0  0  0  0  0  0  0  0  0  0  0
    0.2304    1.6726   -4.5229 O   0  5  0  0  0  0  0  0  0  0  0  0
    1.7770    0.1138   -4.8896 O   0  0  0  0  0  0  0  0  0  0  0  0
    1.5568   -1.2584    0.0413 H   0  0  0  0  0  0  0  0  0  0  0  0
    0.4682    0.6934   -0.0888 H   0  0  0  0  0  0  0  0  0  0  0  0
   -0.9424    1.0321   -2.1851 H   0  0  0  0  0  0  0  0  0  0  0  0
   -0.7136   -0.6842   -2.5301 H   0  0  0  0  0  0  0  0  0  0  0  0
    1.5199    1.3936   -2.1505 H   0  0  0  0  0  0  0  0  0  0  0  0
    1.7940   -0.3255   -2.4632 H   0  0  0  0  0  0  0  0  0  0  0  0
   -1.8045    1.2550    0.8122 N   0  0  0  0  0  0  0  0  0  0  0  0
   -3.0608    1.5642    1.5078 C   0  0  2  0  0  0  0  0  0  0  0  0
   -3.3736    3.0738    1.4806 C   0  0  0  0  0  0  0  0  0  0  0  0
   -2.4660    3.8945    1.3976 O   0  0  0  0  0  0  0  0  0  0  0  0
   -2.9589    1.0756    2.9567 C   0  0  0  0  0  0  0  0  0  0  0  0
   -1.1879    2.0401    0.6075 H   0  0  0  0  0  0  0  0  0  0  0  0
   -3.8883    1.0478    1.0098 H   0  0  0  0  0  0  0  0  0  0  0  0
   -2.1320    1.5756    3.4708 H   0  0  0  0  0  0  0  0  0  0  0  0
   -3.8860    1.2868    3.4978 H   0  0  0  0  0  0  0  0  0  0  0  0
   -2.7833   -0.0045    2.9832 H   0  0  0  0  0  0  0  0  0  0  0  0
   -4.6819    3.5143    1.5676 N   0  0  0  0  0  0  0  0  0  0  0  0
   -5.0590    4.9185    1.4714 C   0  0  0  0  0  0  0  0  0  0  0  0
   -5.4114    2.8074    1.5565 H   0  0  0  0  0  0  0  0  0  0  0  0
   -4.5742    5.5013    2.2616 H   0  0  0  0  0  0  0  0  0  0  0  0
   -4.7641    5.3277    0.4994 H   0  0  0  0  0  0  0  0  0  0  0  0
   -6.1423    5.0264    1.5796 H   0  0  0  0  0  0  0  0  0  0  0  0
  1  2  2  0  0  0  0
  1  3  1  0  0  0  0
  1  7  1  0  0  0  0
  3  4  1  0  0  0  0
  3  5  1  0  0  0  0
  3  6  1  0  0  0  0
  7  8  1  0  0  0  0
  7 12  1  0  0  0  0
  8  9  1  0  0  0  0
  8 11  1  0  0  0  0
  8 13  1  0  0  0  0
  9 10  2  0  0  0  0
  9 17  1  0  0  0  0
 11 14  1  0  0  0  0
 11 15  1  0  0  0  0
 11 16  1  0  0  0  0
 17 18  1  0  0  0  0
 17 26  1  0  0  0  0
 18 19  1  0  0  0  0
 18 21  1  0  0  0  0
 18 27  1  0  0  0  0
 19 20  2  0  0  0  0
 19 32  1  0  0  0  0
 21 22  1  0  0  0  0
 21 28  1  0  0  0  0
 21 29  1  0  0  0  0
 22 23  1  0  0  0  0
 22 30  1  0  0  0  0
 22 31  1  0  0  0  0
 23 24  1  0  0  0  0
 23 25  2  0  0  0  0
 32 33  1  0  0  0  0
 32 37  1  0  0  0  0
 33 34  1  0  0  0  0
 33 36  1  0  0  0  0
 33 38  1  0  0  0  0
 34 35  2  0  0  0  0
 34 42  1  0  0  0  0
 36 39  1  0  0  0  0
 36 40  1  0  0  0  0
 36 41  1  0  0  0  0
 42 43  1  0  0  0  0
 42 44  1  0  0  0  0
 43 45  1  0  0  0  0
 43 46  1  0  0  0  0
 43 47  1  0  0  0  0
M  CHG  1  24  -1
M  END
$$$$

  -OEChem-05262216243D

 47 46  0     1  0  0  0  0  0999 V2000
    0.0889   -5.7451    1.5357 C   0  0  0  0  0  0  0  0  0  0  0  0
    1.0030   -5.6655    2.3435 O   0  0  0  0  0  0  0  0  0  0  0  0
   -1.0283   -6.7489    1.7540 C   0  0  0  0  0  0  0  0  0  0  0  0
   -1.0877   -7.4314    0.9027 H   0  0  0  0  0  0  0  0  0  0  0  0
   -0.8419   -7.3308    2.6608 H   0  0  0  0  0  0  0  0  0  0  0  0
   -1.9824   -6.2261    1.8601 H   0  0  0  0  0  0  0  0  0  0  0  0
    0.0565   -4.9236    0.4304 N   0  0  0  0  0  0  0  0  0  0  0  0
    0.9183   -3.7507    0.2452 C   0  0  2  0  0  0  0  0  0  0  0  0
    0.1293   -2.5897   -0.3944 C   0  0  0  0  0  0  0  0  0  0  0  0
   -0.9043   -2.8418   -1.0053 O   0  0  0  0  0  0  0  0  0  0  0  0
    2.1028   -4.1505   -0.6383 C   0  0  0  0  0  0  0  0  0  0  0  0
   -0.8031   -4.9227   -0.1202 H   0  0  0  0  0  0  0  0  0  0  0  0
    1.2882   -3.4014    1.2145 H   0  0  0  0  0  0  0  0  0  0  0  0
    1.7510   -4.4845   -1.6199 H   0  0  0  0  0  0  0  0  0  0  0  0
    2.7779   -3.3015   -0.7828 H   0  0  0  0  0  0  0  0  0  0  0  0
    2.6650   -4.9655   -0.1719 H   0  0  0  0  0  0  0  0  0  0  0  0
    0.6484   -1.3060   -0.3488 N   0  0  0  0  0  0  0  0  0  0  0  0
   -0.1032   -0.0547   -0.5789 C   0  0  2  0  0  0  0  0  0  0  0  0
   -1.4866    0.1034    0.1109 C   0  0  0  0  0  0  0  0  0  0  0  0
   -2.0538   -0.8042    0.7090 O   0  0  0  0  0  0  0  0  0  0  0  0
   -0.2210    0.2113   -2.0904 C   0  0  0  0  0  0  0  0  0  0  0  0
    1.1586    0.5218   -2.7034 C   0  0  0  0  0  0  0  0  0  0  0  0
    1.0723    0.7672   -4.2099 C   0  0  0  0  0  0  0  0  0  0  0  0
    0.2770    1.6549   -4.6071 O   0  5  0  0  0  0  0  0  0  0  0  0
    1.8391    0.1071   -4.9533 O   0  0  0  0  0  0  0  0  0  0  0  0
    1.5460   -1.2195    0.1134 H   0  0  0  0  0  0  0  0  0  0  0  0
    0.5079    0.7491   -0.1587 H   0  0  0  0  0  0  0  0  0  0  0  0
   -0.8848    1.0642   -2.2685 H   0  0  0  0  0  0  0  0  0  0  0  0
   -0.6641   -0.6563   -2.5914 H   0  0  0  0  0  0  0  0  0  0  0  0
    1.5782    1.4140   -2.2301 H   0  0  0  0  0  0  0  0  0  0  0  0
    1.8431   -0.3115   -2.5201 H   0  0  0  0  0  0  0  0  0  0  0  0
   -1.8975    1.3844    0.4402 N   0  0  0  0  0  0  0  0  0  0  0  0
   -3.1134    1.6965    1.2033 C   0  0  2  0  0  0  0  0  0  0  0  0
   -3.7225    3.0505    0.7895 C   0  0  0  0  0  0  0  0  0  0  0  0
   -2.9976    3.9751    0.4401 O   0  0  0  0  0  0  0  0  0  0  0  0
   -2.7663    1.7103    2.6952 C   0  0  0  0  0  0  0  0  0  0  0  0
   -1.4462    2.1567   -0.0500 H   0  0  0  0  0  0  0  0  0  0  0  0
   -3.8683    0.9257    1.0155 H   0  0  0  0  0  0  0  0  0  0  0  0
   -2.0168    2.4801    2.9050 H   0  0  0  0  0  0  0  0  0  0  0  0
   -3.6582    1.9182    3.2934 H   0  0  0  0  0  0  0  0  0  0  0  0
   -2.3639    0.7395    3.0012 H   0  0  0  0  0  0  0  0  0  0  0  0
   -5.0923    3.2399    0.8327 N   0  0  0  0  0  0  0  0  0  0  0  0
   -5.7414    4.4647    0.3832 C   0  0  0  0  0  0  0  0  0  0  0  0
   -5.6665    2.4293    1.0446 H   0  0  0  0  0  0  0  0  0  0  0  0
   -5.3642    5.3268    0.9432 H   0  0  0  0  0  0  0  0  0  0  0  0
   -5.5535    4.6277   -0.6831 H   0  0  0  0  0  0  0  0  0  0  0  0
   -6.8225    4.3982    0.5390 H   0  0  0  0  0  0  0  0  0  0  0  0
  1  2  2  0  0  0  0
  1  3  1  0  0  0  0
  1  7  1  0  0  0  0
  3  4  1  0  0  0  0
  3  5  1  0  0  0  0
  3  6  1  0  0  0  0
  7  8  1  0  0  0  0
  7 12  1  0  0  0  0
  8  9  1  0  0  0  0
  8 11  1  0  0  0  0
  8 13  1  0  0  0  0
  9 10  2  0  0  0  0
  9 17  1  0  0  0  0
 11 14  1  0  0  0  0
 11 15  1  0  0  0  0
 11 16  1  0  0  0  0
 17 18  1  0  0  0  0
 17 26  1  0  0  0  0
 18 19  1  0  0  0  0
 18 21  1  0  0  0  0
 18 27  1  0  0  0  0
 19 20  2  0  0  0  0
 19 32  1  0  0  0  0
 21 22  1  0  0  0  0
 21 28  1  0  0  0  0
 21 29  1  0  0  0  0
 22 23  1  0  0  0  0
 22 30  1  0  0  0  0
 22 31  1  0  0  0  0
 23 24  1  0  0  0  0
 23 25  2  0  0  0  0
 32 33  1  0  0  0  0
 32 37  1  0  0  0  0
 33 34  1  0  0  0  0
 33 36  1  0  0  0  0
 33 38  1  0  0  0  0
 34 35  2  0  0  0  0
 34 42  1  0  0  0  0
 36 39  1  0  0  0  0
 36 40  1  0  0  0  0
 36 41  1  0  0  0  0
 42 43  1  0  0  0  0
 42 44  1  0  0  0  0
 43 45  1  0  0  0  0
 43 46  1  0  0  0  0
 43 47  1  0  0  0  0
M  CHG  1  24  -1
M  END
$$$$

  -OEChem-05262216243D

 47 46  0     1  0  0  0  0  0999 V2000
    0.0677   -5.7487    1.5067 C   0  0  0  0  0  0  0  0  0  0  0  0
    1.0115   -5.7117    2.2823 O   0  0  0  0  0  0  0  0  0  0  0  0
   -1.0542   -6.7468    1.7262 C   0  0  0  0  0  0  0  0  0  0  0  0
   -1.2129   -7.3357    0.8194 H   0  0  0  0  0  0  0  0  0  0  0  0
   -0.8022   -7.4242    2.5468 H   0  0  0  0  0  0  0  0  0  0  0  0
   -1.9780   -6.2180    1.9744 H   0  0  0  0  0  0  0  0  0  0  0  0
    0.0068   -4.8860    0.4352 N   0  0  0  0  0  0  0  0  0  0  0  0
    0.8855   -3.7259    0.2518 C   0  0  2  0  0  0  0  0  0  0  0  0
    0.1028   -2.5383   -0.3455 C   0  0  0  0  0  0  0  0  0  0  0  0
   -0.9665   -2.7523   -0.9099 O   0  0  0  0  0  0  0  0  0  0  0  0
    2.0390   -4.1313   -0.6697 C   0  0  0  0  0  0  0  0  0  0  0  0
   -0.8707   -4.8541   -0.0846 H   0  0  0  0  0  0  0  0  0  0  0  0
    1.2859   -3.4024    1.2180 H   0  0  0  0  0  0  0  0  0  0  0  0
    1.6554   -4.4481   -1.6451 H   0  0  0  0  0  0  0  0  0  0  0  0
    2.7229   -3.2909   -0.8229 H   0  0  0  0  0  0  0  0  0  0  0  0
    2.6015   -4.9603   -0.2296 H   0  0  0  0  0  0  0  0  0  0  0  0
    0.6530   -1.2675   -0.3061 N   0  0  0  0  0  0  0  0  0  0  0  0
   -0.0703   -0.0083   -0.5754 C   0  0  2  0  0  0  0  0  0  0  0  0
   -1.4645    0.1603    0.0884 C   0  0  0  0  0  0  0  0  0  0  0  0
   -1.8935   -0.6354    0.9193 O   0  0  0  0  0  0  0  0  0  0  0  0
   -0.1441    0.2165   -2.0976 C   0  0  0  0  0  0  0  0  0  0  0  0
    1.2570    0.4842   -2.6824 C   0  0  0  0  0  0  0  0  0  0  0  0
    1.2147    0.6877   -4.1972 C   0  0  0  0  0  0  0  0  0  0  0  0
    0.4307    1.5620   -4.6432 O   0  5  0  0  0  0  0  0  0  0  0  0
    2.0015    0.0053   -4.8983 O   0  0  0  0  0  0  0  0  0  0  0  0
    1.5665   -1.1944    0.1270 H   0  0  0  0  0  0  0  0  0  0  0  0
    0.5336    0.8013   -0.1564 H   0  0  0  0  0  0  0  0  0  0  0  0
   -0.7854    1.0757   -2.3199 H   0  0  0  0  0  0  0  0  0  0  0  0
   -0.5892   -0.6575   -2.5858 H   0  0  0  0  0  0  0  0  0  0  0  0
    1.6813    1.3812   -2.2230 H   0  0  0  0  0  0  0  0  0  0  0  0
    1.9214   -0.3554   -2.4582 H   0  0  0  0  0  0  0  0  0  0  0  0
   -2.0309    1.4240    0.1201 N   0  0  0  0  0  0  0  0  0  0  0  0
   -3.2747    1.7564    0.8284 C   0  0  2  0  0  0  0  0  0  0  0  0
   -4.0848    2.8492    0.1037 C   0  0  0  0  0  0  0  0  0  0  0  0
   -3.5119    3.7482   -0.5004 O   0  0  0  0  0  0  0  0  0  0  0  0
   -2.9213    2.2165    2.2455 C   0  0  0  0  0  0  0  0  0  0  0  0
   -1.6855    2.1036   -0.5582 H   0  0  0  0  0  0  0  0  0  0  0  0
   -3.9095    0.8663    0.8875 H   0  0  0  0  0  0  0  0  0  0  0  0
   -2.2837    3.1056    2.2097 H   0  0  0  0  0  0  0  0  0  0  0  0
   -3.8289    2.4587    2.8061 H   0  0  0  0  0  0  0  0  0  0  0  0
   -2.3866    1.4246    2.7792 H   0  0  0  0  0  0  0  0  0  0  0  0
   -5.4674    2.8401    0.1570 N   0  0  0  0  0  0  0  0  0  0  0  0
   -6.2975    3.7948   -0.5661 C   0  0  0  0  0  0  0  0  0  0  0  0
   -5.9095    2.0359    0.5920 H   0  0  0  0  0  0  0  0  0  0  0  0
   -6.0480    4.8198   -0.2725 H   0  0  0  0  0  0  0  0  0  0  0  0
   -6.1477    3.6905   -1.6458 H   0  0  0  0  0  0  0  0  0  0  0  0
   -7.3545    3.6210   -0.3434 H   0  0  0  0  0  0  0  0  0  0  0  0
  1  2  2  0  0  0  0
  1  3  1  0  0  0  0
  1  7  1  0  0  0  0
  3  4  1  0  0  0  0
  3  5  1  0  0  0  0
  3  6  1  0  0  0  0
  7  8  1  0  0  0  0
  7 12  1  0  0  0  0
  8  9  1  0  0  0  0
  8 11  1  0  0  0  0
  8 13  1  0  0  0  0
  9 10  2  0  0  0  0
  9 17  1  0  0  0  0
 11 14  1  0  0  0  0
 11 15  1  0  0  0  0
 11 16  1  0  0  0  0
 17 18  1  0  0  0  0
 17 26  1  0  0  0  0
 18 19  1  0  0  0  0
 18 21  1  0  0  0  0
 18 27  1  0  0  0  0
 19 20  2  0  0  0  0
 19 32  1  0  0  0  0
 21 22  1  0  0  0  0
 21 28  1  0  0  0  0
 21 29  1  0  0  0  0
 22 23  1  0  0  0  0
 22 30  1  0  0  0  0
 22 31  1  0  0  0  0
 23 24  1  0  0  0  0
 23 25  2  0  0  0  0
 32 33  1  0  0  0  0
 32 37  1  0  0  0  0
 33 34  1  0  0  0  0
 33 36  1  0  0  0  0
 33 38  1  0  0  0  0
 34 35  2  0  0  0  0
 34 42  1  0  0  0  0
 36 39  1  0  0  0  0
 36 40  1  0  0  0  0
 36 41  1  0  0  0  0
 42 43  1  0  0  0  0
 42 44  1  0  0  0  0
 43 45  1  0  0  0  0
 43 46  1  0  0  0  0
 43 47  1  0  0  0  0
M  CHG  1  24  -1
M  END
$$$$

  -OEChem-05262216243D

 47 46  0     1  0  0  0  0  0999 V2000
    0.1935   -5.8311    1.4422 C   0  0  0  0  0  0  0  0  0  0  0  0
    1.2667   -5.8715    2.0255 O   0  0  0  0  0  0  0  0  0  0  0  0
   -0.8951   -6.8292    1.7913 C   0  0  0  0  0  0  0  0  0  0  0  0
   -1.2064   -7.3707    0.8947 H   0  0  0  0  0  0  0  0  0  0  0  0
   -0.5265   -7.5487    2.5276 H   0  0  0  0  0  0  0  0  0  0  0  0
   -1.7584   -6.3059    2.2098 H   0  0  0  0  0  0  0  0  0  0  0  0
   -0.0459   -4.8778    0.4772 N   0  0  0  0  0  0  0  0  0  0  0  0
    0.8166   -3.7180    0.2212 C   0  0  2  0  0  0  0  0  0  0  0  0
   -0.0247   -2.4615   -0.0868 C   0  0  0  0  0  0  0  0  0  0  0  0
   -1.2182   -2.5889   -0.3477 O   0  0  0  0  0  0  0  0  0  0  0  0
    1.7357   -4.0491   -0.9583 C   0  0  0  0  0  0  0  0  0  0  0  0
   -1.0049   -4.7919    0.1398 H   0  0  0  0  0  0  0  0  0  0  0  0
    1.4227   -3.4972    1.1060 H   0  0  0  0  0  0  0  0  0  0  0  0
    1.1449   -4.2494   -1.8583 H   0  0  0  0  0  0  0  0  0  0  0  0
    2.4112   -3.2143   -1.1681 H   0  0  0  0  0  0  0  0  0  0  0  0
    2.3395   -4.9332   -0.7324 H   0  0  0  0  0  0  0  0  0  0  0  0
    0.5863   -1.2184   -0.0995 N   0  0  0  0  0  0  0  0  0  0  0  0
   -0.0655    0.0477   -0.4858 C   0  0  2  0  0  0  0  0  0  0  0  0
   -1.2914    0.4341    0.3838 C   0  0  0  0  0  0  0  0  0  0  0  0
   -1.4777   -0.0807    1.4833 O   0  0  0  0  0  0  0  0  0  0  0  0
   -0.3726    0.0340   -1.9983 C   0  0  0  0  0  0  0  0  0  0  0  0
    0.9357    0.0493   -2.8128 C   0  0  0  0  0  0  0  0  0  0  0  0
    0.6663    0.0121   -4.3161 C   0  0  0  0  0  0  0  0  0  0  0  0
   -0.0177    0.9451   -4.8043 O   0  5  0  0  0  0  0  0  0  0  0  0
    1.1752   -0.9275   -4.9754 O   0  0  0  0  0  0  0  0  0  0  0  0
    1.5922   -1.2116    0.0253 H   0  0  0  0  0  0  0  0  0  0  0  0
    0.6554    0.8514   -0.3128 H   0  0  0  0  0  0  0  0  0  0  0  0
   -0.9598    0.9163   -2.2724 H   0  0  0  0  0  0  0  0  0  0  0  0
   -0.9675   -0.8456   -2.2651 H   0  0  0  0  0  0  0  0  0  0  0  0
    1.5031    0.9554   -2.5824 H   0  0  0  0  0  0  0  0  0  0  0  0
    1.5541   -0.8121   -2.5437 H   0  0  0  0  0  0  0  0  0  0  0  0
   -1.9910    1.5997    0.1191 N   0  0  0  0  0  0  0  0  0  0  0  0
   -3.1092    2.0936    0.9342 C   0  0  2  0  0  0  0  0  0  0  0  0
   -4.1657    2.8339    0.0909 C   0  0  0  0  0  0  0  0  0  0  0  0
   -3.8289    3.5139   -0.8707 O   0  0  0  0  0  0  0  0  0  0  0  0
   -2.5527    3.0241    2.0161 C   0  0  0  0  0  0  0  0  0  0  0  0
   -1.8497    2.0322   -0.7939 H   0  0  0  0  0  0  0  0  0  0  0  0
   -3.6115    1.2468    1.4134 H   0  0  0  0  0  0  0  0  0  0  0  0
   -2.0420    3.8781    1.5599 H   0  0  0  0  0  0  0  0  0  0  0  0
   -3.3614    3.3987    2.6505 H   0  0  0  0  0  0  0  0  0  0  0  0
   -1.8381    2.4875    2.6481 H   0  0  0  0  0  0  0  0  0  0  0  0
   -5.5032    2.7651    0.4379 N   0  0  0  0  0  0  0  0  0  0  0  0
   -6.5617    3.3815   -0.3513 C   0  0  0  0  0  0  0  0  0  0  0  0
   -5.7557    2.1245    1.1844 H   0  0  0  0  0  0  0  0  0  0  0  0
   -6.3762    4.4540   -0.4715 H   0  0  0  0  0  0  0  0  0  0  0  0
   -6.6167    2.9196   -1.3426 H   0  0  0  0  0  0  0  0  0  0  0  0
   -7.5274    3.2536    0.1467 H   0  0  0  0  0  0  0  0  0  0  0  0
  1  2  2  0  0  0  0
  1  3  1  0  0  0  0
  1  7  1  0  0  0  0
  3  4  1  0  0  0  0
  3  5  1  0  0  0  0
  3  6  1  0  0  0  0
  7  8  1  0  0  0  0
  7 12  1  0  0  0  0
  8  9  1  0  0  0  0
  8 11  1  0  0  0  0
  8 13  1  0  0  0  0
  9 10  2  0  0  0  0
  9 17  1  0  0  0  0
 11 14  1  0  0  0  0
 11 15  1  0  0  0  0
 11 16  1  0  0  0  0
 17 18  1  0  0  0  0
 17 26  1  0  0  0  0
 18 19  1  0  0  0  0
 18 21  1  0  0  0  0
 18 27  1  0  0  0  0
 19 20  2  0  0  0  0
 19 32  1  0  0  0  0
 21 22  1  0  0  0  0
 21 28  1  0  0  0  0
 21 29  1  0  0  0  0
 22 23  1  0  0  0  0
 22 30  1  0  0  0  0
 22 31  1  0  0  0  0
 23 24  1  0  0  0  0
 23 25  2  0  0  0  0
 32 33  1  0  0  0  0
 32 37  1  0  0  0  0
 33 34  1  0  0  0  0
 33 36  1  0  0  0  0
 33 38  1  0  0  0  0
 34 35  2  0  0  0  0
 34 42  1  0  0  0  0
 36 39  1  0  0  0  0
 36 40  1  0  0  0  0
 36 41  1  0  0  0  0
 42 43  1  0  0  0  0
 42 44  1  0  0  0  0
 43 45  1  0  0  0  0
 43 46  1  0  0  0  0
 43 47  1  0  0  0  0
M  CHG  1  24  -1
M  END
$$$$

  -OEChem-05262216243D

 47 46  0     1  0  0  0  0  0999 V2000
    0.1710   -5.8092    1.4154 C   0  0  0  0  0  0  0  0  0  0  0  0
    1.2488   -5.8640    1.9887 O   0  0  0  0  0  0  0  0  0  0  0  0
   -0.9149   -6.8164    1.7476 C   0  0  0  0  0  0  0  0  0  0  0  0
   -1.2414   -7.3266    0.8378 H   0  0  0  0  0  0  0  0  0  0  0  0
   -0.5366   -7.5610    2.4534 H   0  0  0  0  0  0  0  0  0  0  0  0
   -1.7702   -6.3060    2.1975 H   0  0  0  0  0  0  0  0  0  0  0  0
   -0.0748   -4.8352    0.4731 N   0  0  0  0  0  0  0  0  0  0  0  0
    0.7942   -3.6789    0.2225 C   0  0  2  0  0  0  0  0  0  0  0  0
   -0.0382   -2.4058   -0.0393 C   0  0  0  0  0  0  0  0  0  0  0  0
   -1.2431   -2.5089   -0.2551 O   0  0  0  0  0  0  0  0  0  0  0  0
    1.6831   -3.9961   -0.9845 C   0  0  0  0  0  0  0  0  0  0  0  0
   -1.0366   -4.7399    0.1474 H   0  0  0  0  0  0  0  0  0  0  0  0
    1.4239   -3.4850    1.0968 H   0  0  0  0  0  0  0  0  0  0  0  0
    1.0709   -4.1683   -1.8763 H   0  0  0  0  0  0  0  0  0  0  0  0
    2.3661   -3.1662   -1.1905 H   0  0  0  0  0  0  0  0  0  0  0  0
    2.2792   -4.8935   -0.7914 H   0  0  0  0  0  0  0  0  0  0  0  0
    0.5880   -1.1707   -0.0624 N   0  0  0  0  0  0  0  0  0  0  0  0
   -0.0482    0.0887   -0.4937 C   0  0  2  0  0  0  0  0  0  0  0  0
   -1.2912    0.4846    0.3474 C   0  0  0  0  0  0  0  0  0  0  0  0
   -1.3701    0.1581    1.5293 O   0  0  0  0  0  0  0  0  0  0  0  0
   -0.3132    0.0321   -2.0140 C   0  0  0  0  0  0  0  0  0  0  0  0
    1.0160    0.0201   -2.7925 C   0  0  0  0  0  0  0  0  0  0  0  0
    0.7814   -0.0603   -4.2993 C   0  0  0  0  0  0  0  0  0  0  0  0
    0.1913    0.9046   -4.8443 O   0  5  0  0  0  0  0  0  0  0  0  0
    1.2137   -1.0734   -4.9020 O   0  0  0  0  0  0  0  0  0  0  0  0
    1.5991   -1.1819    0.0133 H   0  0  0  0  0  0  0  0  0  0  0  0
    0.6670    0.8980   -0.3217 H   0  0  0  0  0  0  0  0  0  0  0  0
   -0.8827    0.9106   -2.3326 H   0  0  0  0  0  0  0  0  0  0  0  0
   -0.9069   -0.8512   -2.2712 H   0  0  0  0  0  0  0  0  0  0  0  0
    1.5800    0.9314   -2.5744 H   0  0  0  0  0  0  0  0  0  0  0  0
    1.6261   -0.8334   -2.4838 H   0  0  0  0  0  0  0  0  0  0  0  0
   -2.1793    1.4485   -0.1000 N   0  0  0  0  0  0  0  0  0  0  0  0
   -3.3604    1.8935    0.6518 C   0  0  2  0  0  0  0  0  0  0  0  0
   -4.5514    2.2234   -0.2700 C   0  0  0  0  0  0  0  0  0  0  0  0
   -4.3631    2.6853   -1.3888 O   0  0  0  0  0  0  0  0  0  0  0  0
   -2.9747    3.1240    1.4767 C   0  0  0  0  0  0  0  0  0  0  0  0
   -2.1361    1.6954   -1.0890 H   0  0  0  0  0  0  0  0  0  0  0  0
   -3.6853    1.0959    1.3280 H   0  0  0  0  0  0  0  0  0  0  0  0
   -2.6491    3.9366    0.8194 H   0  0  0  0  0  0  0  0  0  0  0  0
   -3.8279    3.4717    2.0669 H   0  0  0  0  0  0  0  0  0  0  0  0
   -2.1564    2.8792    2.1612 H   0  0  0  0  0  0  0  0  0  0  0  0
   -5.8483    2.0279    0.1718 N   0  0  0  0  0  0  0  0  0  0  0  0
   -7.0158    2.2401   -0.6742 C   0  0  0  0  0  0  0  0  0  0  0  0
   -5.9681    1.5644    1.0674 H   0  0  0  0  0  0  0  0  0  0  0  0
   -7.0300    3.2653   -1.0588 H   0  0  0  0  0  0  0  0  0  0  0  0
   -7.0046    1.5460   -1.5211 H   0  0  0  0  0  0  0  0  0  0  0  0
   -7.9329    2.0748   -0.1009 H   0  0  0  0  0  0  0  0  0  0  0  0
  1  2  2  0  0  0  0
  1  3  1  0  0  0  0
  1  7  1  0  0  0  0
  3  4  1  0  0  0  0
  3  5  1  0  0  0  0
  3  6  1  0  0  0  0
  7  8  1  0  0  0  0
  7 12  1  0  0  0  0
  8  9  1  0  0  0  0
  8 11  1  0  0  0  0
  8 13  1  0  0  0  0
  9 10  2  0  0  0  0
  9 17  1  0  0  0  0
 11 14  1  0  0  0  0
 11 15  1  0  0  0  0
 11 16  1  0  0  0  0
 17 18  1  0  0  0  0
 17 26  1  0  0  0  0
 18 19  1  0  0  0  0
 18 21  1  0  0  0  0
 18 27  1  0  0  0  0
 19 20  2  0  0  0  0
 19 32  1  0  0  0  0
 21 22  1  0  0  0  0
 21 28  1  0  0  0  0
 21 29  1  0  0  0  0
 22 23  1  0  0  0  0
 22 30  1  0  0  0  0
 22 31  1  0  0  0  0
 23 24  1  0  0  0  0
 23 25  2  0  0  0  0
 32 33  1  0  0  0  0
 32 37  1  0  0  0  0
 33 34  1  0  0  0  0
 33 36  1  0  0  0  0
 33 38  1  0  0  0  0
 34 35  2  0  0  0  0
 34 42  1  0  0  0  0
 36 39  1  0  0  0  0
 36 40  1  0  0  0  0
 36 41  1  0  0  0  0
 42 43  1  0  0  0  0
 42 44  1  0  0  0  0
 43 45  1  0  0  0  0
 43 46  1  0  0  0  0
 43 47  1  0  0  0  0
M  CHG  1  24  -1
M  END
$$$$

  -OEChem-05262216243D

 47 46  0     1  0  0  0  0  0999 V2000
    0.1484   -5.7687    1.3978 C   0  0  0  0  0  0  0  0  0  0  0  0
    1.2300   -5.8327    1.9630 O   0  0  0  0  0  0  0  0  0  0  0  0
   -0.9429   -6.7673    1.7361 C   0  0  0  0  0  0  0  0  0  0  0  0
   -1.2534   -7.2991    0.8335 H   0  0  0  0  0  0  0  0  0  0  0  0
   -0.5771   -7.4939    2.4666 H   0  0  0  0  0  0  0  0  0  0  0  0
   -1.8058   -6.2459    2.1580 H   0  0  0  0  0  0  0  0  0  0  0  0
   -0.0996   -4.7881    0.4628 N   0  0  0  0  0  0  0  0  0  0  0  0
    0.7729   -3.6343    0.2126 C   0  0  2  0  0  0  0  0  0  0  0  0
   -0.0539   -2.3528   -0.0226 C   0  0  0  0  0  0  0  0  0  0  0  0
   -1.2641   -2.4431   -0.2142 O   0  0  0  0  0  0  0  0  0  0  0  0
    1.6385   -3.9438   -1.0126 C   0  0  0  0  0  0  0  0  0  0  0  0
   -1.0619   -4.6901    0.1392 H   0  0  0  0  0  0  0  0  0  0  0  0
    1.4183   -3.4548    1.0786 H   0  0  0  0  0  0  0  0  0  0  0  0
    1.0106   -4.0934   -1.8974 H   0  0  0  0  0  0  0  0  0  0  0  0
    2.3291   -3.1197   -1.2157 H   0  0  0  0  0  0  0  0  0  0  0  0
    2.2252   -4.8520   -0.8426 H   0  0  0  0  0  0  0  0  0  0  0  0
    0.5804   -1.1225   -0.0502 N   0  0  0  0  0  0  0  0  0  0  0  0
   -0.0433    0.1254   -0.5282 C   0  0  2  0  0  0  0  0  0  0  0  0
   -1.3088    0.5193    0.2779 C   0  0  0  0  0  0  0  0  0  0  0  0
   -1.3107    0.3952    1.5005 O   0  0  0  0  0  0  0  0  0  0  0  0
   -0.2563    0.0309   -2.0548 C   0  0  0  0  0  0  0  0  0  0  0  0
    1.1010    0.0043   -2.7831 C   0  0  0  0  0  0  0  0  0  0  0  0
    0.9217   -0.1137   -4.2945 C   0  0  0  0  0  0  0  0  0  0  0  0
    0.3961    0.8568   -4.8925 O   0  5  0  0  0  0  0  0  0  0  0  0
    1.3279   -1.1658   -4.8463 O   0  0  0  0  0  0  0  0  0  0  0  0
    1.5931   -1.1450   -0.0005 H   0  0  0  0  0  0  0  0  0  0  0  0
    0.6602    0.9437   -0.3514 H   0  0  0  0  0  0  0  0  0  0  0  0
   -0.8141    0.9021   -2.4133 H   0  0  0  0  0  0  0  0  0  0  0  0
   -0.8385   -0.8602   -2.3119 H   0  0  0  0  0  0  0  0  0  0  0  0
    1.6548    0.9222   -2.5660 H   0  0  0  0  0  0  0  0  0  0  0  0
    1.7019   -0.8396   -2.4326 H   0  0  0  0  0  0  0  0  0  0  0  0
   -2.3569    1.2202   -0.2942 N   0  0  0  0  0  0  0  0  0  0  0  0
   -3.5912    1.5677    0.4221 C   0  0  2  0  0  0  0  0  0  0  0  0
   -4.8370    1.4902   -0.4826 C   0  0  0  0  0  0  0  0  0  0  0  0
   -4.7525    1.7188   -1.6831 O   0  0  0  0  0  0  0  0  0  0  0  0
   -3.4374    2.9792    0.9937 C   0  0  0  0  0  0  0  0  0  0  0  0
   -2.3861    1.2563   -1.3135 H   0  0  0  0  0  0  0  0  0  0  0  0
   -3.7477    0.8625    1.2451 H   0  0  0  0  0  0  0  0  0  0  0  0
   -3.2806    3.7022    0.1868 H   0  0  0  0  0  0  0  0  0  0  0  0
   -4.3338    3.2659    1.5514 H   0  0  0  0  0  0  0  0  0  0  0  0
   -2.5793    3.0208    1.6718 H   0  0  0  0  0  0  0  0  0  0  0  0
   -6.0728    1.1895    0.0627 N   0  0  0  0  0  0  0  0  0  0  0  0
   -7.2785    1.0323   -0.7401 C   0  0  0  0  0  0  0  0  0  0  0  0
   -6.0946    0.9214    1.0420 H   0  0  0  0  0  0  0  0  0  0  0  0
   -7.4761    1.9416   -1.3177 H   0  0  0  0  0  0  0  0  0  0  0  0
   -7.1691    0.1912   -1.4328 H   0  0  0  0  0  0  0  0  0  0  0  0
   -8.1402    0.8414   -0.0937 H   0  0  0  0  0  0  0  0  0  0  0  0
  1  2  2  0  0  0  0
  1  3  1  0  0  0  0
  1  7  1  0  0  0  0
  3  4  1  0  0  0  0
  3  5  1  0  0  0  0
  3  6  1  0  0  0  0
  7  8  1  0  0  0  0
  7 12  1  0  0  0  0
  8  9  1  0  0  0  0
  8 11  1  0  0  0  0
  8 13  1  0  0  0  0
  9 10  2  0  0  0  0
  9 17  1  0  0  0  0
 11 14  1  0  0  0  0
 11 15  1  0  0  0  0
 11 16  1  0  0  0  0
 17 18  1  0  0  0  0
 17 26  1  0  0  0  0
 18 19  1  0  0  0  0
 18 21  1  0  0  0  0
 18 27  1  0  0  0  0
 19 20  2  0  0  0  0
 19 32  1  0  0  0  0
 21 22  1  0  0  0  0
 21 28  1  0  0  0  0
 21 29  1  0  0  0  0
 22 23  1  0  0  0  0
 22 30  1  0  0  0  0
 22 31  1  0  0  0  0
 23 24  1  0  0  0  0
 23 25  2  0  0  0  0
 32 33  1  0  0  0  0
 32 37  1  0  0  0  0
 33 34  1  0  0  0  0
 33 36  1  0  0  0  0
 33 38  1  0  0  0  0
 34 35  2  0  0  0  0
 34 42  1  0  0  0  0
 36 39  1  0  0  0  0
 36 40  1  0  0  0  0
 36 41  1  0  0  0  0
 42 43  1  0  0  0  0
 42 44  1  0  0  0  0
 43 45  1  0  0  0  0
 43 46  1  0  0  0  0
 43 47  1  0  0  0  0
M  CHG  1  24  -1
M  END
$$$$

  -OEChem-05262216243D

 47 46  0     1  0  0  0  0  0999 V2000
    0.1213   -5.7789    1.3541 C   0  0  0  0  0  0  0  0  0  0  0  0
    1.1917   -5.8511    1.9390 O   0  0  0  0  0  0  0  0  0  0  0  0
   -0.9524   -6.8211    1.6074 C   0  0  0  0  0  0  0  0  0  0  0  0
   -1.1836   -7.3493    0.6790 H   0  0  0  0  0  0  0  0  0  0  0  0
   -0.6081   -7.5460    2.3504 H   0  0  0  0  0  0  0  0  0  0  0  0
   -1.8599   -6.3386    1.9789 H   0  0  0  0  0  0  0  0  0  0  0  0
   -0.1265   -4.7549    0.4670 N   0  0  0  0  0  0  0  0  0  0  0  0
    0.7463   -3.5921    0.2653 C   0  0  2  0  0  0  0  0  0  0  0  0
   -0.0799   -2.3135    0.0079 C   0  0  0  0  0  0  0  0  0  0  0  0
   -1.2922   -2.4014   -0.1717 O   0  0  0  0  0  0  0  0  0  0  0  0
    1.6682   -3.8858   -0.9229 C   0  0  0  0  0  0  0  0  0  0  0  0
   -1.0816   -4.6573    0.1232 H   0  0  0  0  0  0  0  0  0  0  0  0
    1.3513   -3.4175    1.1612 H   0  0  0  0  0  0  0  0  0  0  0  0
    1.0818   -4.0288   -1.8369 H   0  0  0  0  0  0  0  0  0  0  0  0
    2.3655   -3.0586   -1.0861 H   0  0  0  0  0  0  0  0  0  0  0  0
    2.2499   -4.7936   -0.7360 H   0  0  0  0  0  0  0  0  0  0  0  0
    0.5518   -1.0824   -0.0355 N   0  0  0  0  0  0  0  0  0  0  0  0
   -0.0667    0.1517   -0.5540 C   0  0  2  0  0  0  0  0  0  0  0  0
   -1.3473    0.5563    0.2193 C   0  0  0  0  0  0  0  0  0  0  0  0
   -1.3021    0.6595    1.4425 O   0  0  0  0  0  0  0  0  0  0  0  0
   -0.2552    0.0282   -2.0809 C   0  0  0  0  0  0  0  0  0  0  0  0
    1.1114   -0.0090   -2.7886 C   0  0  0  0  0  0  0  0  0  0  0  0
    0.9484   -0.1556   -4.2991 C   0  0  0  0  0  0  0  0  0  0  0  0
    0.4727    0.8220   -4.9265 O   0  5  0  0  0  0  0  0  0  0  0  0
    1.3109   -1.2388   -4.8199 O   0  0  0  0  0  0  0  0  0  0  0  0
    1.5649   -1.1056    0.0075 H   0  0  0  0  0  0  0  0  0  0  0  0
    0.6305    0.9769   -0.3819 H   0  0  0  0  0  0  0  0  0  0  0  0
   -0.8090    0.8931   -2.4613 H   0  0  0  0  0  0  0  0  0  0  0  0
   -0.8319   -0.8691   -2.3302 H   0  0  0  0  0  0  0  0  0  0  0  0
    1.6607    0.9139   -2.5809 H   0  0  0  0  0  0  0  0  0  0  0  0
    1.7085   -0.8455   -2.4150 H   0  0  0  0  0  0  0  0  0  0  0  0
   -2.5035    0.9592   -0.4265 N   0  0  0  0  0  0  0  0  0  0  0  0
   -3.7675    1.2436    0.2637 C   0  0  2  0  0  0  0  0  0  0  0  0
   -4.9909    0.7425   -0.5292 C   0  0  0  0  0  0  0  0  0  0  0  0
   -4.9907    0.7575   -1.7542 O   0  0  0  0  0  0  0  0  0  0  0  0
   -3.8630    2.7540    0.4901 C   0  0  0  0  0  0  0  0  0  0  0  0
   -2.5557    0.7683   -1.4274 H   0  0  0  0  0  0  0  0  0  0  0  0
   -3.7813    0.7344    1.2328 H   0  0  0  0  0  0  0  0  0  0  0  0
   -3.8530    3.2847   -0.4674 H   0  0  0  0  0  0  0  0  0  0  0  0
   -4.7876    3.0034    1.0190 H   0  0  0  0  0  0  0  0  0  0  0  0
   -3.0158    3.1008    1.0901 H   0  0  0  0  0  0  0  0  0  0  0  0
   -6.1210    0.3082    0.1405 N   0  0  0  0  0  0  0  0  0  0  0  0
   -7.2900   -0.2304   -0.5418 C   0  0  0  0  0  0  0  0  0  0  0  0
   -6.0598    0.2290    1.1509 H   0  0  0  0  0  0  0  0  0  0  0  0
   -7.6991    0.5073   -1.2402 H   0  0  0  0  0  0  0  0  0  0  0  0
   -7.0244   -1.1345   -1.0995 H   0  0  0  0  0  0  0  0  0  0  0  0
   -8.0671   -0.4859    0.1845 H   0  0  0  0  0  0  0  0  0  0  0  0
  1  2  2  0  0  0  0
  1  3  1  0  0  0  0
  1  7  1  0  0  0  0
  3  4  1  0  0  0  0
  3  5  1  0  0  0  0
  3  6  1  0  0  0  0
  7  8  1  0  0  0  0
  7 12  1  0  0  0  0
  8  9  1  0  0  0  0
  8 11  1  0  0  0  0
  8 13  1  0  0  0  0
  9 10  2  0  0  0  0
  9 17  1  0  0  0  0
 11 14  1  0  0  0  0
 11 15  1  0  0  0  0
 11 16  1  0  0  0  0
 17 18  1  0  0  0  0
 17 26  1  0  0  0  0
 18 19  1  0  0  0  0
 18 21  1  0  0  0  0
 18 27  1  0  0  0  0
 19 20  2  0  0  0  0
 19 32  1  0  0  0  0
 21 22  1  0  0  0  0
 21 28  1  0  0  0  0
 21 29  1  0  0  0  0
 22 23  1  0  0  0  0
 22 30  1  0  0  0  0
 22 31  1  0  0  0  0
 23 24  1  0  0  0  0
 23 25  2  0  0  0  0
 32 33  1  0  0  0  0
 32 37  1  0  0  0  0
 33 34  1  0  0  0  0
 33 36  1  0  0  0  0
 33 38  1  0  0  0  0
 34 35  2  0  0  0  0
 34 42  1  0  0  0  0
 36 39  1  0  0  0  0
 36 40  1  0  0  0  0
 36 41  1  0  0  0  0
 42 43  1  0  0  0  0
 42 44  1  0  0  0  0
 43 45  1  0  0  0  0
 43 46  1  0  0  0  0
 43 47  1  0  0  0  0
M  CHG  1  24  -1
M  END
$$$$

  -OEChem-05262216243D

 47 46  0     1  0  0  0  0  0999 V2000
    0.1499   -5.7650    1.3551 C   0  0  0  0  0  0  0  0  0  0  0  0
    1.2151   -5.8112    1.9519 O   0  0  0  0  0  0  0  0  0  0  0  0
   -0.9079   -6.8222    1.6123 C   0  0  0  0  0  0  0  0  0  0  0  0
   -1.1056   -7.3808    0.6941 H   0  0  0  0  0  0  0  0  0  0  0  0
   -0.5670   -7.5184    2.3834 H   0  0  0  0  0  0  0  0  0  0  0  0
   -1.8334   -6.3494    1.9494 H   0  0  0  0  0  0  0  0  0  0  0  0
   -0.1050   -4.7570    0.4515 N   0  0  0  0  0  0  0  0  0  0  0  0
    0.7515   -3.5831    0.2435 C   0  0  2  0  0  0  0  0  0  0  0  0
   -0.0918   -2.3145   -0.0037 C   0  0  0  0  0  0  0  0  0  0  0  0
   -1.3017   -2.4177   -0.1889 O   0  0  0  0  0  0  0  0  0  0  0  0
    1.6626   -3.8626   -0.9558 C   0  0  0  0  0  0  0  0  0  0  0  0
   -1.0573   -4.6801    0.0945 H   0  0  0  0  0  0  0  0  0  0  0  0
    1.3647   -3.4021    1.1326 H   0  0  0  0  0  0  0  0  0  0  0  0
    1.0666   -4.0130   -1.8625 H   0  0  0  0  0  0  0  0  0  0  0  0
    2.3450   -3.0245   -1.1265 H   0  0  0  0  0  0  0  0  0  0  0  0
    2.2600   -4.7619   -0.7768 H   0  0  0  0  0  0  0  0  0  0  0  0
    0.5209   -1.0735   -0.0276 N   0  0  0  0  0  0  0  0  0  0  0  0
   -0.1041    0.1486   -0.5656 C   0  0  2  0  0  0  0  0  0  0  0  0
   -1.4137    0.5281    0.1683 C   0  0  0  0  0  0  0  0  0  0  0  0
   -1.3653    0.8400    1.3553 O   0  0  0  0  0  0  0  0  0  0  0  0
   -0.2503    0.0226   -2.0965 C   0  0  0  0  0  0  0  0  0  0  0  0
    1.1338    0.0085   -2.7704 C   0  0  0  0  0  0  0  0  0  0  0  0
    1.0115   -0.1405   -4.2846 C   0  0  0  0  0  0  0  0  0  0  0  0
    0.5077    0.8159   -4.9227 O   0  5  0  0  0  0  0  0  0  0  0  0
    1.4324   -1.2064   -4.7972 O   0  0  0  0  0  0  0  0  0  0  0  0
    1.5345   -1.0852    0.0167 H   0  0  0  0  0  0  0  0  0  0  0  0
    0.5733    0.9863   -0.3751 H   0  0  0  0  0  0  0  0  0  0  0  0
   -0.8123    0.8787   -2.4863 H   0  0  0  0  0  0  0  0  0  0  0  0
   -0.8040   -0.8846   -2.3610 H   0  0  0  0  0  0  0  0  0  0  0  0
    1.6618    0.9407   -2.5499 H   0  0  0  0  0  0  0  0  0  0  0  0
    1.7358   -0.8175   -2.3816 H   0  0  0  0  0  0  0  0  0  0  0  0
   -2.6281    0.6125   -0.4896 N   0  0  0  0  0  0  0  0  0  0  0  0
   -3.9121    0.8091    0.1924 C   0  0  2  0  0  0  0  0  0  0  0  0
   -5.0457   -0.0213   -0.4427 C   0  0  0  0  0  0  0  0  0  0  0  0
   -5.0667   -0.2371   -1.6487 O   0  0  0  0  0  0  0  0  0  0  0  0
   -4.2539    2.3000    0.1494 C   0  0  0  0  0  0  0  0  0  0  0  0
   -2.6606    0.2063   -1.4251 H   0  0  0  0  0  0  0  0  0  0  0  0
   -3.8273    0.4912    1.2365 H   0  0  0  0  0  0  0  0  0  0  0  0
   -4.3248    2.6452   -0.8873 H   0  0  0  0  0  0  0  0  0  0  0  0
   -5.2097    2.4882    0.6473 H   0  0  0  0  0  0  0  0  0  0  0  0
   -3.4774    2.8796    0.6584 H   0  0  0  0  0  0  0  0  0  0  0  0
   -6.0812   -0.4935    0.3447 N   0  0  0  0  0  0  0  0  0  0  0  0
   -7.1627   -1.3203   -0.1744 C   0  0  0  0  0  0  0  0  0  0  0  0
   -5.9988   -0.3611    1.3480 H   0  0  0  0  0  0  0  0  0  0  0  0
   -7.7212   -0.7788   -0.9452 H   0  0  0  0  0  0  0  0  0  0  0  0
   -6.7639   -2.2429   -0.6092 H   0  0  0  0  0  0  0  0  0  0  0  0
   -7.8538   -1.5869    0.6306 H   0  0  0  0  0  0  0  0  0  0  0  0
  1  2  2  0  0  0  0
  1  3  1  0  0  0  0
  1  7  1  0  0  0  0
  3  4  1  0  0  0  0
  3  5  1  0  0  0  0
  3  6  1  0  0  0  0
  7  8  1  0  0  0  0
  7 12  1  0  0  0  0
  8  9  1  0  0  0  0
  8 11  1  0  0  0  0
  8 13  1  0  0  0  0
  9 10  2  0  0  0  0
  9 17  1  0  0  0  0
 11 14  1  0  0  0  0
 11 15  1  0  0  0  0
 11 16  1  0  0  0  0
 17 18  1  0  0  0  0
 17 26  1  0  0  0  0
 18 19  1  0  0  0  0
 18 21  1  0  0  0  0
 18 27  1  0  0  0  0
 19 20  2  0  0  0  0
 19 32  1  0  0  0  0
 21 22  1  0  0  0  0
 21 28  1  0  0  0  0
 21 29  1  0  0  0  0
 22 23  1  0  0  0  0
 22 30  1  0  0  0  0
 22 31  1  0  0  0  0
 23 24  1  0  0  0  0
 23 25  2  0  0  0  0
 32 33  1  0  0  0  0
 32 37  1  0  0  0  0
 33 34  1  0  0  0  0
 33 36  1  0  0  0  0
 33 38  1  0  0  0  0
 34 35  2  0  0  0  0
 34 42  1  0  0  0  0
 36 39  1  0  0  0  0
 36 40  1  0  0  0  0
 36 41  1  0  0  0  0
 42 43  1  0  0  0  0
 42 44  1  0  0  0  0
 43 45  1  0  0  0  0
 43 46  1  0  0  0  0
 43 47  1  0  0  0  0
M  CHG  1  24  -1
M  END
$$$$

  -OEChem-05262216243D

 47 46  0     1  0  0  0  0  0999 V2000
   -0.6110   -5.7714    1.1085 C   0  0  0  0  0  0  0  0  0  0  0  0
    0.1777   -5.8635    2.0365 O   0  0  0  0  0  0  0  0  0  0  0  0
   -1.6698   -6.8388    0.9032 C   0  0  0  0  0  0  0  0  0  0  0  0
   -1.5311   -7.3179   -0.0691 H   0  0  0  0  0  0  0  0  0  0  0  0
   -1.5969   -7.5991    1.6857 H   0  0  0  0  0  0  0  0  0  0  0  0
   -2.6649   -6.3888    0.9406 H   0  0  0  0  0  0  0  0  0  0  0  0
   -0.5557   -4.6984    0.2462 N   0  0  0  0  0  0  0  0  0  0  0  0
    0.2863   -3.5113    0.4443 C   0  0  2  0  0  0  0  0  0  0  0  0
   -0.4643   -2.2187    0.0597 C   0  0  0  0  0  0  0  0  0  0  0  0
   -1.5929   -2.2896   -0.4231 O   0  0  0  0  0  0  0  0  0  0  0  0
    1.5508   -3.6793   -0.4045 C   0  0  0  0  0  0  0  0  0  0  0  0
   -1.3244   -4.5982   -0.4153 H   0  0  0  0  0  0  0  0  0  0  0  0
    0.5684   -3.4214    1.4986 H   0  0  0  0  0  0  0  0  0  0  0  0
    1.2951   -3.7313   -1.4684 H   0  0  0  0  0  0  0  0  0  0  0  0
    2.2334   -2.8376   -0.2540 H   0  0  0  0  0  0  0  0  0  0  0  0
    2.0736   -4.5996   -0.1254 H   0  0  0  0  0  0  0  0  0  0  0  0
    0.1346   -0.9844    0.2423 N   0  0  0  0  0  0  0  0  0  0  0  0
   -0.3575    0.2794   -0.3369 C   0  0  2  0  0  0  0  0  0  0  0  0
   -1.7916    0.6349    0.1217 C   0  0  0  0  0  0  0  0  0  0  0  0
   -1.9750    1.0588    1.2562 O   0  0  0  0  0  0  0  0  0  0  0  0
   -0.2099    0.2347   -1.8717 C   0  0  0  0  0  0  0  0  0  0  0  0
    1.2702    0.2195   -2.2872 C   0  0  0  0  0  0  0  0  0  0  0  0
    1.4006    0.1493   -3.8068 C   0  0  0  0  0  0  0  0  0  0  0  0
    0.9725    1.1235   -4.4726 O   0  5  0  0  0  0  0  0  0  0  0  0
    1.9007   -0.8930   -4.2955 O   0  0  0  0  0  0  0  0  0  0  0  0
    1.1023   -1.0034    0.5486 H   0  0  0  0  0  0  0  0  0  0  0  0
    0.2738    1.0943    0.0308 H   0  0  0  0  0  0  0  0  0  0  0  0
   -0.6815    1.1224   -2.3084 H   0  0  0  0  0  0  0  0  0  0  0  0
   -0.7142   -0.6435   -2.2878 H   0  0  0  0  0  0  0  0  0  0  0  0
    1.7655    1.1271   -1.9309 H   0  0  0  0  0  0  0  0  0  0  0  0
    1.7814   -0.6393   -1.8431 H   0  0  0  0  0  0  0  0  0  0  0  0
   -2.8777    0.4812   -0.7209 N   0  0  0  0  0  0  0  0  0  0  0  0
   -4.2726    0.7226   -0.3213 C   0  0  2  0  0  0  0  0  0  0  0  0
   -4.9477   -0.4822    0.3767 C   0  0  0  0  0  0  0  0  0  0  0  0
   -6.1092   -0.3954    0.7628 O   0  0  0  0  0  0  0  0  0  0  0  0
   -5.0356    1.1158   -1.5892 C   0  0  0  0  0  0  0  0  0  0  0  0
   -2.6989   -0.0319   -1.5813 H   0  0  0  0  0  0  0  0  0  0  0  0
   -4.3117    1.5649    0.3775 H   0  0  0  0  0  0  0  0  0  0  0  0
   -5.0464    0.2867   -2.3038 H   0  0  0  0  0  0  0  0  0  0  0  0
   -6.0699    1.3776   -1.3450 H   0  0  0  0  0  0  0  0  0  0  0  0
   -4.5635    1.9818   -2.0637 H   0  0  0  0  0  0  0  0  0  0  0  0
   -4.2954   -1.6955    0.4998 N   0  0  0  0  0  0  0  0  0  0  0  0
   -4.8664   -2.8644    1.1503 C   0  0  0  0  0  0  0  0  0  0  0  0
   -3.3236   -1.7353    0.1791 H   0  0  0  0  0  0  0  0  0  0  0  0
   -5.1071   -2.6411    2.1947 H   0  0  0  0  0  0  0  0  0  0  0  0
   -5.7789   -3.1814    0.6356 H   0  0  0  0  0  0  0  0  0  0  0  0
   -4.1505   -3.6914    1.1279 H   0  0  0  0  0  0  0  0  0  0  0  0
  1  2  2  0  0  0  0
  1  3  1  0  0  0  0
  1  7  1  0  0  0  0
  3  4  1  0  0  0  0
  3  5  1  0  0  0  0
  3  6  1  0  0  0  0
  7  8  1  0  0  0  0
  7 12  1  0  0  0  0
  8  9  1  0  0  0  0
  8 11  1  0  0  0  0
  8 13  1  0  0  0  0
  9 10  2  0  0  0  0
  9 17  1  0  0  0  0
 11 14  1  0  0  0  0
 11 15  1  0  0  0  0
 11 16  1  0  0  0  0
 17 18  1  0  0  0  0
 17 26  1  0  0  0  0
 18 19  1  0  0  0  0
 18 21  1  0  0  0  0
 18 27  1  0  0  0  0
 19 20  2  0  0  0  0
 19 32  1  0  0  0  0
 21 22  1  0  0  0  0
 21 28  1  0  0  0  0
 21 29  1  0  0  0  0
 22 23  1  0  0  0  0
 22 30  1  0  0  0  0
 22 31  1  0  0  0  0
 23 24  1  0  0  0  0
 23 25  2  0  0  0  0
 32 33  1  0  0  0  0
 32 37  1  0  0  0  0
 33 34  1  0  0  0  0
 33 36  1  0  0  0  0
 33 38  1  0  0  0  0
 34 35  2  0  0  0  0
 34 42  1  0  0  0  0
 36 39  1  0  0  0  0
 36 40  1  0  0  0  0
 36 41  1  0  0  0  0
 42 43  1  0  0  0  0
 42 44  1  0  0  0  0
 43 45  1  0  0  0  0
 43 46  1  0  0  0  0
 43 47  1  0  0  0  0
M  CHG  1  24  -1
M  END
$$$$

  -OEChem-05262216243D

 47 46  0     1  0  0  0  0  0999 V2000
   -0.2981   -6.0555    0.7632 C   0  0  0  0  0  0  0  0  0  0  0  0
    0.4861   -6.1306    1.6972 O   0  0  0  0  0  0  0  0  0  0  0  0
   -1.2336   -7.2121    0.4628 C   0  0  0  0  0  0  0  0  0  0  0  0
   -1.0431   -7.5932   -0.5437 H   0  0  0  0  0  0  0  0  0  0  0  0
   -1.0782   -8.0210    1.1822 H   0  0  0  0  0  0  0  0  0  0  0  0
   -2.2721   -6.8780    0.5275 H   0  0  0  0  0  0  0  0  0  0  0  0
   -0.3484   -4.9212   -0.0172 N   0  0  0  0  0  0  0  0  0  0  0  0
    0.3782   -3.6774    0.2674 C   0  0  2  0  0  0  0  0  0  0  0  0
   -0.4612   -2.4379   -0.1060 C   0  0  0  0  0  0  0  0  0  0  0  0
   -1.5124   -2.5783   -0.7260 O   0  0  0  0  0  0  0  0  0  0  0  0
    1.6896   -3.6952   -0.5248 C   0  0  0  0  0  0  0  0  0  0  0  0
   -1.1138   -4.8514   -0.6875 H   0  0  0  0  0  0  0  0  0  0  0  0
    0.6011   -3.6106    1.3375 H   0  0  0  0  0  0  0  0  0  0  0  0
    1.4868   -3.7237   -1.6007 H   0  0  0  0  0  0  0  0  0  0  0  0
    2.2847   -2.8026   -0.3101 H   0  0  0  0  0  0  0  0  0  0  0  0
    2.2822   -4.5756   -0.2576 H   0  0  0  0  0  0  0  0  0  0  0  0
   -0.0114   -1.1728    0.2335 N   0  0  0  0  0  0  0  0  0  0  0  0
   -0.5618    0.0885   -0.2977 C   0  0  2  0  0  0  0  0  0  0  0  0
   -2.0622    0.2883    0.0175 C   0  0  0  0  0  0  0  0  0  0  0  0
   -2.3952    0.8461    1.0591 O   0  0  0  0  0  0  0  0  0  0  0  0
   -0.2534    0.1981   -1.8039 C   0  0  0  0  0  0  0  0  0  0  0  0
    1.2588    0.3534   -2.0406 C   0  0  0  0  0  0  0  0  0  0  0  0
    1.5726    0.4372   -3.5324 C   0  0  0  0  0  0  0  0  0  0  0  0
    1.1547    1.4414   -4.1589 O   0  5  0  0  0  0  0  0  0  0  0  0
    2.2225   -0.5093   -4.0398 O   0  0  0  0  0  0  0  0  0  0  0  0
    0.9281   -1.1335    0.6167 H   0  0  0  0  0  0  0  0  0  0  0  0
   -0.0490    0.9172    0.2008 H   0  0  0  0  0  0  0  0  0  0  0  0
   -0.7650    1.0747   -2.2175 H   0  0  0  0  0  0  0  0  0  0  0  0
   -0.6214   -0.6799   -2.3447 H   0  0  0  0  0  0  0  0  0  0  0  0
    1.6197    1.2624   -1.5513 H   0  0  0  0  0  0  0  0  0  0  0  0
    1.7986   -0.4954   -1.6110 H   0  0  0  0  0  0  0  0  0  0  0  0
   -3.0444   -0.1685   -0.8406 N   0  0  0  0  0  0  0  0  0  0  0  0
   -4.4863   -0.0925   -0.5612 C   0  0  2  0  0  0  0  0  0  0  0  0
   -4.9629   -1.1445    0.4736 C   0  0  0  0  0  0  0  0  0  0  0  0
   -5.9107   -1.8931    0.2538 O   0  0  0  0  0  0  0  0  0  0  0  0
   -5.2081   -0.2149   -1.9085 C   0  0  0  0  0  0  0  0  0  0  0  0
   -2.7230   -0.9160   -1.4589 H   0  0  0  0  0  0  0  0  0  0  0  0
   -4.7192    0.8929   -0.1450 H   0  0  0  0  0  0  0  0  0  0  0  0
   -5.0235   -1.1975   -2.3547 H   0  0  0  0  0  0  0  0  0  0  0  0
   -6.2872   -0.0902   -1.7752 H   0  0  0  0  0  0  0  0  0  0  0  0
   -4.8547    0.5554   -2.6010 H   0  0  0  0  0  0  0  0  0  0  0  0
   -4.3412   -1.2050    1.7055 N   0  0  0  0  0  0  0  0  0  0  0  0
   -4.6646   -2.1712    2.7435 C   0  0  0  0  0  0  0  0  0  0  0  0
   -3.5618   -0.5559    1.8427 H   0  0  0  0  0  0  0  0  0  0  0  0
   -5.7046   -2.0537    3.0643 H   0  0  0  0  0  0  0  0  0  0  0  0
   -4.5197   -3.1913    2.3735 H   0  0  0  0  0  0  0  0  0  0  0  0
   -4.0148   -2.0215    3.6107 H   0  0  0  0  0  0  0  0  0  0  0  0
  1  2  2  0  0  0  0
  1  3  1  0  0  0  0
  1  7  1  0  0  0  0
  3  4  1  0  0  0  0
  3  5  1  0  0  0  0
  3  6  1  0  0  0  0
  7  8  1  0  0  0  0
  7 12  1  0  0  0  0
  8  9  1  0  0  0  0
  8 11  1  0  0  0  0
  8 13  1  0  0  0  0
  9 10  2  0  0  0  0
  9 17  1  0  0  0  0
 11 14  1  0  0  0  0
 11 15  1  0  0  0  0
 11 16  1  0  0  0  0
 17 18  1  0  0  0  0
 17 26  1  0  0  0  0
 18 19  1  0  0  0  0
 18 21  1  0  0  0  0
 18 27  1  0  0  0  0
 19 20  2  0  0  0  0
 19 32  1  0  0  0  0
 21 22  1  0  0  0  0
 21 28  1  0  0  0  0
 21 29  1  0  0  0  0
 22 23  1  0  0  0  0
 22 30  1  0  0  0  0
 22 31  1  0  0  0  0
 23 24  1  0  0  0  0
 23 25  2  0  0  0  0
 32 33  1  0  0  0  0
 32 37  1  0  0  0  0
 33 34  1  0  0  0  0
 33 36  1  0  0  0  0
 33 38  1  0  0  0  0
 34 35  2  0  0  0  0
 34 42  1  0  0  0  0
 36 39  1  0  0  0  0
 36 40  1  0  0  0  0
 36 41  1  0  0  0  0
 42 43  1  0  0  0  0
 42 44  1  0  0  0  0
 43 45  1  0  0  0  0
 43 46  1  0  0  0  0
 43 47  1  0  0  0  0
M  CHG  1  24  -1
M  END
$$$$

  -OEChem-05262216243D

 47 46  0     1  0  0  0  0  0999 V2000
    0.0211   -6.1385    0.7768 C   0  0  0  0  0  0  0  0  0  0  0  0
    0.7724   -6.1257    1.7402 O   0  0  0  0  0  0  0  0  0  0  0  0
   -0.8798   -7.3356    0.5349 C   0  0  0  0  0  0  0  0  0  0  0  0
   -0.6705   -7.7664   -0.4473 H   0  0  0  0  0  0  0  0  0  0  0  0
   -0.7082   -8.0990    1.2991 H   0  0  0  0  0  0  0  0  0  0  0  0
   -1.9277   -7.0275    0.5735 H   0  0  0  0  0  0  0  0  0  0  0  0
   -0.0206   -5.0716   -0.0944 N   0  0  0  0  0  0  0  0  0  0  0  0
    0.6375   -3.7793    0.1392 C   0  0  2  0  0  0  0  0  0  0  0  0
   -0.3103   -2.6024   -0.1720 C   0  0  0  0  0  0  0  0  0  0  0  0
   -1.3417   -2.8093   -0.8056 O   0  0  0  0  0  0  0  0  0  0  0  0
    1.8822   -3.7110   -0.7504 C   0  0  0  0  0  0  0  0  0  0  0  0
   -0.7769   -5.0690   -0.7781 H   0  0  0  0  0  0  0  0  0  0  0  0
    0.9385   -3.6896    1.1882 H   0  0  0  0  0  0  0  0  0  0  0  0
    1.6014   -3.7637   -1.8077 H   0  0  0  0  0  0  0  0  0  0  0  0
    2.4251   -2.7754   -0.5849 H   0  0  0  0  0  0  0  0  0  0  0  0
    2.5551   -4.5442   -0.5256 H   0  0  0  0  0  0  0  0  0  0  0  0
    0.0273   -1.3228    0.2380 N   0  0  0  0  0  0  0  0  0  0  0  0
   -0.6177   -0.0671   -0.1995 C   0  0  2  0  0  0  0  0  0  0  0  0
   -2.1283    0.0390    0.1174 C   0  0  0  0  0  0  0  0  0  0  0  0
   -2.5053    0.7253    1.0625 O   0  0  0  0  0  0  0  0  0  0  0  0
   -0.3384    0.1550   -1.6985 C   0  0  0  0  0  0  0  0  0  0  0  0
    1.1564    0.4260   -1.9423 C   0  0  0  0  0  0  0  0  0  0  0  0
    1.4426    0.6214   -3.4290 C   0  0  0  0  0  0  0  0  0  0  0  0
    0.9771    1.6473   -3.9824 O   0  5  0  0  0  0  0  0  0  0  0  0
    2.1223   -0.2626   -4.0057 O   0  0  0  0  0  0  0  0  0  0  0  0
    0.9575   -1.2326    0.6356 H   0  0  0  0  0  0  0  0  0  0  0  0
   -0.1491    0.7576    0.3472 H   0  0  0  0  0  0  0  0  0  0  0  0
   -0.9123    1.0196   -2.0514 H   0  0  0  0  0  0  0  0  0  0  0  0
   -0.6577   -0.7105   -2.2884 H   0  0  0  0  0  0  0  0  0  0  0  0
    1.4619    1.3270   -1.4028 H   0  0  0  0  0  0  0  0  0  0  0  0
    1.7586   -0.4078   -1.5711 H   0  0  0  0  0  0  0  0  0  0  0  0
   -3.0717   -0.6617   -0.6074 N   0  0  0  0  0  0  0  0  0  0  0  0
   -4.5144   -0.6660   -0.3270 C   0  0  2  0  0  0  0  0  0  0  0  0
   -4.8982   -1.5466    0.8897 C   0  0  0  0  0  0  0  0  0  0  0  0
   -5.7854   -2.3926    0.8282 O   0  0  0  0  0  0  0  0  0  0  0  0
   -5.2138   -1.1004   -1.6202 C   0  0  0  0  0  0  0  0  0  0  0  0
   -2.6829   -1.4471   -1.1383 H   0  0  0  0  0  0  0  0  0  0  0  0
   -4.8374    0.3545   -0.0979 H   0  0  0  0  0  0  0  0  0  0  0  0
   -4.9333   -2.1258   -1.8820 H   0  0  0  0  0  0  0  0  0  0  0  0
   -6.3004   -1.0566   -1.4984 H   0  0  0  0  0  0  0  0  0  0  0  0
   -4.9318   -0.4395   -2.4458 H   0  0  0  0  0  0  0  0  0  0  0  0
   -4.2689   -1.3323    2.1005 N   0  0  0  0  0  0  0  0  0  0  0  0
   -4.5713   -2.0560    3.3262 C   0  0  0  0  0  0  0  0  0  0  0  0
   -3.5635   -0.5904    2.1107 H   0  0  0  0  0  0  0  0  0  0  0  0
   -5.6098   -1.8818    3.6259 H   0  0  0  0  0  0  0  0  0  0  0  0
   -4.4185   -3.1309    3.1843 H   0  0  0  0  0  0  0  0  0  0  0  0
   -3.9151   -1.7168    4.1334 H   0  0  0  0  0  0  0  0  0  0  0  0
  1  2  2  0  0  0  0
  1  3  1  0  0  0  0
  1  7  1  0  0  0  0
  3  4  1  0  0  0  0
  3  5  1  0  0  0  0
  3  6  1  0  0  0  0
  7  8  1  0  0  0  0
  7 12  1  0  0  0  0
  8  9  1  0  0  0  0
  8 11  1  0  0  0  0
  8 13  1  0  0  0  0
  9 10  2  0  0  0  0
  9 17  1  0  0  0  0
 11 14  1  0  0  0  0
 11 15  1  0  0  0  0
 11 16  1  0  0  0  0
 17 18  1  0  0  0  0
 17 26  1  0  0  0  0
 18 19  1  0  0  0  0
 18 21  1  0  0  0  0
 18 27  1  0  0  0  0
 19 20  2  0  0  0  0
 19 32  1  0  0  0  0
 21 22  1  0  0  0  0
 21 28  1  0  0  0  0
 21 29  1  0  0  0  0
 22 23  1  0  0  0  0
 22 30  1  0  0  0  0
 22 31  1  0  0  0  0
 23 24  1  0  0  0  0
 23 25  2  0  0  0  0
 32 33  1  0  0  0  0
 32 37  1  0  0  0  0
 33 34  1  0  0  0  0
 33 36  1  0  0  0  0
 33 38  1  0  0  0  0
 34 35  2  0  0  0  0
 34 42  1  0  0  0  0
 36 39  1  0  0  0  0
 36 40  1  0  0  0  0
 36 41  1  0  0  0  0
 42 43  1  0  0  0  0
 42 44  1  0  0  0  0
 43 45  1  0  0  0  0
 43 46  1  0  0  0  0
 43 47  1  0  0  0  0
M  CHG  1  24  -1
M  END
$$$$

  -OEChem-05262216243D

 47 46  0     1  0  0  0  0  0999 V2000
   -0.7275   -5.5971    1.4548 C   0  0  0  0  0  0  0  0  0  0  0  0
    0.2867   -5.6842    2.1323 O   0  0  0  0  0  0  0  0  0  0  0  0
   -1.9342   -6.4551    1.7876 C   0  0  0  0  0  0  0  0  0  0  0  0
   -2.3531   -6.8800    0.8720 H   0  0  0  0  0  0  0  0  0  0  0  0
   -1.6456   -7.2706    2.4558 H   0  0  0  0  0  0  0  0  0  0  0  0
   -2.6997   -5.8493    2.2775 H   0  0  0  0  0  0  0  0  0  0  0  0
   -0.7799   -4.7181    0.3953 N   0  0  0  0  0  0  0  0  0  0  0  0
    0.2923   -3.7794    0.0335 C   0  0  2  0  0  0  0  0  0  0  0  0
   -0.2962   -2.5040   -0.5988 C   0  0  0  0  0  0  0  0  0  0  0  0
   -1.1220   -2.6148   -1.4978 O   0  0  0  0  0  0  0  0  0  0  0  0
    1.2568   -4.4680   -0.9362 C   0  0  0  0  0  0  0  0  0  0  0  0
   -1.7039   -4.5582   -0.0145 H   0  0  0  0  0  0  0  0  0  0  0  0
    0.8445   -3.4859    0.9320 H   0  0  0  0  0  0  0  0  0  0  0  0
    0.7297   -4.7816   -1.8430 H   0  0  0  0  0  0  0  0  0  0  0  0
    2.0625   -3.7846   -1.2217 H   0  0  0  0  0  0  0  0  0  0  0  0
    1.7013   -5.3513   -0.4675 H   0  0  0  0  0  0  0  0  0  0  0  0
   -0.0051   -1.2646   -0.0499 N   0  0  0  0  0  0  0  0  0  0  0  0
   -0.6567    0.0323   -0.3469 C   0  0  2  0  0  0  0  0  0  0  0  0
   -2.1724    0.0397   -0.0367 C   0  0  0  0  0  0  0  0  0  0  0  0
   -2.5635    0.5695    1.0004 O   0  0  0  0  0  0  0  0  0  0  0  0
   -0.3701    0.4884   -1.7894 C   0  0  0  0  0  0  0  0  0  0  0  0
    1.1213    0.8258   -1.9708 C   0  0  0  0  0  0  0  0  0  0  0  0
    1.4349    1.2588   -3.4034 C   0  0  0  0  0  0  0  0  0  0  0  0
    0.7651    2.2065   -3.8846 O   0  5  0  0  0  0  0  0  0  0  0  0
    2.3656    0.6631   -3.9993 O   0  0  0  0  0  0  0  0  0  0  0  0
    0.7074   -1.2618    0.6729 H   0  0  0  0  0  0  0  0  0  0  0  0
   -0.2162    0.7838    0.3163 H   0  0  0  0  0  0  0  0  0  0  0  0
   -0.9634    1.3827   -2.0109 H   0  0  0  0  0  0  0  0  0  0  0  0
   -0.6629   -0.2824   -2.5090 H   0  0  0  0  0  0  0  0  0  0  0  0
    1.3991    1.6376   -1.2928 H   0  0  0  0  0  0  0  0  0  0  0  0
    1.7325   -0.0465   -1.7210 H   0  0  0  0  0  0  0  0  0  0  0  0
   -3.0233   -0.8412   -0.6763 N   0  0  0  0  0  0  0  0  0  0  0  0
   -4.1509   -1.4847    0.0073 C   0  0  2  0  0  0  0  0  0  0  0  0
   -3.6473   -2.4901    1.0740 C   0  0  0  0  0  0  0  0  0  0  0  0
   -3.6516   -3.7046    0.8875 O   0  0  0  0  0  0  0  0  0  0  0  0
   -5.0180   -2.1497   -1.0669 C   0  0  0  0  0  0  0  0  0  0  0  0
   -2.5325   -1.4257   -1.3620 H   0  0  0  0  0  0  0  0  0  0  0  0
   -4.7595   -0.7293    0.5151 H   0  0  0  0  0  0  0  0  0  0  0  0
   -4.4391   -2.8956   -1.6216 H   0  0  0  0  0  0  0  0  0  0  0  0
   -5.8770   -2.6470   -0.6066 H   0  0  0  0  0  0  0  0  0  0  0  0
   -5.3871   -1.4006   -1.7739 H   0  0  0  0  0  0  0  0  0  0  0  0
   -3.1038   -1.9924    2.2430 N   0  0  0  0  0  0  0  0  0  0  0  0
   -2.4081   -2.8029    3.2322 C   0  0  0  0  0  0  0  0  0  0  0  0
   -2.9472   -0.9802    2.2436 H   0  0  0  0  0  0  0  0  0  0  0  0
   -3.0118   -3.6709    3.5160 H   0  0  0  0  0  0  0  0  0  0  0  0
   -1.4490   -3.1498    2.8362 H   0  0  0  0  0  0  0  0  0  0  0  0
   -2.2177   -2.2114    4.1326 H   0  0  0  0  0  0  0  0  0  0  0  0
  1  2  2  0  0  0  0
  1  3  1  0  0  0  0
  1  7  1  0  0  0  0
  3  4  1  0  0  0  0
  3  5  1  0  0  0  0
  3  6  1  0  0  0  0
  7  8  1  0  0  0  0
  7 12  1  0  0  0  0
  8  9  1  0  0  0  0
  8 11  1  0  0  0  0
  8 13  1  0  0  0  0
  9 10  2  0  0  0  0
  9 17  1  0  0  0  0
 11 14  1  0  0  0  0
 11 15  1  0  0  0  0
 11 16  1  0  0  0  0
 17 18  1  0  0  0  0
 17 26  1  0  0  0  0
 18 19  1  0  0  0  0
 18 21  1  0  0  0  0
 18 27  1  0  0  0  0
 19 20  2  0  0  0  0
 19 32  1  0  0  0  0
 21 22  1  0  0  0  0
 21 28  1  0  0  0  0
 21 29  1  0  0  0  0
 22 23  1  0  0  0  0
 22 30  1  0  0  0  0
 22 31  1  0  0  0  0
 23 24  1  0  0  0  0
 23 25  2  0  0  0  0
 32 33  1  0  0  0  0
 32 37  1  0  0  0  0
 33 34  1  0  0  0  0
 33 36  1  0  0  0  0
 33 38  1  0  0  0  0
 34 35  2  0  0  0  0
 34 42  1  0  0  0  0
 36 39  1  0  0  0  0
 36 40  1  0  0  0  0
 36 41  1  0  0  0  0
 42 43  1  0  0  0  0
 42 44  1  0  0  0  0
 43 45  1  0  0  0  0
 43 46  1  0  0  0  0
 43 47  1  0  0  0  0
M  CHG  1  24  -1
M  END
$$$$

  -OEChem-05262216243D

 47 46  0     1  0  0  0  0  0999 V2000
    0.1975   -4.4946    1.6551 C   0  0  0  0  0  0  0  0  0  0  0  0
    1.1953   -3.7919    1.7294 O   0  0  0  0  0  0  0  0  0  0  0  0
   -0.3723   -5.1453    2.9014 C   0  0  0  0  0  0  0  0  0  0  0  0
   -1.4636   -5.1434    2.8647 H   0  0  0  0  0  0  0  0  0  0  0  0
   -0.0264   -6.1797    2.9672 H   0  0  0  0  0  0  0  0  0  0  0  0
   -0.0464   -4.6037    3.7936 H   0  0  0  0  0  0  0  0  0  0  0  0
   -0.3717   -4.7409    0.4250 N   0  0  0  0  0  0  0  0  0  0  0  0
    0.1874   -4.2447   -0.8430 C   0  0  2  0  0  0  0  0  0  0  0  0
   -0.2626   -2.7978   -1.1373 C   0  0  0  0  0  0  0  0  0  0  0  0
   -1.0568   -2.5711   -2.0435 O   0  0  0  0  0  0  0  0  0  0  0  0
   -0.2160   -5.2390   -1.9387 C   0  0  0  0  0  0  0  0  0  0  0  0
   -1.3500   -5.0331    0.4408 H   0  0  0  0  0  0  0  0  0  0  0  0
    1.2817   -4.2361   -0.7935 H   0  0  0  0  0  0  0  0  0  0  0  0
   -1.3057   -5.2918   -2.0303 H   0  0  0  0  0  0  0  0  0  0  0  0
    0.1988   -4.9274   -2.9026 H   0  0  0  0  0  0  0  0  0  0  0  0
    0.1650   -6.2376   -1.7047 H   0  0  0  0  0  0  0  0  0  0  0  0
    0.1273   -1.7959   -0.2631 N   0  0  0  0  0  0  0  0  0  0  0  0
   -0.4213   -0.4233   -0.1433 C   0  0  2  0  0  0  0  0  0  0  0  0
   -1.9281   -0.3833    0.2095 C   0  0  0  0  0  0  0  0  0  0  0  0
   -2.3010    0.1667    1.2430 O   0  0  0  0  0  0  0  0  0  0  0  0
   -0.1343    0.4162   -1.4033 C   0  0  0  0  0  0  0  0  0  0  0  0
    1.3725    0.6923   -1.5614 C   0  0  0  0  0  0  0  0  0  0  0  0
    1.6707    1.5051   -2.8229 C   0  0  0  0  0  0  0  0  0  0  0  0
    1.0616    2.5944   -2.9721 O   0  5  0  0  0  0  0  0  0  0  0  0
    2.5317    1.0523   -3.6174 O   0  0  0  0  0  0  0  0  0  0  0  0
    0.7324   -2.1201    0.4950 H   0  0  0  0  0  0  0  0  0  0  0  0
    0.0955    0.0635    0.6896 H   0  0  0  0  0  0  0  0  0  0  0  0
   -0.6588    1.3748   -1.3227 H   0  0  0  0  0  0  0  0  0  0  0  0
   -0.5122   -0.0849   -2.2995 H   0  0  0  0  0  0  0  0  0  0  0  0
    1.7371    1.2487   -0.6935 H   0  0  0  0  0  0  0  0  0  0  0  0
    1.9198   -0.2538   -1.6094 H   0  0  0  0  0  0  0  0  0  0  0  0
   -2.8266   -1.2086   -0.4374 N   0  0  0  0  0  0  0  0  0  0  0  0
   -3.9756   -1.8222    0.2322 C   0  0  2  0  0  0  0  0  0  0  0  0
   -3.5413   -2.6996    1.4338 C   0  0  0  0  0  0  0  0  0  0  0  0
   -3.2839   -3.8973    1.3147 O   0  0  0  0  0  0  0  0  0  0  0  0
   -4.7417   -2.6284   -0.8212 C   0  0  0  0  0  0  0  0  0  0  0  0
   -2.4131   -1.7254   -1.2198 H   0  0  0  0  0  0  0  0  0  0  0  0
   -4.6374   -1.0353    0.6087 H   0  0  0  0  0  0  0  0  0  0  0  0
   -4.1014   -3.4043   -1.2540 H   0  0  0  0  0  0  0  0  0  0  0  0
   -5.6156   -3.1083   -0.3703 H   0  0  0  0  0  0  0  0  0  0  0  0
   -5.0827   -1.9708   -1.6269 H   0  0  0  0  0  0  0  0  0  0  0  0
   -3.4055   -2.0874    2.6653 N   0  0  0  0  0  0  0  0  0  0  0  0
   -2.8577   -2.7399    3.8443 C   0  0  0  0  0  0  0  0  0  0  0  0
   -3.3146   -1.0691    2.6050 H   0  0  0  0  0  0  0  0  0  0  0  0
   -3.2687   -3.7481    3.9604 H   0  0  0  0  0  0  0  0  0  0  0  0
   -1.7684   -2.8028    3.7683 H   0  0  0  0  0  0  0  0  0  0  0  0
   -3.1108   -2.1646    4.7399 H   0  0  0  0  0  0  0  0  0  0  0  0
  1  2  2  0  0  0  0
  1  3  1  0  0  0  0
  1  7  1  0  0  0  0
  3  4  1  0  0  0  0
  3  5  1  0  0  0  0
  3  6  1  0  0  0  0
  7  8  1  0  0  0  0
  7 12  1  0  0  0  0
  8  9  1  0  0  0  0
  8 11  1  0  0  0  0
  8 13  1  0  0  0  0
  9 10  2  0  0  0  0
  9 17  1  0  0  0  0
 11 14  1  0  0  0  0
 11 15  1  0  0  0  0
 11 16  1  0  0  0  0
 17 18  1  0  0  0  0
 17 26  1  0  0  0  0
 18 19  1  0  0  0  0
 18 21  1  0  0  0  0
 18 27  1  0  0  0  0
 19 20  2  0  0  0  0
 19 32  1  0  0  0  0
 21 22  1  0  0  0  0
 21 28  1  0  0  0  0
 21 29  1  0  0  0  0
 22 23  1  0  0  0  0
 22 30  1  0  0  0  0
 22 31  1  0  0  0  0
 23 24  1  0  0  0  0
 23 25  2  0  0  0  0
 32 33  1  0  0  0  0
 32 37  1  0  0  0  0
 33 34  1  0  0  0  0
 33 36  1  0  0  0  0
 33 38  1  0  0  0  0
 34 35  2  0  0  0  0
 34 42  1  0  0  0  0
 36 39  1  0  0  0  0
 36 40  1  0  0  0  0
 36 41  1  0  0  0  0
 42 43  1  0  0  0  0
 42 44  1  0  0  0  0
 43 45  1  0  0  0  0
 43 46  1  0  0  0  0
 43 47  1  0  0  0  0
M  CHG  1  24  -1
M  END
$$$$

  -OEChem-05262216243D

 47 46  0     1  0  0  0  0  0999 V2000
    0.3968   -4.4942    1.7149 C   0  0  0  0  0  0  0  0  0  0  0  0
    1.3567   -3.7372    1.7153 O   0  0  0  0  0  0  0  0  0  0  0  0
   -0.0386   -5.1728    3.0008 C   0  0  0  0  0  0  0  0  0  0  0  0
   -1.1272   -5.1641    3.0864 H   0  0  0  0  0  0  0  0  0  0  0  0
    0.3060   -6.2095    3.0049 H   0  0  0  0  0  0  0  0  0  0  0  0
    0.3872   -4.6544    3.8641 H   0  0  0  0  0  0  0  0  0  0  0  0
   -0.2548   -4.7642    0.5309 N   0  0  0  0  0  0  0  0  0  0  0  0
    0.1826   -4.2522   -0.7796 C   0  0  2  0  0  0  0  0  0  0  0  0
   -0.3265   -2.8179   -1.0419 C   0  0  0  0  0  0  0  0  0  0  0  0
   -1.1439   -2.6002   -1.9292 O   0  0  0  0  0  0  0  0  0  0  0  0
   -0.2813   -5.2583   -1.8407 C   0  0  0  0  0  0  0  0  0  0  0  0
   -1.2058   -5.1215    0.6200 H   0  0  0  0  0  0  0  0  0  0  0  0
    1.2768   -4.2129   -0.8168 H   0  0  0  0  0  0  0  0  0  0  0  0
   -1.3734   -5.3364   -1.8479 H   0  0  0  0  0  0  0  0  0  0  0  0
    0.0499   -4.9386   -2.8341 H   0  0  0  0  0  0  0  0  0  0  0  0
    0.1397   -6.2474   -1.6378 H   0  0  0  0  0  0  0  0  0  0  0  0
    0.0293   -1.8237   -0.1471 N   0  0  0  0  0  0  0  0  0  0  0  0
   -0.4885   -0.4386   -0.0358 C   0  0  2  0  0  0  0  0  0  0  0  0
   -2.0106   -0.3370    0.2423 C   0  0  0  0  0  0  0  0  0  0  0  0
   -2.3973    0.3440    1.1890 O   0  0  0  0  0  0  0  0  0  0  0  0
   -0.1126    0.3847   -1.2822 C   0  0  0  0  0  0  0  0  0  0  0  0
    1.4090    0.6081   -1.3647 C   0  0  0  0  0  0  0  0  0  0  0  0
    1.7955    1.4043   -2.6120 C   0  0  0  0  0  0  0  0  0  0  0  0
    1.2936    2.5481   -2.7499 O   0  5  0  0  0  0  0  0  0  0  0  0
    2.6097    0.8791   -3.4113 O   0  0  0  0  0  0  0  0  0  0  0  0
    0.6912   -2.1302    0.5704 H   0  0  0  0  0  0  0  0  0  0  0  0
    0.0051    0.0277    0.8225 H   0  0  0  0  0  0  0  0  0  0  0  0
   -0.6062    1.3617   -1.2321 H   0  0  0  0  0  0  0  0  0  0  0  0
   -0.4632   -0.1104   -2.1932 H   0  0  0  0  0  0  0  0  0  0  0  0
    1.7494    1.1548   -0.4807 H   0  0  0  0  0  0  0  0  0  0  0  0
    1.9261   -0.3558   -1.3833 H   0  0  0  0  0  0  0  0  0  0  0  0
   -2.8774   -1.3089   -0.2198 N   0  0  0  0  0  0  0  0  0  0  0  0
   -3.9141   -1.9228    0.6131 C   0  0  2  0  0  0  0  0  0  0  0  0
   -3.2844   -2.6749    1.8111 C   0  0  0  0  0  0  0  0  0  0  0  0
   -3.0580   -3.8837    1.7810 O   0  0  0  0  0  0  0  0  0  0  0  0
   -4.7418   -2.8447   -0.2882 C   0  0  0  0  0  0  0  0  0  0  0  0
   -2.4706   -1.8922   -0.9565 H   0  0  0  0  0  0  0  0  0  0  0  0
   -4.5767   -1.1460    1.0084 H   0  0  0  0  0  0  0  0  0  0  0  0
   -4.1077   -3.6170   -0.7363 H   0  0  0  0  0  0  0  0  0  0  0  0
   -5.5313   -3.3334    0.2907 H   0  0  0  0  0  0  0  0  0  0  0  0
   -5.2073   -2.2677   -1.0933 H   0  0  0  0  0  0  0  0  0  0  0  0
   -2.8931   -1.9305    2.9072 N   0  0  0  0  0  0  0  0  0  0  0  0
   -2.0790   -2.4476    3.9960 C   0  0  0  0  0  0  0  0  0  0  0  0
   -2.8637   -0.9214    2.7312 H   0  0  0  0  0  0  0  0  0  0  0  0
   -2.4554   -3.4161    4.3407 H   0  0  0  0  0  0  0  0  0  0  0  0
   -1.0410   -2.5612    3.6697 H   0  0  0  0  0  0  0  0  0  0  0  0
   -2.1028   -1.7532    4.8412 H   0  0  0  0  0  0  0  0  0  0  0  0
  1  2  2  0  0  0  0
  1  3  1  0  0  0  0
  1  7  1  0  0  0  0
  3  4  1  0  0  0  0
  3  5  1  0  0  0  0
  3  6  1  0  0  0  0
  7  8  1  0  0  0  0
  7 12  1  0  0  0  0
  8  9  1  0  0  0  0
  8 11  1  0  0  0  0
  8 13  1  0  0  0  0
  9 10  2  0  0  0  0
  9 17  1  0  0  0  0
 11 14  1  0  0  0  0
 11 15  1  0  0  0  0
 11 16  1  0  0  0  0
 17 18  1  0  0  0  0
 17 26  1  0  0  0  0
 18 19  1  0  0  0  0
 18 21  1  0  0  0  0
 18 27  1  0  0  0  0
 19 20  2  0  0  0  0
 19 32  1  0  0  0  0
 21 22  1  0  0  0  0
 21 28  1  0  0  0  0
 21 29  1  0  0  0  0
 22 23  1  0  0  0  0
 22 30  1  0  0  0  0
 22 31  1  0  0  0  0
 23 24  1  0  0  0  0
 23 25  2  0  0  0  0
 32 33  1  0  0  0  0
 32 37  1  0  0  0  0
 33 34  1  0  0  0  0
 33 36  1  0  0  0  0
 33 38  1  0  0  0  0
 34 35  2  0  0  0  0
 34 42  1  0  0  0  0
 36 39  1  0  0  0  0
 36 40  1  0  0  0  0
 36 41  1  0  0  0  0
 42 43  1  0  0  0  0
 42 44  1  0  0  0  0
 43 45  1  0  0  0  0
 43 46  1  0  0  0  0
 43 47  1  0  0  0  0
M  CHG  1  24  -1
M  END
$$$$

  -OEChem-05262216243D

 47 46  0     1  0  0  0  0  0999 V2000
    0.7705   -5.3616    1.6469 C   0  0  0  0  0  0  0  0  0  0  0  0
    1.7993   -4.9793    2.1856 O   0  0  0  0  0  0  0  0  0  0  0  0
   -0.2217   -6.2084    2.4219 C   0  0  0  0  0  0  0  0  0  0  0  0
   -0.3352   -7.1836    1.9427 H   0  0  0  0  0  0  0  0  0  0  0  0
    0.1265   -6.3558    3.4478 H   0  0  0  0  0  0  0  0  0  0  0  0
   -1.1941   -5.7093    2.4499 H   0  0  0  0  0  0  0  0  0  0  0  0
    0.5026   -5.0381    0.3330 N   0  0  0  0  0  0  0  0  0  0  0  0
    1.1820   -3.9473   -0.3803 C   0  0  2  0  0  0  0  0  0  0  0  0
    0.2275   -2.7477   -0.5306 C   0  0  0  0  0  0  0  0  0  0  0  0
   -0.9543   -2.9635   -0.7764 O   0  0  0  0  0  0  0  0  0  0  0  0
    1.6227   -4.4603   -1.7523 C   0  0  0  0  0  0  0  0  0  0  0  0
   -0.4555   -5.2187    0.0364 H   0  0  0  0  0  0  0  0  0  0  0  0
    2.0706   -3.6149    0.1657 H   0  0  0  0  0  0  0  0  0  0  0  0
    0.7578   -4.7961   -2.3335 H   0  0  0  0  0  0  0  0  0  0  0  0
    2.1273   -3.6660   -2.3118 H   0  0  0  0  0  0  0  0  0  0  0  0
    2.3154   -5.2996   -1.6384 H   0  0  0  0  0  0  0  0  0  0  0  0
    0.6779   -1.4620   -0.2822 N   0  0  0  0  0  0  0  0  0  0  0  0
   -0.0775   -0.1953   -0.4305 C   0  0  2  0  0  0  0  0  0  0  0  0
   -1.3594   -0.0555    0.4335 C   0  0  0  0  0  0  0  0  0  0  0  0
   -1.7722    1.0608    0.7278 O   0  0  0  0  0  0  0  0  0  0  0  0
   -0.3876    0.0300   -1.9238 C   0  0  0  0  0  0  0  0  0  0  0  0
    0.9069    0.2915   -2.7176 C   0  0  0  0  0  0  0  0  0  0  0  0
    0.6249    0.4924   -4.2059 C   0  0  0  0  0  0  0  0  0  0  0  0
   -0.0233    1.5115   -4.5483 O   0  5  0  0  0  0  0  0  0  0  0  0
    1.0815   -0.3681   -4.9989 O   0  0  0  0  0  0  0  0  0  0  0  0
    1.6810   -1.3748   -0.1520 H   0  0  0  0  0  0  0  0  0  0  0  0
    0.5754    0.6185   -0.1014 H   0  0  0  0  0  0  0  0  0  0  0  0
   -1.0442    0.9007   -2.0323 H   0  0  0  0  0  0  0  0  0  0  0  0
   -0.9179   -0.8303   -2.3448 H   0  0  0  0  0  0  0  0  0  0  0  0
    1.3997    1.1880   -2.3310 H   0  0  0  0  0  0  0  0  0  0  0  0
    1.5977   -0.5481   -2.5989 H   0  0  0  0  0  0  0  0  0  0  0  0
   -1.9470   -1.1405    1.0532 N   0  0  0  0  0  0  0  0  0  0  0  0
   -3.1010   -1.0969    1.9539 C   0  0  2  0  0  0  0  0  0  0  0  0
   -3.0722   -2.2378    2.9937 C   0  0  0  0  0  0  0  0  0  0  0  0
   -2.5499   -3.3203    2.7436 O   0  0  0  0  0  0  0  0  0  0  0  0
   -4.3733   -1.1784    1.1067 C   0  0  0  0  0  0  0  0  0  0  0  0
   -1.6740   -2.0527    0.6771 H   0  0  0  0  0  0  0  0  0  0  0  0
   -3.0964   -0.1507    2.5045 H   0  0  0  0  0  0  0  0  0  0  0  0
   -4.3954   -2.1155    0.5411 H   0  0  0  0  0  0  0  0  0  0  0  0
   -5.2618   -1.1324    1.7432 H   0  0  0  0  0  0  0  0  0  0  0  0
   -4.4108   -0.3443    0.3986 H   0  0  0  0  0  0  0  0  0  0  0  0
   -3.6619   -2.0507    4.2315 N   0  0  0  0  0  0  0  0  0  0  0  0
   -3.6389   -3.0511    5.2905 C   0  0  0  0  0  0  0  0  0  0  0  0
   -4.0517   -1.1334    4.4269 H   0  0  0  0  0  0  0  0  0  0  0  0
   -4.1569   -3.9606    4.9690 H   0  0  0  0  0  0  0  0  0  0  0  0
   -2.6070   -3.3067    5.5540 H   0  0  0  0  0  0  0  0  0  0  0  0
   -4.1389   -2.6659    6.1841 H   0  0  0  0  0  0  0  0  0  0  0  0
  1  2  2  0  0  0  0
  1  3  1  0  0  0  0
  1  7  1  0  0  0  0
  3  4  1  0  0  0  0
  3  5  1  0  0  0  0
  3  6  1  0  0  0  0
  7  8  1  0  0  0  0
  7 12  1  0  0  0  0
  8  9  1  0  0  0  0
  8 11  1  0  0  0  0
  8 13  1  0  0  0  0
  9 10  2  0  0  0  0
  9 17  1  0  0  0  0
 11 14  1  0  0  0  0
 11 15  1  0  0  0  0
 11 16  1  0  0  0  0
 17 18  1  0  0  0  0
 17 26  1  0  0  0  0
 18 19  1  0  0  0  0
 18 21  1  0  0  0  0
 18 27  1  0  0  0  0
 19 20  2  0  0  0  0
 19 32  1  0  0  0  0
 21 22  1  0  0  0  0
 21 28  1  0  0  0  0
 21 29  1  0  0  0  0
 22 23  1  0  0  0  0
 22 30  1  0  0  0  0
 22 31  1  0  0  0  0
 23 24  1  0  0  0  0
 23 25  2  0  0  0  0
 32 33  1  0  0  0  0
 32 37  1  0  0  0  0
 33 34  1  0  0  0  0
 33 36  1  0  0  0  0
 33 38  1  0  0  0  0
 34 35  2  0  0  0  0
 34 42  1  0  0  0  0
 36 39  1  0  0  0  0
 36 40  1  0  0  0  0
 36 41  1  0  0  0  0
 42 43  1  0  0  0  0
 42 44  1  0  0  0  0
 43 45  1  0  0  0  0
 43 46  1  0  0  0  0
 43 47  1  0  0  0  0
M  CHG  1  24  -1
M  END
$$$$

  -OEChem-05262216243D

 47 46  0     1  0  0  0  0  0999 V2000
    0.9569   -5.4287    1.5668 C   0  0  0  0  0  0  0  0  0  0  0  0
    2.0487   -5.0776    1.9892 O   0  0  0  0  0  0  0  0  0  0  0  0
    0.0347   -6.2544    2.4443 C   0  0  0  0  0  0  0  0  0  0  0  0
   -0.2619   -7.1671    1.9220 H   0  0  0  0  0  0  0  0  0  0  0  0
    0.5423   -6.5276    3.3733 H   0  0  0  0  0  0  0  0  0  0  0  0
   -0.8602   -5.6752    2.6894 H   0  0  0  0  0  0  0  0  0  0  0  0
    0.5423   -5.0674    0.3017 N   0  0  0  0  0  0  0  0  0  0  0  0
    1.1411   -3.9528   -0.4464 C   0  0  2  0  0  0  0  0  0  0  0  0
    0.2071   -2.7293   -0.4028 C   0  0  0  0  0  0  0  0  0  0  0  0
   -1.0056   -2.9084   -0.4324 O   0  0  0  0  0  0  0  0  0  0  0  0
    1.3692   -4.3968   -1.8922 C   0  0  0  0  0  0  0  0  0  0  0  0
   -0.4461   -5.2290    0.1154 H   0  0  0  0  0  0  0  0  0  0  0  0
    2.1064   -3.6654   -0.0177 H   0  0  0  0  0  0  0  0  0  0  0  0
    0.4216   -4.6814   -2.3612 H   0  0  0  0  0  0  0  0  0  0  0  0
    1.8110   -3.5824   -2.4762 H   0  0  0  0  0  0  0  0  0  0  0  0
    2.0477   -5.2546   -1.9233 H   0  0  0  0  0  0  0  0  0  0  0  0
    0.7270   -1.4595   -0.2202 N   0  0  0  0  0  0  0  0  0  0  0  0
   -0.0012   -0.1797   -0.3811 C   0  0  2  0  0  0  0  0  0  0  0  0
   -1.2348    0.0232    0.5388 C   0  0  0  0  0  0  0  0  0  0  0  0
   -1.7736    1.1224    0.6094 O   0  0  0  0  0  0  0  0  0  0  0  0
   -0.3671   -0.0186   -1.8708 C   0  0  0  0  0  0  0  0  0  0  0  0
    0.9018    0.1702   -2.7240 C   0  0  0  0  0  0  0  0  0  0  0  0
    0.5579    0.3054   -4.2049 C   0  0  0  0  0  0  0  0  0  0  0  0
    0.2741    1.4478   -4.6401 O   0  5  0  0  0  0  0  0  0  0  0  0
    0.5915   -0.7413   -4.8984 O   0  0  0  0  0  0  0  0  0  0  0  0
    1.7389   -1.4043   -0.2861 H   0  0  0  0  0  0  0  0  0  0  0  0
    0.6838    0.6304   -0.1141 H   0  0  0  0  0  0  0  0  0  0  0  0
   -1.0055    0.8630   -2.0000 H   0  0  0  0  0  0  0  0  0  0  0  0
   -0.9344   -0.8852   -2.2270 H   0  0  0  0  0  0  0  0  0  0  0  0
    1.4355    1.0680   -2.3988 H   0  0  0  0  0  0  0  0  0  0  0  0
    1.5770   -0.6810   -2.5990 H   0  0  0  0  0  0  0  0  0  0  0  0
   -1.6200   -0.9436    1.4477 N   0  0  0  0  0  0  0  0  0  0  0  0
   -2.7881   -0.8506    2.3267 C   0  0  2  0  0  0  0  0  0  0  0  0
   -2.6984   -1.8238    3.5216 C   0  0  0  0  0  0  0  0  0  0  0  0
   -2.1359   -2.9103    3.4216 O   0  0  0  0  0  0  0  0  0  0  0  0
   -4.0440   -1.1511    1.5024 C   0  0  0  0  0  0  0  0  0  0  0  0
   -1.3017   -1.8853    1.2076 H   0  0  0  0  0  0  0  0  0  0  0  0
   -2.8541    0.1653    2.7285 H   0  0  0  0  0  0  0  0  0  0  0  0
   -3.9894   -2.1599    1.0799 H   0  0  0  0  0  0  0  0  0  0  0  0
   -4.9385   -1.0808    2.1280 H   0  0  0  0  0  0  0  0  0  0  0  0
   -4.1412   -0.4363    0.6791 H   0  0  0  0  0  0  0  0  0  0  0  0
   -3.2883   -1.4839    4.7263 N   0  0  0  0  0  0  0  0  0  0  0  0
   -3.2262   -2.3233    5.9154 C   0  0  0  0  0  0  0  0  0  0  0  0
   -3.7232   -0.5682    4.7895 H   0  0  0  0  0  0  0  0  0  0  0  0
   -3.7012   -3.2916    5.7257 H   0  0  0  0  0  0  0  0  0  0  0  0
   -2.1854   -2.4914    6.2111 H   0  0  0  0  0  0  0  0  0  0  0  0
   -3.7473   -1.8388    6.7464 H   0  0  0  0  0  0  0  0  0  0  0  0
  1  2  2  0  0  0  0
  1  3  1  0  0  0  0
  1  7  1  0  0  0  0
  3  4  1  0  0  0  0
  3  5  1  0  0  0  0
  3  6  1  0  0  0  0
  7  8  1  0  0  0  0
  7 12  1  0  0  0  0
  8  9  1  0  0  0  0
  8 11  1  0  0  0  0
  8 13  1  0  0  0  0
  9 10  2  0  0  0  0
  9 17  1  0  0  0  0
 11 14  1  0  0  0  0
 11 15  1  0  0  0  0
 11 16  1  0  0  0  0
 17 18  1  0  0  0  0
 17 26  1  0  0  0  0
 18 19  1  0  0  0  0
 18 21  1  0  0  0  0
 18 27  1  0  0  0  0
 19 20  2  0  0  0  0
 19 32  1  0  0  0  0
 21 22  1  0  0  0  0
 21 28  1  0  0  0  0
 21 29  1  0  0  0  0
 22 23  1  0  0  0  0
 22 30  1  0  0  0  0
 22 31  1  0  0  0  0
 23 24  1  0  0  0  0
 23 25  2  0  0  0  0
 32 33  1  0  0  0  0
 32 37  1  0  0  0  0
 33 34  1  0  0  0  0
 33 36  1  0  0  0  0
 33 38  1  0  0  0  0
 34 35  2  0  0  0  0
 34 42  1  0  0  0  0
 36 39  1  0  0  0  0
 36 40  1  0  0  0  0
 36 41  1  0  0  0  0
 42 43  1  0  0  0  0
 42 44  1  0  0  0  0
 43 45  1  0  0  0  0
 43 46  1  0  0  0  0
 43 47  1  0  0  0  0
M  CHG  1  24  -1
M  END
$$$$

  -OEChem-05262216243D

 47 46  0     1  0  0  0  0  0999 V2000
    1.1076   -5.9454    1.0786 C   0  0  0  0  0  0  0  0  0  0  0  0
    2.3102   -5.8330    1.2619 O   0  0  0  0  0  0  0  0  0  0  0  0
    0.3199   -6.9851    1.8545 C   0  0  0  0  0  0  0  0  0  0  0  0
   -0.1984   -7.6536    1.1629 H   0  0  0  0  0  0  0  0  0  0  0  0
    0.9918   -7.5781    2.4810 H   0  0  0  0  0  0  0  0  0  0  0  0
   -0.4159   -6.4921    2.4947 H   0  0  0  0  0  0  0  0  0  0  0  0
    0.4518   -5.1320    0.1792 N   0  0  0  0  0  0  0  0  0  0  0  0
    1.0333   -3.9235   -0.4215 C   0  0  2  0  0  0  0  0  0  0  0  0
    0.1805   -2.6806   -0.0948 C   0  0  0  0  0  0  0  0  0  0  0  0
   -1.0130   -2.8179    0.1509 O   0  0  0  0  0  0  0  0  0  0  0  0
    1.1016   -4.1341   -1.9365 C   0  0  0  0  0  0  0  0  0  0  0  0
   -0.5663   -5.1628    0.2055 H   0  0  0  0  0  0  0  0  0  0  0  0
    2.0445   -3.7485   -0.0406 H   0  0  0  0  0  0  0  0  0  0  0  0
    0.0986   -4.2819   -2.3505 H   0  0  0  0  0  0  0  0  0  0  0  0
    1.5489   -3.2650   -2.4280 H   0  0  0  0  0  0  0  0  0  0  0  0
    1.7094   -5.0132   -2.1712 H   0  0  0  0  0  0  0  0  0  0  0  0
    0.7640   -1.4255   -0.0406 N   0  0  0  0  0  0  0  0  0  0  0  0
    0.0520   -0.1526   -0.3020 C   0  0  2  0  0  0  0  0  0  0  0  0
   -1.1506    0.1720    0.6234 C   0  0  0  0  0  0  0  0  0  0  0  0
   -1.8362    1.1693    0.4243 O   0  0  0  0  0  0  0  0  0  0  0  0
   -0.3364   -0.1413   -1.7959 C   0  0  0  0  0  0  0  0  0  0  0  0
    0.9221   -0.0595   -2.6821 C   0  0  0  0  0  0  0  0  0  0  0  0
    0.5587   -0.0744   -4.1639 C   0  0  0  0  0  0  0  0  0  0  0  0
    0.5782    1.0123   -4.7907 O   0  5  0  0  0  0  0  0  0  0  0  0
    0.2777   -1.1912   -4.6657 O   0  0  0  0  0  0  0  0  0  0  0  0
    1.7409   -1.4254   -0.3203 H   0  0  0  0  0  0  0  0  0  0  0  0
    0.7573    0.6660   -0.1311 H   0  0  0  0  0  0  0  0  0  0  0  0
   -0.9639    0.7310   -2.0103 H   0  0  0  0  0  0  0  0  0  0  0  0
   -0.9226   -1.0314   -2.0496 H   0  0  0  0  0  0  0  0  0  0  0  0
    1.4701    0.8603   -2.4564 H   0  0  0  0  0  0  0  0  0  0  0  0
    1.5927   -0.8984   -2.4834 H   0  0  0  0  0  0  0  0  0  0  0  0
   -1.3432   -0.5153    1.8066 N   0  0  0  0  0  0  0  0  0  0  0  0
   -2.4980   -0.3220    2.6906 C   0  0  2  0  0  0  0  0  0  0  0  0
   -2.2658   -0.8797    4.1109 C   0  0  0  0  0  0  0  0  0  0  0  0
   -1.4163   -1.7363    4.3332 O   0  0  0  0  0  0  0  0  0  0  0  0
   -3.7149   -1.0076    2.0574 C   0  0  0  0  0  0  0  0  0  0  0  0
   -0.8949   -1.4316    1.8325 H   0  0  0  0  0  0  0  0  0  0  0  0
   -2.6975    0.7499    2.7892 H   0  0  0  0  0  0  0  0  0  0  0  0
   -3.5231   -2.0777    1.9260 H   0  0  0  0  0  0  0  0  0  0  0  0
   -4.5985   -0.8847    2.6901 H   0  0  0  0  0  0  0  0  0  0  0  0
   -3.9323   -0.5724    1.0770 H   0  0  0  0  0  0  0  0  0  0  0  0
   -3.0493   -0.4280    5.1588 N   0  0  0  0  0  0  0  0  0  0  0  0
   -2.9149   -0.9077    6.5276 C   0  0  0  0  0  0  0  0  0  0  0  0
   -3.7439    0.2824    4.9489 H   0  0  0  0  0  0  0  0  0  0  0  0
   -3.0798   -1.9893    6.5711 H   0  0  0  0  0  0  0  0  0  0  0  0
   -1.9145   -0.6864    6.9137 H   0  0  0  0  0  0  0  0  0  0  0  0
   -3.6512   -0.4194    7.1730 H   0  0  0  0  0  0  0  0  0  0  0  0
  1  2  2  0  0  0  0
  1  3  1  0  0  0  0
  1  7  1  0  0  0  0
  3  4  1  0  0  0  0
  3  5  1  0  0  0  0
  3  6  1  0  0  0  0
  7  8  1  0  0  0  0
  7 12  1  0  0  0  0
  8  9  1  0  0  0  0
  8 11  1  0  0  0  0
  8 13  1  0  0  0  0
  9 10  2  0  0  0  0
  9 17  1  0  0  0  0
 11 14  1  0  0  0  0
 11 15  1  0  0  0  0
 11 16  1  0  0  0  0
 17 18  1  0  0  0  0
 17 26  1  0  0  0  0
 18 19  1  0  0  0  0
 18 21  1  0  0  0  0
 18 27  1  0  0  0  0
 19 20  2  0  0  0  0
 19 32  1  0  0  0  0
 21 22  1  0  0  0  0
 21 28  1  0  0  0  0
 21 29  1  0  0  0  0
 22 23  1  0  0  0  0
 22 30  1  0  0  0  0
 22 31  1  0  0  0  0
 23 24  1  0  0  0  0
 23 25  2  0  0  0  0
 32 33  1  0  0  0  0
 32 37  1  0  0  0  0
 33 34  1  0  0  0  0
 33 36  1  0  0  0  0
 33 38  1  0  0  0  0
 34 35  2  0  0  0  0
 34 42  1  0  0  0  0
 36 39  1  0  0  0  0
 36 40  1  0  0  0  0
 36 41  1  0  0  0  0
 42 43  1  0  0  0  0
 42 44  1  0  0  0  0
 43 45  1  0  0  0  0
 43 46  1  0  0  0  0
 43 47  1  0  0  0  0
M  CHG  1  24  -1
M  END
$$$$

  -OEChem-05262216243D

 47 46  0     1  0  0  0  0  0999 V2000
    0.7469   -5.9762    1.1160 C   0  0  0  0  0  0  0  0  0  0  0  0
    1.9240   -5.9720    1.4433 O   0  0  0  0  0  0  0  0  0  0  0  0
   -0.2004   -6.9991    1.7153 C   0  0  0  0  0  0  0  0  0  0  0  0
   -0.6282   -7.6187    0.9235 H   0  0  0  0  0  0  0  0  0  0  0  0
    0.3338   -7.6437    2.4187 H   0  0  0  0  0  0  0  0  0  0  0  0
   -1.0083   -6.4904    2.2473 H   0  0  0  0  0  0  0  0  0  0  0  0
    0.2609   -5.0528    0.2159 N   0  0  0  0  0  0  0  0  0  0  0  0
    0.9920   -3.8546   -0.2182 C   0  0  2  0  0  0  0  0  0  0  0  0
    0.1385   -2.5836   -0.0212 C   0  0  0  0  0  0  0  0  0  0  0  0
   -1.0617   -2.6921    0.2065 O   0  0  0  0  0  0  0  0  0  0  0  0
    1.3589   -4.0331   -1.6938 C   0  0  0  0  0  0  0  0  0  0  0  0
   -0.7535   -5.0009    0.1283 H   0  0  0  0  0  0  0  0  0  0  0  0
    1.9096   -3.7315    0.3662 H   0  0  0  0  0  0  0  0  0  0  0  0
    0.4560   -4.0954   -2.3109 H   0  0  0  0  0  0  0  0  0  0  0  0
    1.9590   -3.1902   -2.0477 H   0  0  0  0  0  0  0  0  0  0  0  0
    1.9410   -4.9493   -1.8321 H   0  0  0  0  0  0  0  0  0  0  0  0
    0.7340   -1.3325   -0.0520 N   0  0  0  0  0  0  0  0  0  0  0  0
    0.0124   -0.0818   -0.3797 C   0  0  2  0  0  0  0  0  0  0  0  0
   -1.1658    0.2557    0.5700 C   0  0  0  0  0  0  0  0  0  0  0  0
   -2.0673    1.0183    0.2387 O   0  0  0  0  0  0  0  0  0  0  0  0
   -0.3928   -0.1450   -1.8685 C   0  0  0  0  0  0  0  0  0  0  0  0
    0.8575   -0.1017   -2.7684 C   0  0  0  0  0  0  0  0  0  0  0  0
    0.4841   -0.1898   -4.2452 C   0  0  0  0  0  0  0  0  0  0  0  0
    0.4824    0.8688   -4.9189 O   0  5  0  0  0  0  0  0  0  0  0  0
    0.2259   -1.3327   -4.6976 O   0  0  0  0  0  0  0  0  0  0  0  0
    1.7052   -1.3549   -0.3489 H   0  0  0  0  0  0  0  0  0  0  0  0
    0.7102    0.7518   -0.2603 H   0  0  0  0  0  0  0  0  0  0  0  0
   -1.0262    0.7131   -2.1192 H   0  0  0  0  0  0  0  0  0  0  0  0
   -0.9766   -1.0494   -2.0723 H   0  0  0  0  0  0  0  0  0  0  0  0
    1.4037    0.8295   -2.5918 H   0  0  0  0  0  0  0  0  0  0  0  0
    1.5318   -0.9281   -2.5347 H   0  0  0  0  0  0  0  0  0  0  0  0
   -1.1148   -0.1533    1.8896 N   0  0  0  0  0  0  0  0  0  0  0  0
   -2.2209   -0.0103    2.8421 C   0  0  2  0  0  0  0  0  0  0  0  0
   -1.7647   -0.1607    4.3089 C   0  0  0  0  0  0  0  0  0  0  0  0
   -0.6878   -0.6759    4.5922 O   0  0  0  0  0  0  0  0  0  0  0  0
   -3.2821   -1.0676    2.5128 C   0  0  0  0  0  0  0  0  0  0  0  0
   -0.4083   -0.8543    2.1016 H   0  0  0  0  0  0  0  0  0  0  0  0
   -2.6593    0.9872    2.7360 H   0  0  0  0  0  0  0  0  0  0  0  0
   -2.8583   -2.0732    2.6012 H   0  0  0  0  0  0  0  0  0  0  0  0
   -4.1339   -0.9851    3.1938 H   0  0  0  0  0  0  0  0  0  0  0  0
   -3.6472   -0.9368    1.4890 H   0  0  0  0  0  0  0  0  0  0  0  0
   -2.5859    0.2802    5.3318 N   0  0  0  0  0  0  0  0  0  0  0  0
   -2.2372    0.1784    6.7427 C   0  0  0  0  0  0  0  0  0  0  0  0
   -3.4688    0.7083    5.0693 H   0  0  0  0  0  0  0  0  0  0  0  0
   -2.0649   -0.8667    7.0201 H   0  0  0  0  0  0  0  0  0  0  0  0
   -1.3305    0.7544    6.9547 H   0  0  0  0  0  0  0  0  0  0  0  0
   -3.0496    0.5708    7.3615 H   0  0  0  0  0  0  0  0  0  0  0  0
  1  2  2  0  0  0  0
  1  3  1  0  0  0  0
  1  7  1  0  0  0  0
  3  4  1  0  0  0  0
  3  5  1  0  0  0  0
  3  6  1  0  0  0  0
  7  8  1  0  0  0  0
  7 12  1  0  0  0  0
  8  9  1  0  0  0  0
  8 11  1  0  0  0  0
  8 13  1  0  0  0  0
  9 10  2  0  0  0  0
  9 17  1  0  0  0  0
 11 14  1  0  0  0  0
 11 15  1  0  0  0  0
 11 16  1  0  0  0  0
 17 18  1  0  0  0  0
 17 26  1  0  0  0  0
 18 19  1  0  0  0  0
 18 21  1  0  0  0  0
 18 27  1  0  0  0  0
 19 20  2  0  0  0  0
 19 32  1  0  0  0  0
 21 22  1  0  0  0  0
 21 28  1  0  0  0  0
 21 29  1  0  0  0  0
 22 23  1  0  0  0  0
 22 30  1  0  0  0  0
 22 31  1  0  0  0  0
 23 24  1  0  0  0  0
 23 25  2  0  0  0  0
 32 33  1  0  0  0  0
 32 37  1  0  0  0  0
 33 34  1  0  0  0  0
 33 36  1  0  0  0  0
 33 38  1  0  0  0  0
 34 35  2  0  0  0  0
 34 42  1  0  0  0  0
 36 39  1  0  0  0  0
 36 40  1  0  0  0  0
 36 41  1  0  0  0  0
 42 43  1  0  0  0  0
 42 44  1  0  0  0  0
 43 45  1  0  0  0  0
 43 46  1  0  0  0  0
 43 47  1  0  0  0  0
M  CHG  1  24  -1
M  END
$$$$

  -OEChem-05262216243D

 47 46  0     1  0  0  0  0  0999 V2000
    0.6446   -5.9481    1.1697 C   0  0  0  0  0  0  0  0  0  0  0  0
    1.8108   -5.9430    1.5341 O   0  0  0  0  0  0  0  0  0  0  0  0
   -0.3221   -6.9678    1.7433 C   0  0  0  0  0  0  0  0  0  0  0  0
   -0.7259   -7.5900    0.9408 H   0  0  0  0  0  0  0  0  0  0  0  0
    0.1893   -7.6104    2.4654 H   0  0  0  0  0  0  0  0  0  0  0  0
   -1.1458   -6.4566    2.2479 H   0  0  0  0  0  0  0  0  0  0  0  0
    0.1885   -5.0309    0.2480 N   0  0  0  0  0  0  0  0  0  0  0  0
    0.9373   -3.8421   -0.1812 C   0  0  2  0  0  0  0  0  0  0  0  0
    0.0952   -2.5609    0.0005 C   0  0  0  0  0  0  0  0  0  0  0  0
   -1.1070   -2.6572    0.2226 O   0  0  0  0  0  0  0  0  0  0  0  0
    1.3194   -4.0353   -1.6513 C   0  0  0  0  0  0  0  0  0  0  0  0
   -0.8227   -4.9743    0.1327 H   0  0  0  0  0  0  0  0  0  0  0  0
    1.8490   -3.7253    0.4135 H   0  0  0  0  0  0  0  0  0  0  0  0
    0.4230   -4.0865   -2.2785 H   0  0  0  0  0  0  0  0  0  0  0  0
    1.9381   -3.2052   -2.0034 H   0  0  0  0  0  0  0  0  0  0  0  0
    1.8865   -4.9628   -1.7767 H   0  0  0  0  0  0  0  0  0  0  0  0
    0.7043   -1.3162   -0.0243 N   0  0  0  0  0  0  0  0  0  0  0  0
   -0.0035   -0.0653   -0.3758 C   0  0  2  0  0  0  0  0  0  0  0  0
   -1.1949    0.2616    0.5590 C   0  0  0  0  0  0  0  0  0  0  0  0
   -2.2183    0.8062    0.1587 O   0  0  0  0  0  0  0  0  0  0  0  0
   -0.3758   -0.1252   -1.8727 C   0  0  0  0  0  0  0  0  0  0  0  0
    0.8958   -0.0879   -2.7421 C   0  0  0  0  0  0  0  0  0  0  0  0
    0.5567   -0.1727   -4.2271 C   0  0  0  0  0  0  0  0  0  0  0  0
    0.4582    0.8990   -4.8727 O   0  5  0  0  0  0  0  0  0  0  0  0
    0.4214   -1.3231   -4.7128 O   0  0  0  0  0  0  0  0  0  0  0  0
    1.6779   -1.3503   -0.3128 H   0  0  0  0  0  0  0  0  0  0  0  0
    0.6918    0.7684   -0.2428 H   0  0  0  0  0  0  0  0  0  0  0  0
   -0.9979    0.7373   -2.1363 H   0  0  0  0  0  0  0  0  0  0  0  0
   -0.9604   -1.0256   -2.0907 H   0  0  0  0  0  0  0  0  0  0  0  0
    1.4431    0.8407   -2.5533 H   0  0  0  0  0  0  0  0  0  0  0  0
    1.5596   -0.9182   -2.4906 H   0  0  0  0  0  0  0  0  0  0  0  0
   -1.0218    0.1272    1.9241 N   0  0  0  0  0  0  0  0  0  0  0  0
   -2.0940    0.2952    2.9104 C   0  0  2  0  0  0  0  0  0  0  0  0
   -1.5524    0.5300    4.3353 C   0  0  0  0  0  0  0  0  0  0  0  0
   -0.4329    0.1444    4.6577 O   0  0  0  0  0  0  0  0  0  0  0  0
   -2.9741   -0.9598    2.8855 C   0  0  0  0  0  0  0  0  0  0  0  0
   -0.1937   -0.3850    2.2189 H   0  0  0  0  0  0  0  0  0  0  0  0
   -2.6987    1.1669    2.6398 H   0  0  0  0  0  0  0  0  0  0  0  0
   -2.3846   -1.8451    3.1454 H   0  0  0  0  0  0  0  0  0  0  0  0
   -3.7982   -0.8652    3.5982 H   0  0  0  0  0  0  0  0  0  0  0  0
   -3.3976   -1.1090    1.8869 H   0  0  0  0  0  0  0  0  0  0  0  0
   -2.3426    1.1646    5.2776 N   0  0  0  0  0  0  0  0  0  0  0  0
   -1.9121    1.4184    6.6460 C   0  0  0  0  0  0  0  0  0  0  0  0
   -3.2593    1.4854    4.9793 H   0  0  0  0  0  0  0  0  0  0  0  0
   -1.7105    0.4749    7.1638 H   0  0  0  0  0  0  0  0  0  0  0  0
   -1.0022    2.0278    6.6542 H   0  0  0  0  0  0  0  0  0  0  0  0
   -2.6920    1.9547    7.1950 H   0  0  0  0  0  0  0  0  0  0  0  0
  1  2  2  0  0  0  0
  1  3  1  0  0  0  0
  1  7  1  0  0  0  0
  3  4  1  0  0  0  0
  3  5  1  0  0  0  0
  3  6  1  0  0  0  0
  7  8  1  0  0  0  0
  7 12  1  0  0  0  0
  8  9  1  0  0  0  0
  8 11  1  0  0  0  0
  8 13  1  0  0  0  0
  9 10  2  0  0  0  0
  9 17  1  0  0  0  0
 11 14  1  0  0  0  0
 11 15  1  0  0  0  0
 11 16  1  0  0  0  0
 17 18  1  0  0  0  0
 17 26  1  0  0  0  0
 18 19  1  0  0  0  0
 18 21  1  0  0  0  0
 18 27  1  0  0  0  0
 19 20  2  0  0  0  0
 19 32  1  0  0  0  0
 21 22  1  0  0  0  0
 21 28  1  0  0  0  0
 21 29  1  0  0  0  0
 22 23  1  0  0  0  0
 22 30  1  0  0  0  0
 22 31  1  0  0  0  0
 23 24  1  0  0  0  0
 23 25  2  0  0  0  0
 32 33  1  0  0  0  0
 32 37  1  0  0  0  0
 33 34  1  0  0  0  0
 33 36  1  0  0  0  0
 33 38  1  0  0  0  0
 34 35  2  0  0  0  0
 34 42  1  0  0  0  0
 36 39  1  0  0  0  0
 36 40  1  0  0  0  0
 36 41  1  0  0  0  0
 42 43  1  0  0  0  0
 42 44  1  0  0  0  0
 43 45  1  0  0  0  0
 43 46  1  0  0  0  0
 43 47  1  0  0  0  0
M  CHG  1  24  -1
M  END
$$$$

  -OEChem-05262216243D

 47 46  0     1  0  0  0  0  0999 V2000
    0.5436   -5.8572    1.2873 C   0  0  0  0  0  0  0  0  0  0  0  0
    1.6605   -5.8061    1.7802 O   0  0  0  0  0  0  0  0  0  0  0  0
   -0.4779   -6.8382    1.8325 C   0  0  0  0  0  0  0  0  0  0  0  0
   -0.7484   -7.5623    1.0602 H   0  0  0  0  0  0  0  0  0  0  0  0
   -0.0666   -7.3747    2.6919 H   0  0  0  0  0  0  0  0  0  0  0  0
   -1.3760   -6.3018    2.1492 H   0  0  0  0  0  0  0  0  0  0  0  0
    0.1867   -5.0217    0.2511 N   0  0  0  0  0  0  0  0  0  0  0  0
    0.9488   -3.8286   -0.1437 C   0  0  2  0  0  0  0  0  0  0  0  0
    0.0977   -2.5503    0.0195 C   0  0  0  0  0  0  0  0  0  0  0  0
   -1.1055   -2.6532    0.2312 O   0  0  0  0  0  0  0  0  0  0  0  0
    1.3779   -4.0091   -1.6023 C   0  0  0  0  0  0  0  0  0  0  0  0
   -0.8107   -4.9810    0.0450 H   0  0  0  0  0  0  0  0  0  0  0  0
    1.8426   -3.7146    0.4781 H   0  0  0  0  0  0  0  0  0  0  0  0
    0.5025   -4.0488   -2.2592 H   0  0  0  0  0  0  0  0  0  0  0  0
    2.0120   -3.1784   -1.9244 H   0  0  0  0  0  0  0  0  0  0  0  0
    1.9445   -4.9379   -1.7192 H   0  0  0  0  0  0  0  0  0  0  0  0
    0.6985   -1.3023   -0.0203 N   0  0  0  0  0  0  0  0  0  0  0  0
   -0.0141   -0.0621   -0.3946 C   0  0  2  0  0  0  0  0  0  0  0  0
   -1.2122    0.2657    0.5308 C   0  0  0  0  0  0  0  0  0  0  0  0
   -2.3237    0.5599    0.1039 O   0  0  0  0  0  0  0  0  0  0  0  0
   -0.3765   -0.1424   -1.8927 C   0  0  0  0  0  0  0  0  0  0  0  0
    0.9010   -0.1077   -2.7535 C   0  0  0  0  0  0  0  0  0  0  0  0
    0.5763   -0.2122   -4.2405 C   0  0  0  0  0  0  0  0  0  0  0  0
    0.3483    0.8496   -4.8696 O   0  5  0  0  0  0  0  0  0  0  0  0
    0.5864   -1.3623   -4.7456 O   0  0  0  0  0  0  0  0  0  0  0  0
    1.6729   -1.3357   -0.3048 H   0  0  0  0  0  0  0  0  0  0  0  0
    0.6754    0.7778   -0.2706 H   0  0  0  0  0  0  0  0  0  0  0  0
   -1.0041    0.7124   -2.1687 H   0  0  0  0  0  0  0  0  0  0  0  0
   -0.9530   -1.0501   -2.1027 H   0  0  0  0  0  0  0  0  0  0  0  0
    1.4387    0.8280   -2.5739 H   0  0  0  0  0  0  0  0  0  0  0  0
    1.5695   -0.9286   -2.4851 H   0  0  0  0  0  0  0  0  0  0  0  0
   -0.9672    0.4556    1.8783 N   0  0  0  0  0  0  0  0  0  0  0  0
   -2.0113    0.6856    2.8825 C   0  0  2  0  0  0  0  0  0  0  0  0
   -1.4453    1.2601    4.1974 C   0  0  0  0  0  0  0  0  0  0  0  0
   -0.2617    1.1205    4.4896 O   0  0  0  0  0  0  0  0  0  0  0  0
   -2.7224   -0.6453    3.1567 C   0  0  0  0  0  0  0  0  0  0  0  0
   -0.0472    0.1827    2.2158 H   0  0  0  0  0  0  0  0  0  0  0  0
   -2.7344    1.4082    2.4908 H   0  0  0  0  0  0  0  0  0  0  0  0
   -2.0098   -1.3889    3.5277 H   0  0  0  0  0  0  0  0  0  0  0  0
   -3.5119   -0.5136    3.9022 H   0  0  0  0  0  0  0  0  0  0  0  0
   -3.1778   -1.0316    2.2390 H   0  0  0  0  0  0  0  0  0  0  0  0
   -2.2825    1.9245    5.0759 N   0  0  0  0  0  0  0  0  0  0  0  0
   -1.8341    2.4878    6.3424 C   0  0  0  0  0  0  0  0  0  0  0  0
   -3.2530    2.0397    4.7987 H   0  0  0  0  0  0  0  0  0  0  0  0
   -1.4189    1.7034    6.9838 H   0  0  0  0  0  0  0  0  0  0  0  0
   -1.0657    3.2492    6.1722 H   0  0  0  0  0  0  0  0  0  0  0  0
   -2.6737    2.9542    6.8665 H   0  0  0  0  0  0  0  0  0  0  0  0
  1  2  2  0  0  0  0
  1  3  1  0  0  0  0
  1  7  1  0  0  0  0
  3  4  1  0  0  0  0
  3  5  1  0  0  0  0
  3  6  1  0  0  0  0
  7  8  1  0  0  0  0
  7 12  1  0  0  0  0
  8  9  1  0  0  0  0
  8 11  1  0  0  0  0
  8 13  1  0  0  0  0
  9 10  2  0  0  0  0
  9 17  1  0  0  0  0
 11 14  1  0  0  0  0
 11 15  1  0  0  0  0
 11 16  1  0  0  0  0
 17 18  1  0  0  0  0
 17 26  1  0  0  0  0
 18 19  1  0  0  0  0
 18 21  1  0  0  0  0
 18 27  1  0  0  0  0
 19 20  2  0  0  0  0
 19 32  1  0  0  0  0
 21 22  1  0  0  0  0
 21 28  1  0  0  0  0
 21 29  1  0  0  0  0
 22 23  1  0  0  0  0
 22 30  1  0  0  0  0
 22 31  1  0  0  0  0
 23 24  1  0  0  0  0
 23 25  2  0  0  0  0
 32 33  1  0  0  0  0
 32 37  1  0  0  0  0
 33 34  1  0  0  0  0
 33 36  1  0  0  0  0
 33 38  1  0  0  0  0
 34 35  2  0  0  0  0
 34 42  1  0  0  0  0
 36 39  1  0  0  0  0
 36 40  1  0  0  0  0
 36 41  1  0  0  0  0
 42 43  1  0  0  0  0
 42 44  1  0  0  0  0
 43 45  1  0  0  0  0
 43 46  1  0  0  0  0
 43 47  1  0  0  0  0
M  CHG  1  24  -1
M  END
$$$$

  -OEChem-05262216243D

 47 46  0     1  0  0  0  0  0999 V2000
    0.5718   -5.8834    1.2890 C   0  0  0  0  0  0  0  0  0  0  0  0
    1.6913   -5.8144    1.7742 O   0  0  0  0  0  0  0  0  0  0  0  0
   -0.4292   -6.8814    1.8417 C   0  0  0  0  0  0  0  0  0  0  0  0
   -0.7103   -7.5966    1.0649 H   0  0  0  0  0  0  0  0  0  0  0  0
    0.0056   -7.4263    2.6840 H   0  0  0  0  0  0  0  0  0  0  0  0
   -1.3249   -6.3580    2.1854 H   0  0  0  0  0  0  0  0  0  0  0  0
    0.1961   -5.0561    0.2529 N   0  0  0  0  0  0  0  0  0  0  0  0
    0.9416   -3.8559   -0.1516 C   0  0  2  0  0  0  0  0  0  0  0  0
    0.0851   -2.5845    0.0317 C   0  0  0  0  0  0  0  0  0  0  0  0
   -1.1179   -2.6975    0.2351 O   0  0  0  0  0  0  0  0  0  0  0  0
    1.3431   -4.0293   -1.6188 C   0  0  0  0  0  0  0  0  0  0  0  0
   -0.8037   -5.0266    0.0565 H   0  0  0  0  0  0  0  0  0  0  0  0
    1.8467   -3.7383    0.4528 H   0  0  0  0  0  0  0  0  0  0  0  0
    0.4556   -4.0826   -2.2583 H   0  0  0  0  0  0  0  0  0  0  0  0
    1.9572   -3.1890   -1.9539 H   0  0  0  0  0  0  0  0  0  0  0  0
    1.9219   -4.9488   -1.7478 H   0  0  0  0  0  0  0  0  0  0  0  0
    0.6838   -1.3355    0.0224 N   0  0  0  0  0  0  0  0  0  0  0  0
   -0.0197   -0.0880   -0.3427 C   0  0  2  0  0  0  0  0  0  0  0  0
   -1.2367    0.2377    0.5603 C   0  0  0  0  0  0  0  0  0  0  0  0
   -2.3815    0.3222    0.1288 O   0  0  0  0  0  0  0  0  0  0  0  0
   -0.3558   -0.1411   -1.8477 C   0  0  0  0  0  0  0  0  0  0  0  0
    0.9348   -0.0938   -2.6881 C   0  0  0  0  0  0  0  0  0  0  0  0
    0.6308   -0.1711   -4.1811 C   0  0  0  0  0  0  0  0  0  0  0  0
    0.3287    0.8928   -4.7743 O   0  5  0  0  0  0  0  0  0  0  0  0
    0.7298   -1.2982   -4.7263 O   0  0  0  0  0  0  0  0  0  0  0  0
    1.6630   -1.3646   -0.2456 H   0  0  0  0  0  0  0  0  0  0  0  0
    0.6720    0.7466   -0.1974 H   0  0  0  0  0  0  0  0  0  0  0  0
   -0.9782    0.7192   -2.1177 H   0  0  0  0  0  0  0  0  0  0  0  0
   -0.9302   -1.0438   -2.0832 H   0  0  0  0  0  0  0  0  0  0  0  0
    1.4724    0.8373   -2.4857 H   0  0  0  0  0  0  0  0  0  0  0  0
    1.5969   -0.9211   -2.4226 H   0  0  0  0  0  0  0  0  0  0  0  0
   -1.0017    0.7165    1.8366 N   0  0  0  0  0  0  0  0  0  0  0  0
   -2.0510    1.0878    2.7923 C   0  0  2  0  0  0  0  0  0  0  0  0
   -1.5137    1.9827    3.9274 C   0  0  0  0  0  0  0  0  0  0  0  0
   -0.3183    1.9963    4.2048 O   0  0  0  0  0  0  0  0  0  0  0  0
   -2.6577   -0.1935    3.3771 C   0  0  0  0  0  0  0  0  0  0  0  0
   -0.0464    0.6699    2.1835 H   0  0  0  0  0  0  0  0  0  0  0  0
   -2.8304    1.6508    2.2684 H   0  0  0  0  0  0  0  0  0  0  0  0
   -1.8936   -0.7696    3.9085 H   0  0  0  0  0  0  0  0  0  0  0  0
   -3.4639    0.0476    4.0760 H   0  0  0  0  0  0  0  0  0  0  0  0
   -3.0709   -0.8194    2.5793 H   0  0  0  0  0  0  0  0  0  0  0  0
   -2.3857    2.7690    4.6588 N   0  0  0  0  0  0  0  0  0  0  0  0
   -1.9603    3.6423    5.7443 C   0  0  0  0  0  0  0  0  0  0  0  0
   -3.3650    2.7556    4.3885 H   0  0  0  0  0  0  0  0  0  0  0  0
   -1.4857    3.0593    6.5406 H   0  0  0  0  0  0  0  0  0  0  0  0
   -1.2461    4.3875    5.3786 H   0  0  0  0  0  0  0  0  0  0  0  0
   -2.8225    4.1667    6.1668 H   0  0  0  0  0  0  0  0  0  0  0  0
  1  2  2  0  0  0  0
  1  3  1  0  0  0  0
  1  7  1  0  0  0  0
  3  4  1  0  0  0  0
  3  5  1  0  0  0  0
  3  6  1  0  0  0  0
  7  8  1  0  0  0  0
  7 12  1  0  0  0  0
  8  9  1  0  0  0  0
  8 11  1  0  0  0  0
  8 13  1  0  0  0  0
  9 10  2  0  0  0  0
  9 17  1  0  0  0  0
 11 14  1  0  0  0  0
 11 15  1  0  0  0  0
 11 16  1  0  0  0  0
 17 18  1  0  0  0  0
 17 26  1  0  0  0  0
 18 19  1  0  0  0  0
 18 21  1  0  0  0  0
 18 27  1  0  0  0  0
 19 20  2  0  0  0  0
 19 32  1  0  0  0  0
 21 22  1  0  0  0  0
 21 28  1  0  0  0  0
 21 29  1  0  0  0  0
 22 23  1  0  0  0  0
 22 30  1  0  0  0  0
 22 31  1  0  0  0  0
 23 24  1  0  0  0  0
 23 25  2  0  0  0  0
 32 33  1  0  0  0  0
 32 37  1  0  0  0  0
 33 34  1  0  0  0  0
 33 36  1  0  0  0  0
 33 38  1  0  0  0  0
 34 35  2  0  0  0  0
 34 42  1  0  0  0  0
 36 39  1  0  0  0  0
 36 40  1  0  0  0  0
 36 41  1  0  0  0  0
 42 43  1  0  0  0  0
 42 44  1  0  0  0  0
 43 45  1  0  0  0  0
 43 46  1  0  0  0  0
 43 47  1  0  0  0  0
M  CHG  1  24  -1
M  END
$$$$

  -OEChem-05262216243D

 47 46  0     1  0  0  0  0  0999 V2000
    0.6454   -5.9487    1.2542 C   0  0  0  0  0  0  0  0  0  0  0  0
    1.7822   -5.8820    1.6976 O   0  0  0  0  0  0  0  0  0  0  0  0
   -0.3333   -6.9518    1.8368 C   0  0  0  0  0  0  0  0  0  0  0  0
   -0.6740   -7.6360    1.0561 H   0  0  0  0  0  0  0  0  0  0  0  0
    0.1454   -7.5317    2.6308 H   0  0  0  0  0  0  0  0  0  0  0  0
   -1.1971   -6.4278    2.2537 H   0  0  0  0  0  0  0  0  0  0  0  0
    0.2273   -5.1110    0.2427 N   0  0  0  0  0  0  0  0  0  0  0  0
    0.9470   -3.8976   -0.1694 C   0  0  2  0  0  0  0  0  0  0  0  0
    0.0757   -2.6411    0.0457 C   0  0  0  0  0  0  0  0  0  0  0  0
   -1.1266   -2.7760    0.2342 O   0  0  0  0  0  0  0  0  0  0  0  0
    1.3159   -4.0480   -1.6478 C   0  0  0  0  0  0  0  0  0  0  0  0
   -0.7793   -5.0859    0.0828 H   0  0  0  0  0  0  0  0  0  0  0  0
    1.8643   -3.7732    0.4148 H   0  0  0  0  0  0  0  0  0  0  0  0
    0.4140   -4.1095   -2.2659 H   0  0  0  0  0  0  0  0  0  0  0  0
    1.9066   -3.1927   -1.9876 H   0  0  0  0  0  0  0  0  0  0  0  0
    1.9074   -4.9556   -1.8017 H   0  0  0  0  0  0  0  0  0  0  0  0
    0.6634   -1.3875    0.0808 N   0  0  0  0  0  0  0  0  0  0  0  0
   -0.0363   -0.1287   -0.2516 C   0  0  2  0  0  0  0  0  0  0  0  0
   -1.2690    0.1921    0.6331 C   0  0  0  0  0  0  0  0  0  0  0  0
   -2.4213    0.0790    0.2295 O   0  0  0  0  0  0  0  0  0  0  0  0
   -0.3576   -0.1303   -1.7599 C   0  0  0  0  0  0  0  0  0  0  0  0
    0.9401   -0.0549   -2.5873 C   0  0  0  0  0  0  0  0  0  0  0  0
    0.6500   -0.0812   -4.0851 C   0  0  0  0  0  0  0  0  0  0  0  0
    0.2975    0.9923   -4.6317 O   0  5  0  0  0  0  0  0  0  0  0  0
    0.8115   -1.1750   -4.6810 O   0  0  0  0  0  0  0  0  0  0  0  0
    1.6476   -1.4032   -0.1686 H   0  0  0  0  0  0  0  0  0  0  0  0
    0.6610    0.6956   -0.0772 H   0  0  0  0  0  0  0  0  0  0  0  0
   -0.9798    0.7380   -2.0049 H   0  0  0  0  0  0  0  0  0  0  0  0
   -0.9287   -1.0254   -2.0298 H   0  0  0  0  0  0  0  0  0  0  0  0
    1.4739    0.8700   -2.3503 H   0  0  0  0  0  0  0  0  0  0  0  0
    1.6008   -0.8896   -2.3422 H   0  0  0  0  0  0  0  0  0  0  0  0
   -1.0809    0.9275    1.7905 N   0  0  0  0  0  0  0  0  0  0  0  0
   -2.1614    1.4587    2.6295 C   0  0  2  0  0  0  0  0  0  0  0  0
   -1.6856    2.6277    3.5156 C   0  0  0  0  0  0  0  0  0  0  0  0
   -0.4950    2.7738    3.7750 O   0  0  0  0  0  0  0  0  0  0  0  0
   -2.7088    0.3243    3.5031 C   0  0  0  0  0  0  0  0  0  0  0  0
   -0.1242    1.1037    2.0891 H   0  0  0  0  0  0  0  0  0  0  0  0
   -2.9623    1.8387    1.9864 H   0  0  0  0  0  0  0  0  0  0  0  0
   -1.9225   -0.0671    4.1559 H   0  0  0  0  0  0  0  0  0  0  0  0
   -3.5346    0.6824    4.1248 H   0  0  0  0  0  0  0  0  0  0  0  0
   -3.0796   -0.4939    2.8773 H   0  0  0  0  0  0  0  0  0  0  0  0
   -2.6060    3.5176    4.0395 N   0  0  0  0  0  0  0  0  0  0  0  0
   -2.2383    4.6545    4.8730 C   0  0  0  0  0  0  0  0  0  0  0  0
   -3.5778    3.3961    3.7689 H   0  0  0  0  0  0  0  0  0  0  0  0
   -1.7105    4.3159    5.7708 H   0  0  0  0  0  0  0  0  0  0  0  0
   -1.5897    5.3414    4.3194 H   0  0  0  0  0  0  0  0  0  0  0  0
   -3.1347    5.1992    5.1841 H   0  0  0  0  0  0  0  0  0  0  0  0
  1  2  2  0  0  0  0
  1  3  1  0  0  0  0
  1  7  1  0  0  0  0
  3  4  1  0  0  0  0
  3  5  1  0  0  0  0
  3  6  1  0  0  0  0
  7  8  1  0  0  0  0
  7 12  1  0  0  0  0
  8  9  1  0  0  0  0
  8 11  1  0  0  0  0
  8 13  1  0  0  0  0
  9 10  2  0  0  0  0
  9 17  1  0  0  0  0
 11 14  1  0  0  0  0
 11 15  1  0  0  0  0
 11 16  1  0  0  0  0
 17 18  1  0  0  0  0
 17 26  1  0  0  0  0
 18 19  1  0  0  0  0
 18 21  1  0  0  0  0
 18 27  1  0  0  0  0
 19 20  2  0  0  0  0
 19 32  1  0  0  0  0
 21 22  1  0  0  0  0
 21 28  1  0  0  0  0
 21 29  1  0  0  0  0
 22 23  1  0  0  0  0
 22 30  1  0  0  0  0
 22 31  1  0  0  0  0
 23 24  1  0  0  0  0
 23 25  2  0  0  0  0
 32 33  1  0  0  0  0
 32 37  1  0  0  0  0
 33 34  1  0  0  0  0
 33 36  1  0  0  0  0
 33 38  1  0  0  0  0
 34 35  2  0  0  0  0
 34 42  1  0  0  0  0
 36 39  1  0  0  0  0
 36 40  1  0  0  0  0
 36 41  1  0  0  0  0
 42 43  1  0  0  0  0
 42 44  1  0  0  0  0
 43 45  1  0  0  0  0
 43 46  1  0  0  0  0
 43 47  1  0  0  0  0
M  CHG  1  24  -1
M  END
$$$$

  -OEChem-05262216243D

 47 46  0     1  0  0  0  0  0999 V2000
    0.6646   -5.9454    1.3007 C   0  0  0  0  0  0  0  0  0  0  0  0
    1.7739   -5.8313    1.8008 O   0  0  0  0  0  0  0  0  0  0  0  0
   -0.2994   -6.9876    1.8369 C   0  0  0  0  0  0  0  0  0  0  0  0
   -0.5756   -7.6839    1.0412 H   0  0  0  0  0  0  0  0  0  0  0  0
    0.1649   -7.5493    2.6522 H   0  0  0  0  0  0  0  0  0  0  0  0
   -1.2019   -6.4996    2.2139 H   0  0  0  0  0  0  0  0  0  0  0  0
    0.2669   -5.1319    0.2617 N   0  0  0  0  0  0  0  0  0  0  0  0
    0.9639   -3.8989   -0.1295 C   0  0  2  0  0  0  0  0  0  0  0  0
    0.0490   -2.6664    0.0400 C   0  0  0  0  0  0  0  0  0  0  0  0
   -1.1561   -2.8358    0.1651 O   0  0  0  0  0  0  0  0  0  0  0  0
    1.3979   -4.0465   -1.5901 C   0  0  0  0  0  0  0  0  0  0  0  0
   -0.7309   -5.1434    0.0528 H   0  0  0  0  0  0  0  0  0  0  0  0
    1.8522   -3.7424    0.4904 H   0  0  0  0  0  0  0  0  0  0  0  0
    0.5242   -4.1505   -2.2421 H   0  0  0  0  0  0  0  0  0  0  0  0
    1.9661   -3.1700   -1.9149 H   0  0  0  0  0  0  0  0  0  0  0  0
    2.0314   -4.9304   -1.7103 H   0  0  0  0  0  0  0  0  0  0  0  0
    0.6119   -1.4022    0.0944 N   0  0  0  0  0  0  0  0  0  0  0  0
   -0.0863   -0.1351   -0.2090 C   0  0  2  0  0  0  0  0  0  0  0  0
   -1.3224    0.1927    0.6703 C   0  0  0  0  0  0  0  0  0  0  0  0
   -2.4652   -0.1226    0.3607 O   0  0  0  0  0  0  0  0  0  0  0  0
   -0.4106   -0.1011   -1.7156 C   0  0  0  0  0  0  0  0  0  0  0  0
    0.8869   -0.0090   -2.5419 C   0  0  0  0  0  0  0  0  0  0  0  0
    0.5989    0.0011   -4.0403 C   0  0  0  0  0  0  0  0  0  0  0  0
    0.1985    1.0762   -4.5496 O   0  5  0  0  0  0  0  0  0  0  0  0
    0.8135   -1.0615   -4.6745 O   0  0  0  0  0  0  0  0  0  0  0  0
    1.6050   -1.4003   -0.1156 H   0  0  0  0  0  0  0  0  0  0  0  0
    0.6206    0.6773   -0.0207 H   0  0  0  0  0  0  0  0  0  0  0  0
   -1.0331    0.7725   -1.9393 H   0  0  0  0  0  0  0  0  0  0  0  0
   -0.9822   -0.9902   -2.0049 H   0  0  0  0  0  0  0  0  0  0  0  0
    1.4247    0.9075   -2.2825 H   0  0  0  0  0  0  0  0  0  0  0  0
    1.5439   -0.8524   -2.3173 H   0  0  0  0  0  0  0  0  0  0  0  0
   -1.1944    1.1623    1.6509 N   0  0  0  0  0  0  0  0  0  0  0  0
   -2.3094    1.7560    2.3986 C   0  0  2  0  0  0  0  0  0  0  0  0
   -1.9347    3.1289    2.9925 C   0  0  0  0  0  0  0  0  0  0  0  0
   -0.7589    3.4352    3.1661 O   0  0  0  0  0  0  0  0  0  0  0  0
   -2.7241    0.7919    3.5157 C   0  0  0  0  0  0  0  0  0  0  0  0
   -0.2648    1.5380    1.8269 H   0  0  0  0  0  0  0  0  0  0  0  0
   -3.1565    1.9108    1.7220 H   0  0  0  0  0  0  0  0  0  0  0  0
   -1.8885    0.6192    4.2012 H   0  0  0  0  0  0  0  0  0  0  0  0
   -3.5643    1.2013    4.0840 H   0  0  0  0  0  0  0  0  0  0  0  0
   -3.0315   -0.1700    3.0930 H   0  0  0  0  0  0  0  0  0  0  0  0
   -2.9272    4.0266    3.3424 N   0  0  0  0  0  0  0  0  0  0  0  0
   -2.6544    5.3597    3.8630 C   0  0  0  0  0  0  0  0  0  0  0  0
   -3.8865    3.7645    3.1344 H   0  0  0  0  0  0  0  0  0  0  0  0
   -2.0711    5.2977    4.7878 H   0  0  0  0  0  0  0  0  0  0  0  0
   -2.0938    5.9497    3.1304 H   0  0  0  0  0  0  0  0  0  0  0  0
   -3.5927    5.8787    4.0809 H   0  0  0  0  0  0  0  0  0  0  0  0
  1  2  2  0  0  0  0
  1  3  1  0  0  0  0
  1  7  1  0  0  0  0
  3  4  1  0  0  0  0
  3  5  1  0  0  0  0
  3  6  1  0  0  0  0
  7  8  1  0  0  0  0
  7 12  1  0  0  0  0
  8  9  1  0  0  0  0
  8 11  1  0  0  0  0
  8 13  1  0  0  0  0
  9 10  2  0  0  0  0
  9 17  1  0  0  0  0
 11 14  1  0  0  0  0
 11 15  1  0  0  0  0
 11 16  1  0  0  0  0
 17 18  1  0  0  0  0
 17 26  1  0  0  0  0
 18 19  1  0  0  0  0
 18 21  1  0  0  0  0
 18 27  1  0  0  0  0
 19 20  2  0  0  0  0
 19 32  1  0  0  0  0
 21 22  1  0  0  0  0
 21 28  1  0  0  0  0
 21 29  1  0  0  0  0
 22 23  1  0  0  0  0
 22 30  1  0  0  0  0
 22 31  1  0  0  0  0
 23 24  1  0  0  0  0
 23 25  2  0  0  0  0
 32 33  1  0  0  0  0
 32 37  1  0  0  0  0
 33 34  1  0  0  0  0
 33 36  1  0  0  0  0
 33 38  1  0  0  0  0
 34 35  2  0  0  0  0
 34 42  1  0  0  0  0
 36 39  1  0  0  0  0
 36 40  1  0  0  0  0
 36 41  1  0  0  0  0
 42 43  1  0  0  0  0
 42 44  1  0  0  0  0
 43 45  1  0  0  0  0
 43 46  1  0  0  0  0
 43 47  1  0  0  0  0
M  CHG  1  24  -1
M  END
$$$$

  -OEChem-05262216243D

 47 46  0     1  0  0  0  0  0999 V2000
    0.6968   -6.0536    1.2195 C   0  0  0  0  0  0  0  0  0  0  0  0
    1.8277   -5.9878    1.6783 O   0  0  0  0  0  0  0  0  0  0  0  0
   -0.2522   -7.1330    1.7059 C   0  0  0  0  0  0  0  0  0  0  0  0
   -0.5613   -7.7625    0.8680 H   0  0  0  0  0  0  0  0  0  0  0  0
    0.2392   -7.7589    2.4559 H   0  0  0  0  0  0  0  0  0  0  0  0
   -1.1376   -6.6749    2.1540 H   0  0  0  0  0  0  0  0  0  0  0  0
    0.2634   -5.1495    0.2745 N   0  0  0  0  0  0  0  0  0  0  0  0
    0.9620   -3.8999   -0.0548 C   0  0  2  0  0  0  0  0  0  0  0  0
    0.0158   -2.6867    0.0743 C   0  0  0  0  0  0  0  0  0  0  0  0
   -1.1893   -2.8877    0.1192 O   0  0  0  0  0  0  0  0  0  0  0  0
    1.4911   -4.0163   -1.4870 C   0  0  0  0  0  0  0  0  0  0  0  0
   -0.7400   -5.1410    0.0904 H   0  0  0  0  0  0  0  0  0  0  0  0
    1.8030   -3.7380    0.6267 H   0  0  0  0  0  0  0  0  0  0  0  0
    0.6625   -4.1327   -2.1936 H   0  0  0  0  0  0  0  0  0  0  0  0
    2.0564   -3.1218   -1.7646 H   0  0  0  0  0  0  0  0  0  0  0  0
    2.1525   -4.8833   -1.5776 H   0  0  0  0  0  0  0  0  0  0  0  0
    0.5594   -1.4138    0.1342 N   0  0  0  0  0  0  0  0  0  0  0  0
   -0.1390   -0.1358   -0.1219 C   0  0  2  0  0  0  0  0  0  0  0  0
   -1.3542    0.2175    0.7779 C   0  0  0  0  0  0  0  0  0  0  0  0
   -2.4510   -0.3173    0.6861 O   0  0  0  0  0  0  0  0  0  0  0  0
   -0.5099   -0.0643   -1.6146 C   0  0  0  0  0  0  0  0  0  0  0  0
    0.7608    0.0380   -2.4805 C   0  0  0  0  0  0  0  0  0  0  0  0
    0.4268    0.0860   -3.9691 C   0  0  0  0  0  0  0  0  0  0  0  0
   -0.1027    1.1346   -4.4124 O   0  5  0  0  0  0  0  0  0  0  0  0
    0.7399   -0.9121   -4.6638 O   0  0  0  0  0  0  0  0  0  0  0  0
    1.5594   -1.3972   -0.0368 H   0  0  0  0  0  0  0  0  0  0  0  0
    0.5887    0.6590    0.0628 H   0  0  0  0  0  0  0  0  0  0  0  0
   -1.1350    0.8170   -1.7988 H   0  0  0  0  0  0  0  0  0  0  0  0
   -1.0954   -0.9443   -1.9034 H   0  0  0  0  0  0  0  0  0  0  0  0
    1.3143    0.9437   -2.2172 H   0  0  0  0  0  0  0  0  0  0  0  0
    1.4148   -0.8176   -2.2951 H   0  0  0  0  0  0  0  0  0  0  0  0
   -1.2956    1.3765    1.5342 N   0  0  0  0  0  0  0  0  0  0  0  0
   -2.4446    1.9957    2.2062 C   0  0  2  0  0  0  0  0  0  0  0  0
   -2.2523    3.5159    2.3765 C   0  0  0  0  0  0  0  0  0  0  0  0
   -1.1253    3.9986    2.4292 O   0  0  0  0  0  0  0  0  0  0  0  0
   -2.6377    1.3265    3.5707 C   0  0  0  0  0  0  0  0  0  0  0  0
   -0.4399    1.9261    1.4872 H   0  0  0  0  0  0  0  0  0  0  0  0
   -3.3452    1.8459    1.6016 H   0  0  0  0  0  0  0  0  0  0  0  0
   -1.7453    1.4567    4.1910 H   0  0  0  0  0  0  0  0  0  0  0  0
   -3.4942    1.7628    4.0929 H   0  0  0  0  0  0  0  0  0  0  0  0
   -2.8206    0.2544    3.4447 H   0  0  0  0  0  0  0  0  0  0  0  0
   -3.3530    4.3475    2.4770 N   0  0  0  0  0  0  0  0  0  0  0  0
   -3.2511    5.7989    2.5530 C   0  0  0  0  0  0  0  0  0  0  0  0
   -4.2663    3.9263    2.3327 H   0  0  0  0  0  0  0  0  0  0  0  0
   -2.6401    6.0959    3.4118 H   0  0  0  0  0  0  0  0  0  0  0  0
   -2.7959    6.1973    1.6403 H   0  0  0  0  0  0  0  0  0  0  0  0
   -4.2448    6.2420    2.6681 H   0  0  0  0  0  0  0  0  0  0  0  0
  1  2  2  0  0  0  0
  1  3  1  0  0  0  0
  1  7  1  0  0  0  0
  3  4  1  0  0  0  0
  3  5  1  0  0  0  0
  3  6  1  0  0  0  0
  7  8  1  0  0  0  0
  7 12  1  0  0  0  0
  8  9  1  0  0  0  0
  8 11  1  0  0  0  0
  8 13  1  0  0  0  0
  9 10  2  0  0  0  0
  9 17  1  0  0  0  0
 11 14  1  0  0  0  0
 11 15  1  0  0  0  0
 11 16  1  0  0  0  0
 17 18  1  0  0  0  0
 17 26  1  0  0  0  0
 18 19  1  0  0  0  0
 18 21  1  0  0  0  0
 18 27  1  0  0  0  0
 19 20  2  0  0  0  0
 19 32  1  0  0  0  0
 21 22  1  0  0  0  0
 21 28  1  0  0  0  0
 21 29  1  0  0  0  0
 22 23  1  0  0  0  0
 22 30  1  0  0  0  0
 22 31  1  0  0  0  0
 23 24  1  0  0  0  0
 23 25  2  0  0  0  0
 32 33  1  0  0  0  0
 32 37  1  0  0  0  0
 33 34  1  0  0  0  0
 33 36  1  0  0  0  0
 33 38  1  0  0  0  0
 34 35  2  0  0  0  0
 34 42  1  0  0  0  0
 36 39  1  0  0  0  0
 36 40  1  0  0  0  0
 36 41  1  0  0  0  0
 42 43  1  0  0  0  0
 42 44  1  0  0  0  0
 43 45  1  0  0  0  0
 43 46  1  0  0  0  0
 43 47  1  0  0  0  0
M  CHG  1  24  -1
M  END
$$$$

  -OEChem-05262216243D

 47 46  0     1  0  0  0  0  0999 V2000
    0.2335   -5.8402    1.5185 C   0  0  0  0  0  0  0  0  0  0  0  0
    1.2538   -5.7940    2.1902 O   0  0  0  0  0  0  0  0  0  0  0  0
   -0.8579   -6.8356    1.8675 C   0  0  0  0  0  0  0  0  0  0  0  0
   -1.0599   -7.4830    1.0106 H   0  0  0  0  0  0  0  0  0  0  0  0
   -0.5482   -7.4555    2.7136 H   0  0  0  0  0  0  0  0  0  0  0  0
   -1.7740   -6.3032    2.1362 H   0  0  0  0  0  0  0  0  0  0  0  0
    0.0581   -4.9899    0.4491 N   0  0  0  0  0  0  0  0  0  0  0  0
    0.9012   -3.8211    0.1716 C   0  0  2  0  0  0  0  0  0  0  0  0
    0.0390   -2.6108   -0.2443 C   0  0  0  0  0  0  0  0  0  0  0  0
   -1.1041   -2.8134   -0.6366 O   0  0  0  0  0  0  0  0  0  0  0  0
    1.8843   -4.1891   -0.9426 C   0  0  0  0  0  0  0  0  0  0  0  0
   -0.8747   -4.9583    0.0354 H   0  0  0  0  0  0  0  0  0  0  0  0
    1.4588   -3.5357    1.0693 H   0  0  0  0  0  0  0  0  0  0  0  0
    1.3432   -4.4563   -1.8566 H   0  0  0  0  0  0  0  0  0  0  0  0
    2.5456   -3.3464   -1.1662 H   0  0  0  0  0  0  0  0  0  0  0  0
    2.4995   -5.0414   -0.6381 H   0  0  0  0  0  0  0  0  0  0  0  0
    0.5960   -1.3418   -0.2144 N   0  0  0  0  0  0  0  0  0  0  0  0
   -0.0962   -0.0614   -0.4691 C   0  0  2  0  0  0  0  0  0  0  0  0
   -1.2777    0.2879    0.4754 C   0  0  0  0  0  0  0  0  0  0  0  0
   -2.0018   -0.5472    1.0025 O   0  0  0  0  0  0  0  0  0  0  0  0
   -0.5076    0.0710   -1.9471 C   0  0  0  0  0  0  0  0  0  0  0  0
    0.7367    0.1869   -2.8496 C   0  0  0  0  0  0  0  0  0  0  0  0
    0.3633    0.2969   -4.3280 C   0  0  0  0  0  0  0  0  0  0  0  0
   -0.3845    1.2487   -4.6650 O   0  5  0  0  0  0  0  0  0  0  0  0
    0.8751   -0.5295   -5.1229 O   0  0  0  0  0  0  0  0  0  0  0  0
    1.5743   -1.2974    0.0471 H   0  0  0  0  0  0  0  0  0  0  0  0
    0.6460    0.7201   -0.2855 H   0  0  0  0  0  0  0  0  0  0  0  0
   -1.1219    0.9684   -2.0795 H   0  0  0  0  0  0  0  0  0  0  0  0
   -1.1149   -0.7861   -2.2555 H   0  0  0  0  0  0  0  0  0  0  0  0
    1.3141    1.0725   -2.5703 H   0  0  0  0  0  0  0  0  0  0  0  0
    1.3765   -0.6900   -2.7121 H   0  0  0  0  0  0  0  0  0  0  0  0
   -1.3596    1.5757    0.9784 N   0  0  0  0  0  0  0  0  0  0  0  0
   -2.3968    2.0367    1.9106 C   0  0  2  0  0  0  0  0  0  0  0  0
   -2.7131    3.5344    1.7283 C   0  0  0  0  0  0  0  0  0  0  0  0
   -1.8551    4.3026    1.3069 O   0  0  0  0  0  0  0  0  0  0  0  0
   -1.9214    1.7709    3.3422 C   0  0  0  0  0  0  0  0  0  0  0  0
   -0.8029    2.2935    0.5161 H   0  0  0  0  0  0  0  0  0  0  0  0
   -3.3229    1.4811    1.7280 H   0  0  0  0  0  0  0  0  0  0  0  0
   -0.9999    2.3251    3.5465 H   0  0  0  0  0  0  0  0  0  0  0  0
   -2.6840    2.0816    4.0623 H   0  0  0  0  0  0  0  0  0  0  0  0
   -1.7255    0.7036    3.4860 H   0  0  0  0  0  0  0  0  0  0  0  0
   -3.9627    4.0264    2.0601 N   0  0  0  0  0  0  0  0  0  0  0  0
   -4.3569    5.4125    1.8446 C   0  0  0  0  0  0  0  0  0  0  0  0
   -4.6707    3.3507    2.3321 H   0  0  0  0  0  0  0  0  0  0  0  0
   -3.6828    6.0911    2.3780 H   0  0  0  0  0  0  0  0  0  0  0  0
   -4.3310    5.6555    0.7770 H   0  0  0  0  0  0  0  0  0  0  0  0
   -5.3736    5.5775    2.2140 H   0  0  0  0  0  0  0  0  0  0  0  0
  1  2  2  0  0  0  0
  1  3  1  0  0  0  0
  1  7  1  0  0  0  0
  3  4  1  0  0  0  0
  3  5  1  0  0  0  0
  3  6  1  0  0  0  0
  7  8  1  0  0  0  0
  7 12  1  0  0  0  0
  8  9  1  0  0  0  0
  8 11  1  0  0  0  0
  8 13  1  0  0  0  0
  9 10  2  0  0  0  0
  9 17  1  0  0  0  0
 11 14  1  0  0  0  0
 11 15  1  0  0  0  0
 11 16  1  0  0  0  0
 17 18  1  0  0  0  0
 17 26  1  0  0  0  0
 18 19  1  0  0  0  0
 18 21  1  0  0  0  0
 18 27  1  0  0  0  0
 19 20  2  0  0  0  0
 19 32  1  0  0  0  0
 21 22  1  0  0  0  0
 21 28  1  0  0  0  0
 21 29  1  0  0  0  0
 22 23  1  0  0  0  0
 22 30  1  0  0  0  0
 22 31  1  0  0  0  0
 23 24  1  0  0  0  0
 23 25  2  0  0  0  0
 32 33  1  0  0  0  0
 32 37  1  0  0  0  0
 33 34  1  0  0  0  0
 33 36  1  0  0  0  0
 33 38  1  0  0  0  0
 34 35  2  0  0  0  0
 34 42  1  0  0  0  0
 36 39  1  0  0  0  0
 36 40  1  0  0  0  0
 36 41  1  0  0  0  0
 42 43  1  0  0  0  0
 42 44  1  0  0  0  0
 43 45  1  0  0  0  0
 43 46  1  0  0  0  0
 43 47  1  0  0  0  0
M  CHG  1  24  -1
M  END
$$$$

  -OEChem-05262216243D

 47 46  0     1  0  0  0  0  0999 V2000
    0.1995   -5.8526    1.4962 C   0  0  0  0  0  0  0  0  0  0  0  0
    1.2371   -5.8489    2.1425 O   0  0  0  0  0  0  0  0  0  0  0  0
   -0.8895   -6.8595    1.8172 C   0  0  0  0  0  0  0  0  0  0  0  0
   -1.0792   -7.4921    0.9467 H   0  0  0  0  0  0  0  0  0  0  0  0
   -0.5837   -7.4924    2.6547 H   0  0  0  0  0  0  0  0  0  0  0  0
   -1.8113   -6.3376    2.0868 H   0  0  0  0  0  0  0  0  0  0  0  0
    0.0049   -4.9469    0.4773 N   0  0  0  0  0  0  0  0  0  0  0  0
    0.8628   -3.7841    0.2215 C   0  0  2  0  0  0  0  0  0  0  0  0
    0.0191   -2.5663   -0.2102 C   0  0  0  0  0  0  0  0  0  0  0  0
   -1.1331   -2.7503   -0.5893 O   0  0  0  0  0  0  0  0  0  0  0  0
    1.8706   -4.1577   -0.8692 C   0  0  0  0  0  0  0  0  0  0  0  0
   -0.9334   -4.8919    0.0790 H   0  0  0  0  0  0  0  0  0  0  0  0
    1.3995   -3.5049    1.1340 H   0  0  0  0  0  0  0  0  0  0  0  0
    1.3502   -4.4197   -1.7963 H   0  0  0  0  0  0  0  0  0  0  0  0
    2.5439   -3.3203   -1.0752 H   0  0  0  0  0  0  0  0  0  0  0  0
    2.4717   -5.0152   -0.5514 H   0  0  0  0  0  0  0  0  0  0  0  0
    0.5925   -1.3044   -0.1990 N   0  0  0  0  0  0  0  0  0  0  0  0
   -0.0960   -0.0302   -0.4881 C   0  0  2  0  0  0  0  0  0  0  0  0
   -1.2844    0.3315    0.4420 C   0  0  0  0  0  0  0  0  0  0  0  0
   -1.7771   -0.4632    1.2355 O   0  0  0  0  0  0  0  0  0  0  0  0
   -0.4908    0.0664   -1.9743 C   0  0  0  0  0  0  0  0  0  0  0  0
    0.7640    0.1609   -2.8641 C   0  0  0  0  0  0  0  0  0  0  0  0
    0.4068    0.2347   -4.3484 C   0  0  0  0  0  0  0  0  0  0  0  0
   -0.3587    1.1617   -4.7135 O   0  5  0  0  0  0  0  0  0  0  0  0
    0.9421   -0.5997   -5.1191 O   0  0  0  0  0  0  0  0  0  0  0  0
    1.5649   -1.2593    0.0830 H   0  0  0  0  0  0  0  0  0  0  0  0
    0.6403    0.7587   -0.3108 H   0  0  0  0  0  0  0  0  0  0  0  0
   -1.1050    0.9587   -2.1365 H   0  0  0  0  0  0  0  0  0  0  0  0
   -1.0930   -0.7982   -2.2708 H   0  0  0  0  0  0  0  0  0  0  0  0
    1.3377    1.0537   -2.5993 H   0  0  0  0  0  0  0  0  0  0  0  0
    1.4028   -0.7115   -2.6975 H   0  0  0  0  0  0  0  0  0  0  0  0
   -1.5605    1.6702    0.6665 N   0  0  0  0  0  0  0  0  0  0  0  0
   -2.5856    2.1613    1.5975 C   0  0  2  0  0  0  0  0  0  0  0  0
   -3.1997    3.4966    1.1314 C   0  0  0  0  0  0  0  0  0  0  0  0
   -2.5172    4.3124    0.5223 O   0  0  0  0  0  0  0  0  0  0  0  0
   -1.9509    2.3303    2.9817 C   0  0  0  0  0  0  0  0  0  0  0  0
   -1.1736    2.3429    0.0049 H   0  0  0  0  0  0  0  0  0  0  0  0
   -3.3988    1.4306    1.6611 H   0  0  0  0  0  0  0  0  0  0  0  0
   -1.1333    3.0571    2.9410 H   0  0  0  0  0  0  0  0  0  0  0  0
   -2.6949    2.6812    3.7030 H   0  0  0  0  0  0  0  0  0  0  0  0
   -1.5507    1.3751    3.3359 H   0  0  0  0  0  0  0  0  0  0  0  0
   -4.5191    3.7964    1.4211 N   0  0  0  0  0  0  0  0  0  0  0  0
   -5.1842    5.0025    0.9449 C   0  0  0  0  0  0  0  0  0  0  0  0
   -5.0773    3.0652    1.8519 H   0  0  0  0  0  0  0  0  0  0  0  0
   -4.6611    5.8958    1.3016 H   0  0  0  0  0  0  0  0  0  0  0  0
   -5.2063    5.0200   -0.1498 H   0  0  0  0  0  0  0  0  0  0  0  0
   -6.2136    5.0367    1.3137 H   0  0  0  0  0  0  0  0  0  0  0  0
  1  2  2  0  0  0  0
  1  3  1  0  0  0  0
  1  7  1  0  0  0  0
  3  4  1  0  0  0  0
  3  5  1  0  0  0  0
  3  6  1  0  0  0  0
  7  8  1  0  0  0  0
  7 12  1  0  0  0  0
  8  9  1  0  0  0  0
  8 11  1  0  0  0  0
  8 13  1  0  0  0  0
  9 10  2  0  0  0  0
  9 17  1  0  0  0  0
 11 14  1  0  0  0  0
 11 15  1  0  0  0  0
 11 16  1  0  0  0  0
 17 18  1  0  0  0  0
 17 26  1  0  0  0  0
 18 19  1  0  0  0  0
 18 21  1  0  0  0  0
 18 27  1  0  0  0  0
 19 20  2  0  0  0  0
 19 32  1  0  0  0  0
 21 22  1  0  0  0  0
 21 28  1  0  0  0  0
 21 29  1  0  0  0  0
 22 23  1  0  0  0  0
 22 30  1  0  0  0  0
 22 31  1  0  0  0  0
 23 24  1  0  0  0  0
 23 25  2  0  0  0  0
 32 33  1  0  0  0  0
 32 37  1  0  0  0  0
 33 34  1  0  0  0  0
 33 36  1  0  0  0  0
 33 38  1  0  0  0  0
 34 35  2  0  0  0  0
 34 42  1  0  0  0  0
 36 39  1  0  0  0  0
 36 40  1  0  0  0  0
 36 41  1  0  0  0  0
 42 43  1  0  0  0  0
 42 44  1  0  0  0  0
 43 45  1  0  0  0  0
 43 46  1  0  0  0  0
 43 47  1  0  0  0  0
M  CHG  1  24  -1
M  END
$$$$

  -OEChem-05262216243D

 47 46  0     1  0  0  0  0  0999 V2000
    0.1972   -5.8241    1.4968 C   0  0  0  0  0  0  0  0  0  0  0  0
    1.2478   -5.8318    2.1215 O   0  0  0  0  0  0  0  0  0  0  0  0
   -0.8973   -6.8170    1.8424 C   0  0  0  0  0  0  0  0  0  0  0  0
   -1.1619   -7.4023    0.9583 H   0  0  0  0  0  0  0  0  0  0  0  0
   -0.5571   -7.4976    2.6277 H   0  0  0  0  0  0  0  0  0  0  0  0
   -1.7837   -6.2842    2.1963 H   0  0  0  0  0  0  0  0  0  0  0  0
   -0.0096   -4.9170    0.4813 N   0  0  0  0  0  0  0  0  0  0  0  0
    0.8496   -3.7577    0.2139 C   0  0  2  0  0  0  0  0  0  0  0  0
    0.0044   -2.5243   -0.1670 C   0  0  0  0  0  0  0  0  0  0  0  0
   -1.1672   -2.6845   -0.4970 O   0  0  0  0  0  0  0  0  0  0  0  0
    1.8121   -4.1187   -0.9209 C   0  0  0  0  0  0  0  0  0  0  0  0
   -0.9568   -4.8518    0.1072 H   0  0  0  0  0  0  0  0  0  0  0  0
    1.4228   -3.4993    1.1102 H   0  0  0  0  0  0  0  0  0  0  0  0
    1.2544   -4.3679   -1.8298 H   0  0  0  0  0  0  0  0  0  0  0  0
    2.4775   -3.2790   -1.1436 H   0  0  0  0  0  0  0  0  0  0  0  0
    2.4246   -4.9807   -0.6385 H   0  0  0  0  0  0  0  0  0  0  0  0
    0.5915   -1.2693   -0.1617 N   0  0  0  0  0  0  0  0  0  0  0  0
   -0.0849   -0.0011   -0.4958 C   0  0  2  0  0  0  0  0  0  0  0  0
   -1.2957    0.3641    0.4027 C   0  0  0  0  0  0  0  0  0  0  0  0
   -1.6162   -0.3162    1.3731 O   0  0  0  0  0  0  0  0  0  0  0  0
   -0.4338    0.0495   -1.9970 C   0  0  0  0  0  0  0  0  0  0  0  0
    0.8498    0.1162   -2.8468 C   0  0  0  0  0  0  0  0  0  0  0  0
    0.5424    0.1438   -4.3434 C   0  0  0  0  0  0  0  0  0  0  0  0
   -0.2052    1.0613   -4.7637 O   0  5  0  0  0  0  0  0  0  0  0  0
    1.0926   -0.7219   -5.0673 O   0  0  0  0  0  0  0  0  0  0  0  0
    1.5799   -1.2351    0.0594 H   0  0  0  0  0  0  0  0  0  0  0  0
    0.6392    0.7978   -0.3131 H   0  0  0  0  0  0  0  0  0  0  0  0
   -1.0409    0.9357   -2.2103 H   0  0  0  0  0  0  0  0  0  0  0  0
   -1.0262   -0.8245   -2.2863 H   0  0  0  0  0  0  0  0  0  0  0  0
    1.4142    1.0172   -2.5906 H   0  0  0  0  0  0  0  0  0  0  0  0
    1.4822   -0.7501   -2.6328 H   0  0  0  0  0  0  0  0  0  0  0  0
   -1.7903    1.6571    0.3682 N   0  0  0  0  0  0  0  0  0  0  0  0
   -2.8558    2.1590    1.2463 C   0  0  2  0  0  0  0  0  0  0  0  0
   -3.7042    3.2510    0.5659 C   0  0  0  0  0  0  0  0  0  0  0  0
   -3.1914    4.0311   -0.2278 O   0  0  0  0  0  0  0  0  0  0  0  0
   -2.2185    2.7115    2.5249 C   0  0  0  0  0  0  0  0  0  0  0  0
   -1.5366    2.2327   -0.4352 H   0  0  0  0  0  0  0  0  0  0  0  0
   -3.5293    1.3358    1.5072 H   0  0  0  0  0  0  0  0  0  0  0  0
   -1.5344    3.5321    2.2866 H   0  0  0  0  0  0  0  0  0  0  0  0
   -2.9895    3.0853    3.2053 H   0  0  0  0  0  0  0  0  0  0  0  0
   -1.6553    1.9262    3.0389 H   0  0  0  0  0  0  0  0  0  0  0  0
   -5.0467    3.3801    0.8740 N   0  0  0  0  0  0  0  0  0  0  0  0
   -5.9230    4.3451    0.2232 C   0  0  0  0  0  0  0  0  0  0  0  0
   -5.4570    2.6677    1.4703 H   0  0  0  0  0  0  0  0  0  0  0  0
   -5.5363    5.3616    0.3521 H   0  0  0  0  0  0  0  0  0  0  0  0
   -6.0009    4.1297   -0.8477 H   0  0  0  0  0  0  0  0  0  0  0  0
   -6.9250    4.3001    0.6606 H   0  0  0  0  0  0  0  0  0  0  0  0
  1  2  2  0  0  0  0
  1  3  1  0  0  0  0
  1  7  1  0  0  0  0
  3  4  1  0  0  0  0
  3  5  1  0  0  0  0
  3  6  1  0  0  0  0
  7  8  1  0  0  0  0
  7 12  1  0  0  0  0
  8  9  1  0  0  0  0
  8 11  1  0  0  0  0
  8 13  1  0  0  0  0
  9 10  2  0  0  0  0
  9 17  1  0  0  0  0
 11 14  1  0  0  0  0
 11 15  1  0  0  0  0
 11 16  1  0  0  0  0
 17 18  1  0  0  0  0
 17 26  1  0  0  0  0
 18 19  1  0  0  0  0
 18 21  1  0  0  0  0
 18 27  1  0  0  0  0
 19 20  2  0  0  0  0
 19 32  1  0  0  0  0
 21 22  1  0  0  0  0
 21 28  1  0  0  0  0
 21 29  1  0  0  0  0
 22 23  1  0  0  0  0
 22 30  1  0  0  0  0
 22 31  1  0  0  0  0
 23 24  1  0  0  0  0
 23 25  2  0  0  0  0
 32 33  1  0  0  0  0
 32 37  1  0  0  0  0
 33 34  1  0  0  0  0
 33 36  1  0  0  0  0
 33 38  1  0  0  0  0
 34 35  2  0  0  0  0
 34 42  1  0  0  0  0
 36 39  1  0  0  0  0
 36 40  1  0  0  0  0
 36 41  1  0  0  0  0
 42 43  1  0  0  0  0
 42 44  1  0  0  0  0
 43 45  1  0  0  0  0
 43 46  1  0  0  0  0
 43 47  1  0  0  0  0
M  CHG  1  24  -1
M  END
$$$$

  -OEChem-05262216243D

 47 46  0     1  0  0  0  0  0999 V2000
    0.2588   -5.8766    1.4336 C   0  0  0  0  0  0  0  0  0  0  0  0
    1.3896   -5.9552    1.8906 O   0  0  0  0  0  0  0  0  0  0  0  0
   -0.8112   -6.8512    1.8905 C   0  0  0  0  0  0  0  0  0  0  0  0
   -1.1984   -7.4080    1.0337 H   0  0  0  0  0  0  0  0  0  0  0  0
   -0.3950   -7.5587    2.6129 H   0  0  0  0  0  0  0  0  0  0  0  0
   -1.6324   -6.3062    2.3628 H   0  0  0  0  0  0  0  0  0  0  0  0
   -0.0630   -4.9013    0.5157 N   0  0  0  0  0  0  0  0  0  0  0  0
    0.7890   -3.7503    0.1915 C   0  0  2  0  0  0  0  0  0  0  0  0
   -0.0518   -2.4618    0.0628 C   0  0  0  0  0  0  0  0  0  0  0  0
   -1.2762   -2.5477    0.0205 O   0  0  0  0  0  0  0  0  0  0  0  0
    1.5183   -4.0491   -1.1218 C   0  0  0  0  0  0  0  0  0  0  0  0
   -1.0528   -4.7850    0.2972 H   0  0  0  0  0  0  0  0  0  0  0  0
    1.5228   -3.5866    0.9876 H   0  0  0  0  0  0  0  0  0  0  0  0
    0.7994   -4.1783   -1.9379 H   0  0  0  0  0  0  0  0  0  0  0  0
    2.1935   -3.2294   -1.3842 H   0  0  0  0  0  0  0  0  0  0  0  0
    2.1084   -4.9658   -1.0283 H   0  0  0  0  0  0  0  0  0  0  0  0
    0.5783   -1.2293    0.0135 N   0  0  0  0  0  0  0  0  0  0  0  0
   -0.0658    0.0242   -0.4290 C   0  0  2  0  0  0  0  0  0  0  0  0
   -1.0469    0.6218    0.6119 C   0  0  0  0  0  0  0  0  0  0  0  0
   -1.0532    0.2324    1.7767 O   0  0  0  0  0  0  0  0  0  0  0  0
   -0.6557   -0.1085   -1.8511 C   0  0  0  0  0  0  0  0  0  0  0  0
    0.4779   -0.2802   -2.8803 C   0  0  0  0  0  0  0  0  0  0  0  0
   -0.0626   -0.4398   -4.2999 C   0  0  0  0  0  0  0  0  0  0  0  0
   -0.7661    0.4922   -4.7611 O   0  5  0  0  0  0  0  0  0  0  0  0
    0.2613   -1.4758   -4.9306 O   0  0  0  0  0  0  0  0  0  0  0  0
    1.5914   -1.2571   -0.0011 H   0  0  0  0  0  0  0  0  0  0  0  0
    0.7264    0.7747   -0.4991 H   0  0  0  0  0  0  0  0  0  0  0  0
   -1.2202    0.7933   -2.1087 H   0  0  0  0  0  0  0  0  0  0  0  0
   -1.3526   -0.9489   -1.9170 H   0  0  0  0  0  0  0  0  0  0  0  0
    1.1347    0.5938   -2.8549 H   0  0  0  0  0  0  0  0  0  0  0  0
    1.0790   -1.1586   -2.6302 H   0  0  0  0  0  0  0  0  0  0  0  0
   -1.7289    1.7958    0.3382 N   0  0  0  0  0  0  0  0  0  0  0  0
   -2.6396    2.4576    1.2827 C   0  0  2  0  0  0  0  0  0  0  0  0
   -3.7791    3.2149    0.5725 C   0  0  0  0  0  0  0  0  0  0  0  0
   -3.5986    3.7243   -0.5269 O   0  0  0  0  0  0  0  0  0  0  0  0
   -1.8296    3.4252    2.1510 C   0  0  0  0  0  0  0  0  0  0  0  0
   -1.7538    2.1065   -0.6334 H   0  0  0  0  0  0  0  0  0  0  0  0
   -3.1051    1.7024    1.9244 H   0  0  0  0  0  0  0  0  0  0  0  0
   -1.3524    4.1888    1.5283 H   0  0  0  0  0  0  0  0  0  0  0  0
   -2.4794    3.9220    2.8777 H   0  0  0  0  0  0  0  0  0  0  0  0
   -1.0512    2.8841    2.6977 H   0  0  0  0  0  0  0  0  0  0  0  0
   -5.0095    3.3525    1.1903 N   0  0  0  0  0  0  0  0  0  0  0  0
   -6.1525    3.9959    0.5557 C   0  0  0  0  0  0  0  0  0  0  0  0
   -5.1474    2.8563    2.0657 H   0  0  0  0  0  0  0  0  0  0  0  0
   -5.9131    5.0322    0.2949 H   0  0  0  0  0  0  0  0  0  0  0  0
   -6.4363    3.4589   -0.3555 H   0  0  0  0  0  0  0  0  0  0  0  0
   -7.0090    4.0007    1.2365 H   0  0  0  0  0  0  0  0  0  0  0  0
  1  2  2  0  0  0  0
  1  3  1  0  0  0  0
  1  7  1  0  0  0  0
  3  4  1  0  0  0  0
  3  5  1  0  0  0  0
  3  6  1  0  0  0  0
  7  8  1  0  0  0  0
  7 12  1  0  0  0  0
  8  9  1  0  0  0  0
  8 11  1  0  0  0  0
  8 13  1  0  0  0  0
  9 10  2  0  0  0  0
  9 17  1  0  0  0  0
 11 14  1  0  0  0  0
 11 15  1  0  0  0  0
 11 16  1  0  0  0  0
 17 18  1  0  0  0  0
 17 26  1  0  0  0  0
 18 19  1  0  0  0  0
 18 21  1  0  0  0  0
 18 27  1  0  0  0  0
 19 20  2  0  0  0  0
 19 32  1  0  0  0  0
 21 22  1  0  0  0  0
 21 28  1  0  0  0  0
 21 29  1  0  0  0  0
 22 23  1  0  0  0  0
 22 30  1  0  0  0  0
 22 31  1  0  0  0  0
 23 24  1  0  0  0  0
 23 25  2  0  0  0  0
 32 33  1  0  0  0  0
 32 37  1  0  0  0  0
 33 34  1  0  0  0  0
 33 36  1  0  0  0  0
 33 38  1  0  0  0  0
 34 35  2  0  0  0  0
 34 42  1  0  0  0  0
 36 39  1  0  0  0  0
 36 40  1  0  0  0  0
 36 41  1  0  0  0  0
 42 43  1  0  0  0  0
 42 44  1  0  0  0  0
 43 45  1  0  0  0  0
 43 46  1  0  0  0  0
 43 47  1  0  0  0  0
M  CHG  1  24  -1
M  END
$$$$

  -OEChem-05262216243D

 47 46  0     1  0  0  0  0  0999 V2000
    0.2305   -5.8146    1.4679 C   0  0  0  0  0  0  0  0  0  0  0  0
    1.3493   -5.8696    1.9567 O   0  0  0  0  0  0  0  0  0  0  0  0
   -0.8374   -6.7970    1.9125 C   0  0  0  0  0  0  0  0  0  0  0  0
   -1.1507   -7.4131    1.0663 H   0  0  0  0  0  0  0  0  0  0  0  0
   -0.4479   -7.4486    2.6994 H   0  0  0  0  0  0  0  0  0  0  0  0
   -1.7037   -6.2551    2.3001 H   0  0  0  0  0  0  0  0  0  0  0  0
   -0.0766   -4.8645    0.5188 N   0  0  0  0  0  0  0  0  0  0  0  0
    0.7751   -3.7154    0.1881 C   0  0  2  0  0  0  0  0  0  0  0  0
   -0.0632   -2.4284    0.0399 C   0  0  0  0  0  0  0  0  0  0  0  0
   -1.2885   -2.5063    0.0018 O   0  0  0  0  0  0  0  0  0  0  0  0
    1.5152   -4.0267   -1.1160 C   0  0  0  0  0  0  0  0  0  0  0  0
   -1.0616   -4.7610    0.2753 H   0  0  0  0  0  0  0  0  0  0  0  0
    1.5036   -3.5415    0.9867 H   0  0  0  0  0  0  0  0  0  0  0  0
    0.8032   -4.1670   -1.9368 H   0  0  0  0  0  0  0  0  0  0  0  0
    2.1907   -3.2079   -1.3817 H   0  0  0  0  0  0  0  0  0  0  0  0
    2.1071   -4.9408   -1.0065 H   0  0  0  0  0  0  0  0  0  0  0  0
    0.5691   -1.1983   -0.0102 N   0  0  0  0  0  0  0  0  0  0  0  0
   -0.0655    0.0469   -0.4842 C   0  0  2  0  0  0  0  0  0  0  0  0
   -1.0669    0.6360    0.5428 C   0  0  0  0  0  0  0  0  0  0  0  0
   -0.9329    0.4112    1.7432 O   0  0  0  0  0  0  0  0  0  0  0  0
   -0.6174   -0.1103   -1.9203 C   0  0  0  0  0  0  0  0  0  0  0  0
    0.5442   -0.2945   -2.9156 C   0  0  0  0  0  0  0  0  0  0  0  0
    0.0389   -0.4777   -4.3448 C   0  0  0  0  0  0  0  0  0  0  0  0
   -0.5706    0.4866   -4.8691 O   0  5  0  0  0  0  0  0  0  0  0  0
    0.2900   -1.5669   -4.9165 O   0  0  0  0  0  0  0  0  0  0  0  0
    1.5822   -1.2288   -0.0212 H   0  0  0  0  0  0  0  0  0  0  0  0
    0.7214    0.8042   -0.5437 H   0  0  0  0  0  0  0  0  0  0  0  0
   -1.1725    0.7869   -2.2113 H   0  0  0  0  0  0  0  0  0  0  0  0
   -1.3111   -0.9533   -1.9915 H   0  0  0  0  0  0  0  0  0  0  0  0
    1.1993    0.5807   -2.8869 H   0  0  0  0  0  0  0  0  0  0  0  0
    1.1407   -1.1679   -2.6378 H   0  0  0  0  0  0  0  0  0  0  0  0
   -1.9830    1.6084    0.1791 N   0  0  0  0  0  0  0  0  0  0  0  0
   -2.9593    2.2045    1.1010 C   0  0  2  0  0  0  0  0  0  0  0  0
   -4.2720    2.5963    0.3938 C   0  0  0  0  0  0  0  0  0  0  0  0
   -4.2687    2.9350   -0.7833 O   0  0  0  0  0  0  0  0  0  0  0  0
   -2.3249    3.4361    1.7538 C   0  0  0  0  0  0  0  0  0  0  0  0
   -2.1274    1.7628   -0.8191 H   0  0  0  0  0  0  0  0  0  0  0  0
   -3.2150    1.4771    1.8784 H   0  0  0  0  0  0  0  0  0  0  0  0
   -2.0578    4.1761    0.9929 H   0  0  0  0  0  0  0  0  0  0  0  0
   -3.0214    3.8969    2.4602 H   0  0  0  0  0  0  0  0  0  0  0  0
   -1.4186    3.1530    2.2978 H   0  0  0  0  0  0  0  0  0  0  0  0
   -5.4651    2.6008    1.0946 N   0  0  0  0  0  0  0  0  0  0  0  0
   -6.7473    2.9217    0.4809 C   0  0  0  0  0  0  0  0  0  0  0  0
   -5.4473    2.2534    2.0487 H   0  0  0  0  0  0  0  0  0  0  0  0
   -6.7413    3.9475    0.0975 H   0  0  0  0  0  0  0  0  0  0  0  0
   -6.9575    2.2370   -0.3475 H   0  0  0  0  0  0  0  0  0  0  0  0
   -7.5522    2.8323    1.2165 H   0  0  0  0  0  0  0  0  0  0  0  0
  1  2  2  0  0  0  0
  1  3  1  0  0  0  0
  1  7  1  0  0  0  0
  3  4  1  0  0  0  0
  3  5  1  0  0  0  0
  3  6  1  0  0  0  0
  7  8  1  0  0  0  0
  7 12  1  0  0  0  0
  8  9  1  0  0  0  0
  8 11  1  0  0  0  0
  8 13  1  0  0  0  0
  9 10  2  0  0  0  0
  9 17  1  0  0  0  0
 11 14  1  0  0  0  0
 11 15  1  0  0  0  0
 11 16  1  0  0  0  0
 17 18  1  0  0  0  0
 17 26  1  0  0  0  0
 18 19  1  0  0  0  0
 18 21  1  0  0  0  0
 18 27  1  0  0  0  0
 19 20  2  0  0  0  0
 19 32  1  0  0  0  0
 21 22  1  0  0  0  0
 21 28  1  0  0  0  0
 21 29  1  0  0  0  0
 22 23  1  0  0  0  0
 22 30  1  0  0  0  0
 22 31  1  0  0  0  0
 23 24  1  0  0  0  0
 23 25  2  0  0  0  0
 32 33  1  0  0  0  0
 32 37  1  0  0  0  0
 33 34  1  0  0  0  0
 33 36  1  0  0  0  0
 33 38  1  0  0  0  0
 34 35  2  0  0  0  0
 34 42  1  0  0  0  0
 36 39  1  0  0  0  0
 36 40  1  0  0  0  0
 36 41  1  0  0  0  0
 42 43  1  0  0  0  0
 42 44  1  0  0  0  0
 43 45  1  0  0  0  0
 43 46  1  0  0  0  0
 43 47  1  0  0  0  0
M  CHG  1  24  -1
M  END
$$$$

  -OEChem-05262216243D

 47 46  0     1  0  0  0  0  0999 V2000
    0.2058   -5.7879    1.4564 C   0  0  0  0  0  0  0  0  0  0  0  0
    1.3171   -5.8437    1.9620 O   0  0  0  0  0  0  0  0  0  0  0  0
   -0.8687   -6.7728    1.8800 C   0  0  0  0  0  0  0  0  0  0  0  0
   -1.1877   -7.3681    1.0209 H   0  0  0  0  0  0  0  0  0  0  0  0
   -0.4832   -7.4443    2.6519 H   0  0  0  0  0  0  0  0  0  0  0  0
   -1.7310   -6.2339    2.2806 H   0  0  0  0  0  0  0  0  0  0  0  0
   -0.0890   -4.8334    0.5080 N   0  0  0  0  0  0  0  0  0  0  0  0
    0.7664   -3.6830    0.1901 C   0  0  2  0  0  0  0  0  0  0  0  0
   -0.0678   -2.3907    0.0616 C   0  0  0  0  0  0  0  0  0  0  0  0
   -1.2942   -2.4592    0.0410 O   0  0  0  0  0  0  0  0  0  0  0  0
    1.5006   -3.9822   -1.1203 C   0  0  0  0  0  0  0  0  0  0  0  0
   -1.0705   -4.7333    0.2494 H   0  0  0  0  0  0  0  0  0  0  0  0
    1.4990   -3.5223    0.9877 H   0  0  0  0  0  0  0  0  0  0  0  0
    0.7860   -4.0987   -1.9421 H   0  0  0  0  0  0  0  0  0  0  0  0
    2.1870   -3.1688   -1.3732 H   0  0  0  0  0  0  0  0  0  0  0  0
    2.0801   -4.9060   -1.0279 H   0  0  0  0  0  0  0  0  0  0  0  0
    0.5650   -1.1616    0.0064 N   0  0  0  0  0  0  0  0  0  0  0  0
   -0.0678    0.0692   -0.5050 C   0  0  2  0  0  0  0  0  0  0  0  0
   -1.0934    0.6607    0.4939 C   0  0  0  0  0  0  0  0  0  0  0  0
   -0.8513    0.6488    1.6983 O   0  0  0  0  0  0  0  0  0  0  0  0
   -0.5871   -0.1180   -1.9492 C   0  0  0  0  0  0  0  0  0  0  0  0
    0.5967   -0.3114   -2.9142 C   0  0  0  0  0  0  0  0  0  0  0  0
    0.1212   -0.5240   -4.3490 C   0  0  0  0  0  0  0  0  0  0  0  0
   -0.4734    0.4298   -4.9081 O   0  5  0  0  0  0  0  0  0  0  0  0
    0.3771   -1.6284   -4.8884 O   0  0  0  0  0  0  0  0  0  0  0  0
    1.5778   -1.1961   -0.0188 H   0  0  0  0  0  0  0  0  0  0  0  0
    0.7125    0.8334   -0.5611 H   0  0  0  0  0  0  0  0  0  0  0  0
   -1.1381    0.7726   -2.2684 H   0  0  0  0  0  0  0  0  0  0  0  0
   -1.2749   -0.9664   -2.0195 H   0  0  0  0  0  0  0  0  0  0  0  0
    1.2435    0.5700   -2.8868 H   0  0  0  0  0  0  0  0  0  0  0  0
    1.1933   -1.1748   -2.6077 H   0  0  0  0  0  0  0  0  0  0  0  0
   -2.1995    1.3755    0.0676 N   0  0  0  0  0  0  0  0  0  0  0  0
   -3.2302    1.9043    0.9695 C   0  0  2  0  0  0  0  0  0  0  0  0
   -4.6340    1.8872    0.3320 C   0  0  0  0  0  0  0  0  0  0  0  0
   -4.7732    1.9992   -0.8799 O   0  0  0  0  0  0  0  0  0  0  0  0
   -2.8445    3.3328    1.3634 C   0  0  0  0  0  0  0  0  0  0  0  0
   -2.4341    1.3166   -0.9237 H   0  0  0  0  0  0  0  0  0  0  0  0
   -3.2781    1.2832    1.8699 H   0  0  0  0  0  0  0  0  0  0  0  0
   -2.7913    3.9720    0.4762 H   0  0  0  0  0  0  0  0  0  0  0  0
   -3.5831    3.7523    2.0528 H   0  0  0  0  0  0  0  0  0  0  0  0
   -1.8675    3.3393    1.8569 H   0  0  0  0  0  0  0  0  0  0  0  0
   -5.7564    1.7756    1.1333 N   0  0  0  0  0  0  0  0  0  0  0  0
   -7.1114    1.7085    0.6022 C   0  0  0  0  0  0  0  0  0  0  0  0
   -5.6065    1.6193    2.1254 H   0  0  0  0  0  0  0  0  0  0  0  0
   -7.3497    2.6214    0.0466 H   0  0  0  0  0  0  0  0  0  0  0  0
   -7.2174    0.8493   -0.0686 H   0  0  0  0  0  0  0  0  0  0  0  0
   -7.8319    1.6022    1.4185 H   0  0  0  0  0  0  0  0  0  0  0  0
  1  2  2  0  0  0  0
  1  3  1  0  0  0  0
  1  7  1  0  0  0  0
  3  4  1  0  0  0  0
  3  5  1  0  0  0  0
  3  6  1  0  0  0  0
  7  8  1  0  0  0  0
  7 12  1  0  0  0  0
  8  9  1  0  0  0  0
  8 11  1  0  0  0  0
  8 13  1  0  0  0  0
  9 10  2  0  0  0  0
  9 17  1  0  0  0  0
 11 14  1  0  0  0  0
 11 15  1  0  0  0  0
 11 16  1  0  0  0  0
 17 18  1  0  0  0  0
 17 26  1  0  0  0  0
 18 19  1  0  0  0  0
 18 21  1  0  0  0  0
 18 27  1  0  0  0  0
 19 20  2  0  0  0  0
 19 32  1  0  0  0  0
 21 22  1  0  0  0  0
 21 28  1  0  0  0  0
 21 29  1  0  0  0  0
 22 23  1  0  0  0  0
 22 30  1  0  0  0  0
 22 31  1  0  0  0  0
 23 24  1  0  0  0  0
 23 25  2  0  0  0  0
 32 33  1  0  0  0  0
 32 37  1  0  0  0  0
 33 34  1  0  0  0  0
 33 36  1  0  0  0  0
 33 38  1  0  0  0  0
 34 35  2  0  0  0  0
 34 42  1  0  0  0  0
 36 39  1  0  0  0  0
 36 40  1  0  0  0  0
 36 41  1  0  0  0  0
 42 43  1  0  0  0  0
 42 44  1  0  0  0  0
 43 45  1  0  0  0  0
 43 46  1  0  0  0  0
 43 47  1  0  0  0  0
M  CHG  1  24  -1
M  END
$$$$

  -OEChem-05262216243D

 47 46  0     1  0  0  0  0  0999 V2000
    0.2022   -5.7670    1.4404 C   0  0  0  0  0  0  0  0  0  0  0  0
    1.3034   -5.8139    1.9681 O   0  0  0  0  0  0  0  0  0  0  0  0
   -0.8738   -6.7572    1.8463 C   0  0  0  0  0  0  0  0  0  0  0  0
   -1.1822   -7.3466    0.9794 H   0  0  0  0  0  0  0  0  0  0  0  0
   -0.4953   -7.4336    2.6175 H   0  0  0  0  0  0  0  0  0  0  0  0
   -1.7408   -6.2220    2.2414 H   0  0  0  0  0  0  0  0  0  0  0  0
   -0.0823   -4.8163    0.4849 N   0  0  0  0  0  0  0  0  0  0  0  0
    0.7688   -3.6584    0.1833 C   0  0  2  0  0  0  0  0  0  0  0  0
   -0.0709   -2.3679    0.0703 C   0  0  0  0  0  0  0  0  0  0  0  0
   -1.2972   -2.4392    0.0577 O   0  0  0  0  0  0  0  0  0  0  0  0
    1.5025   -3.9386   -1.1313 C   0  0  0  0  0  0  0  0  0  0  0  0
   -1.0602   -4.7228    0.2113 H   0  0  0  0  0  0  0  0  0  0  0  0
    1.5015   -3.5057    0.9825 H   0  0  0  0  0  0  0  0  0  0  0  0
    0.7881   -4.0372   -1.9559 H   0  0  0  0  0  0  0  0  0  0  0  0
    2.1933   -3.1245   -1.3692 H   0  0  0  0  0  0  0  0  0  0  0  0
    2.0772   -4.8667   -1.0546 H   0  0  0  0  0  0  0  0  0  0  0  0
    0.5514   -1.1332    0.0217 N   0  0  0  0  0  0  0  0  0  0  0  0
   -0.0887    0.0809   -0.5187 C   0  0  2  0  0  0  0  0  0  0  0  0
   -1.1462    0.6579    0.4532 C   0  0  0  0  0  0  0  0  0  0  0  0
   -0.8429    0.8622    1.6259 O   0  0  0  0  0  0  0  0  0  0  0  0
   -0.5728   -0.1286   -1.9717 C   0  0  0  0  0  0  0  0  0  0  0  0
    0.6331   -0.3140   -2.9109 C   0  0  0  0  0  0  0  0  0  0  0  0
    0.1891   -0.5482   -4.3527 C   0  0  0  0  0  0  0  0  0  0  0  0
   -0.3894    0.3978   -4.9413 O   0  5  0  0  0  0  0  0  0  0  0  0
    0.4494   -1.6642   -4.8656 O   0  0  0  0  0  0  0  0  0  0  0  0
    1.5645   -1.1619   -0.0114 H   0  0  0  0  0  0  0  0  0  0  0  0
    0.6788    0.8590   -0.5645 H   0  0  0  0  0  0  0  0  0  0  0  0
   -1.1298    0.7525   -2.3078 H   0  0  0  0  0  0  0  0  0  0  0  0
   -1.2463   -0.9880   -2.0484 H   0  0  0  0  0  0  0  0  0  0  0  0
    1.2668    0.5770   -2.8799 H   0  0  0  0  0  0  0  0  0  0  0  0
    1.2369   -1.1648   -2.5843 H   0  0  0  0  0  0  0  0  0  0  0  0
   -2.3927    1.0745    0.0196 N   0  0  0  0  0  0  0  0  0  0  0  0
   -3.4604    1.5355    0.9160 C   0  0  2  0  0  0  0  0  0  0  0  0
   -4.8629    1.1405    0.4104 C   0  0  0  0  0  0  0  0  0  0  0  0
   -5.0871    1.0241   -0.7884 O   0  0  0  0  0  0  0  0  0  0  0  0
   -3.3530    3.0568    1.0528 C   0  0  0  0  0  0  0  0  0  0  0  0
   -2.6656    0.7950   -0.9232 H   0  0  0  0  0  0  0  0  0  0  0  0
   -3.3323    1.0761    1.9015 H   0  0  0  0  0  0  0  0  0  0  0  0
   -3.4856    3.5378    0.0783 H   0  0  0  0  0  0  0  0  0  0  0  0
   -4.1181    3.4352    1.7370 H   0  0  0  0  0  0  0  0  0  0  0  0
   -2.3698    3.3327    1.4467 H   0  0  0  0  0  0  0  0  0  0  0  0
   -5.8944    0.9423    1.3114 N   0  0  0  0  0  0  0  0  0  0  0  0
   -7.2277    0.5103    0.9124 C   0  0  0  0  0  0  0  0  0  0  0  0
   -5.6603    0.9711    2.2990 H   0  0  0  0  0  0  0  0  0  0  0  0
   -7.6693    1.2267    0.2116 H   0  0  0  0  0  0  0  0  0  0  0  0
   -7.1827   -0.4722    0.4310 H   0  0  0  0  0  0  0  0  0  0  0  0
   -7.8798    0.4386    1.7879 H   0  0  0  0  0  0  0  0  0  0  0  0
  1  2  2  0  0  0  0
  1  3  1  0  0  0  0
  1  7  1  0  0  0  0
  3  4  1  0  0  0  0
  3  5  1  0  0  0  0
  3  6  1  0  0  0  0
  7  8  1  0  0  0  0
  7 12  1  0  0  0  0
  8  9  1  0  0  0  0
  8 11  1  0  0  0  0
  8 13  1  0  0  0  0
  9 10  2  0  0  0  0
  9 17  1  0  0  0  0
 11 14  1  0  0  0  0
 11 15  1  0  0  0  0
 11 16  1  0  0  0  0
 17 18  1  0  0  0  0
 17 26  1  0  0  0  0
 18 19  1  0  0  0  0
 18 21  1  0  0  0  0
 18 27  1  0  0  0  0
 19 20  2  0  0  0  0
 19 32  1  0  0  0  0
 21 22  1  0  0  0  0
 21 28  1  0  0  0  0
 21 29  1  0  0  0  0
 22 23  1  0  0  0  0
 22 30  1  0  0  0  0
 22 31  1  0  0  0  0
 23 24  1  0  0  0  0
 23 25  2  0  0  0  0
 32 33  1  0  0  0  0
 32 37  1  0  0  0  0
 33 34  1  0  0  0  0
 33 36  1  0  0  0  0
 33 38  1  0  0  0  0
 34 35  2  0  0  0  0
 34 42  1  0  0  0  0
 36 39  1  0  0  0  0
 36 40  1  0  0  0  0
 36 41  1  0  0  0  0
 42 43  1  0  0  0  0
 42 44  1  0  0  0  0
 43 45  1  0  0  0  0
 43 46  1  0  0  0  0
 43 47  1  0  0  0  0
M  CHG  1  24  -1
M  END
$$$$

  -OEChem-05262216243D

 47 46  0     1  0  0  0  0  0999 V2000
    0.2120   -5.7461    1.4354 C   0  0  0  0  0  0  0  0  0  0  0  0
    1.2900   -5.7582    2.0108 O   0  0  0  0  0  0  0  0  0  0  0  0
   -0.8613   -6.7475    1.8202 C   0  0  0  0  0  0  0  0  0  0  0  0
   -1.1219   -7.3644    0.9568 H   0  0  0  0  0  0  0  0  0  0  0  0
   -0.5026   -7.3972    2.6232 H   0  0  0  0  0  0  0  0  0  0  0  0
   -1.7545   -6.2204    2.1647 H   0  0  0  0  0  0  0  0  0  0  0  0
   -0.0506   -4.8226    0.4473 N   0  0  0  0  0  0  0  0  0  0  0  0
    0.7852   -3.6484    0.1649 C   0  0  2  0  0  0  0  0  0  0  0  0
   -0.0722   -2.3696    0.0613 C   0  0  0  0  0  0  0  0  0  0  0  0
   -1.2971   -2.4573    0.0428 O   0  0  0  0  0  0  0  0  0  0  0  0
    1.5319   -3.9036   -1.1476 C   0  0  0  0  0  0  0  0  0  0  0  0
   -1.0205   -4.7516    0.1405 H   0  0  0  0  0  0  0  0  0  0  0  0
    1.5115   -3.4933    0.9691 H   0  0  0  0  0  0  0  0  0  0  0  0
    0.8261   -3.9928   -1.9807 H   0  0  0  0  0  0  0  0  0  0  0  0
    2.2209   -3.0825   -1.3662 H   0  0  0  0  0  0  0  0  0  0  0  0
    2.1111   -4.8296   -1.0799 H   0  0  0  0  0  0  0  0  0  0  0  0
    0.5292   -1.1243    0.0283 N   0  0  0  0  0  0  0  0  0  0  0  0
   -0.1240    0.0758   -0.5269 C   0  0  2  0  0  0  0  0  0  0  0  0
   -1.2128    0.6274    0.4215 C   0  0  0  0  0  0  0  0  0  0  0  0
   -0.8910    1.0436    1.5313 O   0  0  0  0  0  0  0  0  0  0  0  0
   -0.5801   -0.1441   -1.9866 C   0  0  0  0  0  0  0  0  0  0  0  0
    0.6441   -0.3082   -2.9056 C   0  0  0  0  0  0  0  0  0  0  0  0
    0.2304   -0.5529   -4.3546 C   0  0  0  0  0  0  0  0  0  0  0  0
   -0.3881    0.3652   -4.9466 O   0  5  0  0  0  0  0  0  0  0  0  0
    0.5548   -1.6513   -4.8691 O   0  0  0  0  0  0  0  0  0  0  0  0
    1.5429   -1.1384   -0.0043 H   0  0  0  0  0  0  0  0  0  0  0  0
    0.6281    0.8699   -0.5595 H   0  0  0  0  0  0  0  0  0  0  0  0
   -1.1513    0.7269   -2.3273 H   0  0  0  0  0  0  0  0  0  0  0  0
   -1.2343   -1.0170   -2.0746 H   0  0  0  0  0  0  0  0  0  0  0  0
    1.2581    0.5962   -2.8670 H   0  0  0  0  0  0  0  0  0  0  0  0
    1.2599   -1.1452   -2.5660 H   0  0  0  0  0  0  0  0  0  0  0  0
   -2.5368    0.7299    0.0336 N   0  0  0  0  0  0  0  0  0  0  0  0
   -3.6249    1.1237    0.9359 C   0  0  2  0  0  0  0  0  0  0  0  0
   -4.9511    0.4075    0.6091 C   0  0  0  0  0  0  0  0  0  0  0  0
   -5.2304    0.0951   -0.5421 O   0  0  0  0  0  0  0  0  0  0  0  0
   -3.8032    2.6412    0.8425 C   0  0  0  0  0  0  0  0  0  0  0  0
   -2.7965    0.2429   -0.8251 H   0  0  0  0  0  0  0  0  0  0  0  0
   -3.3591    0.8558    1.9635 H   0  0  0  0  0  0  0  0  0  0  0  0
   -4.0764    2.9310   -0.1773 H   0  0  0  0  0  0  0  0  0  0  0  0
   -4.5901    2.9765    1.5245 H   0  0  0  0  0  0  0  0  0  0  0  0
   -2.8718    3.1497    1.1111 H   0  0  0  0  0  0  0  0  0  0  0  0
   -5.8606    0.1423    1.6179 N   0  0  0  0  0  0  0  0  0  0  0  0
   -7.1030   -0.5867    1.3978 C   0  0  0  0  0  0  0  0  0  0  0  0
   -5.5677    0.3406    2.5696 H   0  0  0  0  0  0  0  0  0  0  0  0
   -7.7092   -0.0891    0.6333 H   0  0  0  0  0  0  0  0  0  0  0  0
   -6.8924   -1.6102    1.0703 H   0  0  0  0  0  0  0  0  0  0  0  0
   -7.6847   -0.6308    2.3235 H   0  0  0  0  0  0  0  0  0  0  0  0
  1  2  2  0  0  0  0
  1  3  1  0  0  0  0
  1  7  1  0  0  0  0
  3  4  1  0  0  0  0
  3  5  1  0  0  0  0
  3  6  1  0  0  0  0
  7  8  1  0  0  0  0
  7 12  1  0  0  0  0
  8  9  1  0  0  0  0
  8 11  1  0  0  0  0
  8 13  1  0  0  0  0
  9 10  2  0  0  0  0
  9 17  1  0  0  0  0
 11 14  1  0  0  0  0
 11 15  1  0  0  0  0
 11 16  1  0  0  0  0
 17 18  1  0  0  0  0
 17 26  1  0  0  0  0
 18 19  1  0  0  0  0
 18 21  1  0  0  0  0
 18 27  1  0  0  0  0
 19 20  2  0  0  0  0
 19 32  1  0  0  0  0
 21 22  1  0  0  0  0
 21 28  1  0  0  0  0
 21 29  1  0  0  0  0
 22 23  1  0  0  0  0
 22 30  1  0  0  0  0
 22 31  1  0  0  0  0
 23 24  1  0  0  0  0
 23 25  2  0  0  0  0
 32 33  1  0  0  0  0
 32 37  1  0  0  0  0
 33 34  1  0  0  0  0
 33 36  1  0  0  0  0
 33 38  1  0  0  0  0
 34 35  2  0  0  0  0
 34 42  1  0  0  0  0
 36 39  1  0  0  0  0
 36 40  1  0  0  0  0
 36 41  1  0  0  0  0
 42 43  1  0  0  0  0
 42 44  1  0  0  0  0
 43 45  1  0  0  0  0
 43 46  1  0  0  0  0
 43 47  1  0  0  0  0
M  CHG  1  24  -1
M  END
$$$$

  -OEChem-05262216243D

 47 46  0     1  0  0  0  0  0999 V2000
   -0.6070   -5.7297    1.2996 C   0  0  0  0  0  0  0  0  0  0  0  0
    0.2892   -5.8593    2.1196 O   0  0  0  0  0  0  0  0  0  0  0  0
   -1.7035   -6.7739    1.1998 C   0  0  0  0  0  0  0  0  0  0  0  0
   -1.7330   -7.1864    0.1881 H   0  0  0  0  0  0  0  0  0  0  0  0
   -1.5175   -7.5870    1.9070 H   0  0  0  0  0  0  0  0  0  0  0  0
   -2.6714   -6.3210    1.4285 H   0  0  0  0  0  0  0  0  0  0  0  0
   -0.6404   -4.6340    0.4658 N   0  0  0  0  0  0  0  0  0  0  0  0
    0.2582   -3.4770    0.5665 C   0  0  2  0  0  0  0  0  0  0  0  0
   -0.4897   -2.1573    0.2816 C   0  0  0  0  0  0  0  0  0  0  0  0
   -1.6836   -2.1772   -0.0147 O   0  0  0  0  0  0  0  0  0  0  0  0
    1.4033   -3.6787   -0.4313 C   0  0  0  0  0  0  0  0  0  0  0  0
   -1.4794   -4.5063   -0.0983 H   0  0  0  0  0  0  0  0  0  0  0  0
    0.6687   -3.4062    1.5793 H   0  0  0  0  0  0  0  0  0  0  0  0
    1.0182   -3.7121   -1.4565 H   0  0  0  0  0  0  0  0  0  0  0  0
    2.1275   -2.8619   -0.3604 H   0  0  0  0  0  0  0  0  0  0  0  0
    1.9250   -4.6181   -0.2240 H   0  0  0  0  0  0  0  0  0  0  0  0
    0.1562   -0.9401    0.4070 N   0  0  0  0  0  0  0  0  0  0  0  0
   -0.2963    0.2908   -0.2684 C   0  0  2  0  0  0  0  0  0  0  0  0
   -1.5496    0.8794    0.4142 C   0  0  0  0  0  0  0  0  0  0  0  0
   -1.4502    1.4325    1.5024 O   0  0  0  0  0  0  0  0  0  0  0  0
   -0.4497    0.0880   -1.7917 C   0  0  0  0  0  0  0  0  0  0  0  0
    0.9162   -0.1539   -2.4536 C   0  0  0  0  0  0  0  0  0  0  0  0
    0.7536   -0.3792   -3.9546 C   0  0  0  0  0  0  0  0  0  0  0  0
    0.3206    0.5766   -4.6434 O   0  5  0  0  0  0  0  0  0  0  0  0
    1.0349   -1.5187   -4.3993 O   0  0  0  0  0  0  0  0  0  0  0  0
    1.1482   -0.9989    0.6143 H   0  0  0  0  0  0  0  0  0  0  0  0
    0.4806    1.0493   -0.1307 H   0  0  0  0  0  0  0  0  0  0  0  0
   -0.8903    0.9898   -2.2317 H   0  0  0  0  0  0  0  0  0  0  0  0
   -1.1203   -0.7451   -2.0218 H   0  0  0  0  0  0  0  0  0  0  0  0
    1.5662    0.7111   -2.2937 H   0  0  0  0  0  0  0  0  0  0  0  0
    1.4033   -1.0264   -2.0102 H   0  0  0  0  0  0  0  0  0  0  0  0
   -2.7964    0.7504   -0.1701 N   0  0  0  0  0  0  0  0  0  0  0  0
   -4.0554    1.1162    0.4963 C   0  0  2  0  0  0  0  0  0  0  0  0
   -4.6333   -0.0019    1.3964 C   0  0  0  0  0  0  0  0  0  0  0  0
   -5.6665    0.1941    2.0281 O   0  0  0  0  0  0  0  0  0  0  0  0
   -5.0499    1.5004   -0.6027 C   0  0  0  0  0  0  0  0  0  0  0  0
   -2.8383    0.1270   -0.9737 H   0  0  0  0  0  0  0  0  0  0  0  0
   -3.8933    1.9928    1.1326 H   0  0  0  0  0  0  0  0  0  0  0  0
   -5.2580    0.6427   -1.2499 H   0  0  0  0  0  0  0  0  0  0  0  0
   -5.9921    1.8401   -0.1611 H   0  0  0  0  0  0  0  0  0  0  0  0
   -4.6445    2.3117   -1.2150 H   0  0  0  0  0  0  0  0  0  0  0  0
   -4.0533   -1.2574    1.4418 N   0  0  0  0  0  0  0  0  0  0  0  0
   -4.5423   -2.3494    2.2688 C   0  0  0  0  0  0  0  0  0  0  0  0
   -3.1917   -1.3956    0.9061 H   0  0  0  0  0  0  0  0  0  0  0  0
   -4.5444   -2.0580    3.3241 H   0  0  0  0  0  0  0  0  0  0  0  0
   -5.5594   -2.6265    1.9740 H   0  0  0  0  0  0  0  0  0  0  0  0
   -3.8963   -3.2248    2.1523 H   0  0  0  0  0  0  0  0  0  0  0  0
  1  2  2  0  0  0  0
  1  3  1  0  0  0  0
  1  7  1  0  0  0  0
  3  4  1  0  0  0  0
  3  5  1  0  0  0  0
  3  6  1  0  0  0  0
  7  8  1  0  0  0  0
  7 12  1  0  0  0  0
  8  9  1  0  0  0  0
  8 11  1  0  0  0  0
  8 13  1  0  0  0  0
  9 10  2  0  0  0  0
  9 17  1  0  0  0  0
 11 14  1  0  0  0  0
 11 15  1  0  0  0  0
 11 16  1  0  0  0  0
 17 18  1  0  0  0  0
 17 26  1  0  0  0  0
 18 19  1  0  0  0  0
 18 21  1  0  0  0  0
 18 27  1  0  0  0  0
 19 20  2  0  0  0  0
 19 32  1  0  0  0  0
 21 22  1  0  0  0  0
 21 28  1  0  0  0  0
 21 29  1  0  0  0  0
 22 23  1  0  0  0  0
 22 30  1  0  0  0  0
 22 31  1  0  0  0  0
 23 24  1  0  0  0  0
 23 25  2  0  0  0  0
 32 33  1  0  0  0  0
 32 37  1  0  0  0  0
 33 34  1  0  0  0  0
 33 36  1  0  0  0  0
 33 38  1  0  0  0  0
 34 35  2  0  0  0  0
 34 42  1  0  0  0  0
 36 39  1  0  0  0  0
 36 40  1  0  0  0  0
 36 41  1  0  0  0  0
 42 43  1  0  0  0  0
 42 44  1  0  0  0  0
 43 45  1  0  0  0  0
 43 46  1  0  0  0  0
 43 47  1  0  0  0  0
M  CHG  1  24  -1
M  END
$$$$

  -OEChem-05262216243D

 47 46  0     1  0  0  0  0  0999 V2000
   -0.2340   -6.0577    0.8750 C   0  0  0  0  0  0  0  0  0  0  0  0
    0.6419   -6.1470    1.7223 O   0  0  0  0  0  0  0  0  0  0  0  0
   -1.2151   -7.1980    0.6747 C   0  0  0  0  0  0  0  0  0  0  0  0
   -1.1521   -7.5669   -0.3521 H   0  0  0  0  0  0  0  0  0  0  0  0
   -0.9866   -8.0194    1.3596 H   0  0  0  0  0  0  0  0  0  0  0  0
   -2.2335   -6.8511    0.8672 H   0  0  0  0  0  0  0  0  0  0  0  0
   -0.3470   -4.9231    0.1020 N   0  0  0  0  0  0  0  0  0  0  0  0
    0.4170   -3.6876    0.3149 C   0  0  2  0  0  0  0  0  0  0  0  0
   -0.4603   -2.4375    0.0918 C   0  0  0  0  0  0  0  0  0  0  0  0
   -1.5983   -2.5584   -0.3578 O   0  0  0  0  0  0  0  0  0  0  0  0
    1.6059   -3.6908   -0.6510 C   0  0  0  0  0  0  0  0  0  0  0  0
   -1.1783   -4.8421   -0.4826 H   0  0  0  0  0  0  0  0  0  0  0  0
    0.7877   -3.6477    1.3444 H   0  0  0  0  0  0  0  0  0  0  0  0
    1.2571   -3.6831   -1.6896 H   0  0  0  0  0  0  0  0  0  0  0  0
    2.2360   -2.8107   -0.4920 H   0  0  0  0  0  0  0  0  0  0  0  0
    2.2184   -4.5843   -0.4950 H   0  0  0  0  0  0  0  0  0  0  0  0
    0.0109   -1.1810    0.4355 N   0  0  0  0  0  0  0  0  0  0  0  0
   -0.5243    0.0679   -0.1390 C   0  0  2  0  0  0  0  0  0  0  0  0
   -1.9042    0.4255    0.4500 C   0  0  0  0  0  0  0  0  0  0  0  0
   -1.9867    1.1196    1.4589 O   0  0  0  0  0  0  0  0  0  0  0  0
   -0.4948    0.0628   -1.6822 C   0  0  0  0  0  0  0  0  0  0  0  0
    0.9553    0.0740   -2.1937 C   0  0  0  0  0  0  0  0  0  0  0  0
    0.9968    0.0434   -3.7191 C   0  0  0  0  0  0  0  0  0  0  0  0
    0.5796    1.0553   -4.3334 O   0  5  0  0  0  0  0  0  0  0  0  0
    1.4378   -0.9986   -4.2626 O   0  0  0  0  0  0  0  0  0  0  0  0
    0.9832   -1.1572    0.7270 H   0  0  0  0  0  0  0  0  0  0  0  0
    0.1348    0.8818    0.1794 H   0  0  0  0  0  0  0  0  0  0  0  0
   -1.0032    0.9592   -2.0553 H   0  0  0  0  0  0  0  0  0  0  0  0
   -1.0241   -0.8019   -2.0932 H   0  0  0  0  0  0  0  0  0  0  0  0
    1.4657    0.9762   -1.8447 H   0  0  0  0  0  0  0  0  0  0  0  0
    1.4997   -0.7908   -1.8050 H   0  0  0  0  0  0  0  0  0  0  0  0
   -3.0605   -0.0395   -0.1447 N   0  0  0  0  0  0  0  0  0  0  0  0
   -4.4190    0.2260    0.3512 C   0  0  2  0  0  0  0  0  0  0  0  0
   -4.7971   -0.6172    1.5962 C   0  0  0  0  0  0  0  0  0  0  0  0
   -5.8543   -1.2370    1.6644 O   0  0  0  0  0  0  0  0  0  0  0  0
   -5.3721    0.0011   -0.8288 C   0  0  0  0  0  0  0  0  0  0  0  0
   -2.9169   -0.8590   -0.7396 H   0  0  0  0  0  0  0  0  0  0  0  0
   -4.4912    1.2781    0.6451 H   0  0  0  0  0  0  0  0  0  0  0  0
   -5.3536   -1.0482   -1.1412 H   0  0  0  0  0  0  0  0  0  0  0  0
   -6.3969    0.2622   -0.5465 H   0  0  0  0  0  0  0  0  0  0  0  0
   -5.0788    0.6249   -1.6790 H   0  0  0  0  0  0  0  0  0  0  0  0
   -3.9521   -0.6255    2.6888 N   0  0  0  0  0  0  0  0  0  0  0  0
   -4.2020   -1.3633    3.9175 C   0  0  0  0  0  0  0  0  0  0  0  0
   -3.1033   -0.0605    2.6007 H   0  0  0  0  0  0  0  0  0  0  0  0
   -5.1190   -1.0070    4.3977 H   0  0  0  0  0  0  0  0  0  0  0  0
   -4.3042   -2.4325    3.7064 H   0  0  0  0  0  0  0  0  0  0  0  0
   -3.3695   -1.2261    4.6138 H   0  0  0  0  0  0  0  0  0  0  0  0
  1  2  2  0  0  0  0
  1  3  1  0  0  0  0
  1  7  1  0  0  0  0
  3  4  1  0  0  0  0
  3  5  1  0  0  0  0
  3  6  1  0  0  0  0
  7  8  1  0  0  0  0
  7 12  1  0  0  0  0
  8  9  1  0  0  0  0
  8 11  1  0  0  0  0
  8 13  1  0  0  0  0
  9 10  2  0  0  0  0
  9 17  1  0  0  0  0
 11 14  1  0  0  0  0
 11 15  1  0  0  0  0
 11 16  1  0  0  0  0
 17 18  1  0  0  0  0
 17 26  1  0  0  0  0
 18 19  1  0  0  0  0
 18 21  1  0  0  0  0
 18 27  1  0  0  0  0
 19 20  2  0  0  0  0
 19 32  1  0  0  0  0
 21 22  1  0  0  0  0
 21 28  1  0  0  0  0
 21 29  1  0  0  0  0
 22 23  1  0  0  0  0
 22 30  1  0  0  0  0
 22 31  1  0  0  0  0
 23 24  1  0  0  0  0
 23 25  2  0  0  0  0
 32 33  1  0  0  0  0
 32 37  1  0  0  0  0
 33 34  1  0  0  0  0
 33 36  1  0  0  0  0
 33 38  1  0  0  0  0
 34 35  2  0  0  0  0
 34 42  1  0  0  0  0
 36 39  1  0  0  0  0
 36 40  1  0  0  0  0
 36 41  1  0  0  0  0
 42 43  1  0  0  0  0
 42 44  1  0  0  0  0
 43 45  1  0  0  0  0
 43 46  1  0  0  0  0
 43 47  1  0  0  0  0
M  CHG  1  24  -1
M  END
$$$$

  -OEChem-05262216243D

 47 46  0     1  0  0  0  0  0999 V2000
   -0.1130   -6.0381    0.9640 C   0  0  0  0  0  0  0  0  0  0  0  0
    0.6842   -5.9997    1.8891 O   0  0  0  0  0  0  0  0  0  0  0  0
   -1.1061   -7.1821    0.8695 C   0  0  0  0  0  0  0  0  0  0  0  0
   -0.9734   -7.7134   -0.0761 H   0  0  0  0  0  0  0  0  0  0  0  0
   -0.9526   -7.8848    1.6932 H   0  0  0  0  0  0  0  0  0  0  0  0
   -2.1271   -6.7954    0.9216 H   0  0  0  0  0  0  0  0  0  0  0  0
   -0.1228   -5.0513    0.0015 N   0  0  0  0  0  0  0  0  0  0  0  0
    0.6021   -3.7780    0.1143 C   0  0  2  0  0  0  0  0  0  0  0  0
   -0.3535   -2.5732   -0.0146 C   0  0  0  0  0  0  0  0  0  0  0  0
   -1.4848   -2.7385   -0.4659 O   0  0  0  0  0  0  0  0  0  0  0  0
    1.6591   -3.7399   -0.9924 C   0  0  0  0  0  0  0  0  0  0  0  0
   -0.9233   -5.0486   -0.6290 H   0  0  0  0  0  0  0  0  0  0  0  0
    1.1004   -3.7029    1.0861 H   0  0  0  0  0  0  0  0  0  0  0  0
    1.1830   -3.7456   -1.9790 H   0  0  0  0  0  0  0  0  0  0  0  0
    2.2709   -2.8367   -0.9103 H   0  0  0  0  0  0  0  0  0  0  0  0
    2.3187   -4.6099   -0.9180 H   0  0  0  0  0  0  0  0  0  0  0  0
    0.0505   -1.3150    0.4024 N   0  0  0  0  0  0  0  0  0  0  0  0
   -0.5472   -0.0486   -0.0691 C   0  0  2  0  0  0  0  0  0  0  0  0
   -1.9342    0.2292    0.5478 C   0  0  0  0  0  0  0  0  0  0  0  0
   -2.0532    1.0300    1.4701 O   0  0  0  0  0  0  0  0  0  0  0  0
   -0.5473    0.0466   -1.6083 C   0  0  0  0  0  0  0  0  0  0  0  0
    0.8930    0.1491   -2.1392 C   0  0  0  0  0  0  0  0  0  0  0  0
    0.9160    0.2184   -3.6636 C   0  0  0  0  0  0  0  0  0  0  0  0
    0.4369    1.2426   -4.2085 O   0  5  0  0  0  0  0  0  0  0  0  0
    1.4124   -0.7587   -4.2762 O   0  0  0  0  0  0  0  0  0  0  0  0
    1.0214   -1.2618    0.6950 H   0  0  0  0  0  0  0  0  0  0  0  0
    0.0902    0.7649    0.2919 H   0  0  0  0  0  0  0  0  0  0  0  0
   -1.0976    0.9434   -1.9144 H   0  0  0  0  0  0  0  0  0  0  0  0
   -1.0518   -0.8104   -2.0644 H   0  0  0  0  0  0  0  0  0  0  0  0
    1.3708    1.0479   -1.7394 H   0  0  0  0  0  0  0  0  0  0  0  0
    1.4788   -0.7141   -1.8131 H   0  0  0  0  0  0  0  0  0  0  0  0
   -3.0462   -0.4672    0.1191 N   0  0  0  0  0  0  0  0  0  0  0  0
   -4.3921   -0.3391    0.6960 C   0  0  2  0  0  0  0  0  0  0  0  0
   -4.5445   -1.0685    2.0554 C   0  0  0  0  0  0  0  0  0  0  0  0
   -5.4747   -1.8365    2.2821 O   0  0  0  0  0  0  0  0  0  0  0  0
   -5.3782   -0.8427   -0.3646 C   0  0  0  0  0  0  0  0  0  0  0  0
   -2.8272   -1.3113   -0.4197 H   0  0  0  0  0  0  0  0  0  0  0  0
   -4.6048    0.7196    0.8762 H   0  0  0  0  0  0  0  0  0  0  0  0
   -5.2132   -1.9058   -0.5671 H   0  0  0  0  0  0  0  0  0  0  0  0
   -6.4088   -0.7089   -0.0216 H   0  0  0  0  0  0  0  0  0  0  0  0
   -5.2504   -0.2851   -1.2976 H   0  0  0  0  0  0  0  0  0  0  0  0
   -3.6393   -0.8054    3.0653 N   0  0  0  0  0  0  0  0  0  0  0  0
   -3.6923   -1.3947    4.3944 C   0  0  0  0  0  0  0  0  0  0  0  0
   -2.9101   -0.1223    2.8428 H   0  0  0  0  0  0  0  0  0  0  0  0
   -4.6070   -1.0880    4.9115 H   0  0  0  0  0  0  0  0  0  0  0  0
   -3.6706   -2.4874    4.3298 H   0  0  0  0  0  0  0  0  0  0  0  0
   -2.8317   -1.0665    4.9848 H   0  0  0  0  0  0  0  0  0  0  0  0
  1  2  2  0  0  0  0
  1  3  1  0  0  0  0
  1  7  1  0  0  0  0
  3  4  1  0  0  0  0
  3  5  1  0  0  0  0
  3  6  1  0  0  0  0
  7  8  1  0  0  0  0
  7 12  1  0  0  0  0
  8  9  1  0  0  0  0
  8 11  1  0  0  0  0
  8 13  1  0  0  0  0
  9 10  2  0  0  0  0
  9 17  1  0  0  0  0
 11 14  1  0  0  0  0
 11 15  1  0  0  0  0
 11 16  1  0  0  0  0
 17 18  1  0  0  0  0
 17 26  1  0  0  0  0
 18 19  1  0  0  0  0
 18 21  1  0  0  0  0
 18 27  1  0  0  0  0
 19 20  2  0  0  0  0
 19 32  1  0  0  0  0
 21 22  1  0  0  0  0
 21 28  1  0  0  0  0
 21 29  1  0  0  0  0
 22 23  1  0  0  0  0
 22 30  1  0  0  0  0
 22 31  1  0  0  0  0
 23 24  1  0  0  0  0
 23 25  2  0  0  0  0
 32 33  1  0  0  0  0
 32 37  1  0  0  0  0
 33 34  1  0  0  0  0
 33 36  1  0  0  0  0
 33 38  1  0  0  0  0
 34 35  2  0  0  0  0
 34 42  1  0  0  0  0
 36 39  1  0  0  0  0
 36 40  1  0  0  0  0
 36 41  1  0  0  0  0
 42 43  1  0  0  0  0
 42 44  1  0  0  0  0
 43 45  1  0  0  0  0
 43 46  1  0  0  0  0
 43 47  1  0  0  0  0
M  CHG  1  24  -1
M  END
$$$$

  -OEChem-05262216243D

 47 46  0     1  0  0  0  0  0999 V2000
   -0.2754   -5.2701    1.8819 C   0  0  0  0  0  0  0  0  0  0  0  0
    0.9149   -5.5262    1.9815 O   0  0  0  0  0  0  0  0  0  0  0  0
   -1.2541   -5.8734    2.8724 C   0  0  0  0  0  0  0  0  0  0  0  0
   -2.2727   -5.8260    2.4785 H   0  0  0  0  0  0  0  0  0  0  0  0
   -0.9989   -6.9200    3.0567 H   0  0  0  0  0  0  0  0  0  0  0  0
   -1.2135   -5.3249    3.8156 H   0  0  0  0  0  0  0  0  0  0  0  0
   -0.7241   -4.4358    0.8815 N   0  0  0  0  0  0  0  0  0  0  0  0
    0.1229   -3.8563   -0.1727 C   0  0  2  0  0  0  0  0  0  0  0  0
   -0.4261   -2.4855   -0.6143 C   0  0  0  0  0  0  0  0  0  0  0  0
   -1.3511   -2.4312   -1.4168 O   0  0  0  0  0  0  0  0  0  0  0  0
    0.1970   -4.8494   -1.3390 C   0  0  0  0  0  0  0  0  0  0  0  0
   -1.7242   -4.2075    0.8854 H   0  0  0  0  0  0  0  0  0  0  0  0
    1.1378   -3.6941    0.2047 H   0  0  0  0  0  0  0  0  0  0  0  0
   -0.8043   -5.0711   -1.7223 H   0  0  0  0  0  0  0  0  0  0  0  0
    0.7964   -4.4324   -2.1545 H   0  0  0  0  0  0  0  0  0  0  0  0
    0.6595   -5.7855   -1.0115 H   0  0  0  0  0  0  0  0  0  0  0  0
   -0.0538   -1.3508    0.0905 N   0  0  0  0  0  0  0  0  0  0  0  0
   -0.5457    0.0299   -0.1200 C   0  0  2  0  0  0  0  0  0  0  0  0
   -1.9769    0.1815    0.4346 C   0  0  0  0  0  0  0  0  0  0  0  0
   -2.1642    0.7474    1.5089 O   0  0  0  0  0  0  0  0  0  0  0  0
   -0.4073    0.5332   -1.5703 C   0  0  0  0  0  0  0  0  0  0  0  0
    1.0765    0.6883   -1.9495 C   0  0  0  0  0  0  0  0  0  0  0  0
    1.2489    1.1642   -3.3925 C   0  0  0  0  0  0  0  0  0  0  0  0
    0.6439    2.2102   -3.7367 O   0  5  0  0  0  0  0  0  0  0  0  0
    2.0156    0.5025   -4.1343 O   0  0  0  0  0  0  0  0  0  0  0  0
    0.6901   -1.4804    0.7693 H   0  0  0  0  0  0  0  0  0  0  0  0
    0.0761    0.6924    0.4905 H   0  0  0  0  0  0  0  0  0  0  0  0
   -0.8956    1.5101   -1.6583 H   0  0  0  0  0  0  0  0  0  0  0  0
   -0.9026   -0.1369   -2.2782 H   0  0  0  0  0  0  0  0  0  0  0  0
    1.5528    1.4139   -1.2841 H   0  0  0  0  0  0  0  0  0  0  0  0
    1.5904   -0.2697   -1.8276 H   0  0  0  0  0  0  0  0  0  0  0  0
   -2.9807   -0.6145   -0.0832 N   0  0  0  0  0  0  0  0  0  0  0  0
   -4.0239   -1.1993    0.7661 C   0  0  2  0  0  0  0  0  0  0  0  0
   -3.4207   -2.1697    1.8150 C   0  0  0  0  0  0  0  0  0  0  0  0
   -3.3760   -3.3861    1.6411 O   0  0  0  0  0  0  0  0  0  0  0  0
   -5.0287   -1.8940   -0.1591 C   0  0  0  0  0  0  0  0  0  0  0  0
   -2.6454   -1.2107   -0.8489 H   0  0  0  0  0  0  0  0  0  0  0  0
   -4.5489   -0.4032    1.3039 H   0  0  0  0  0  0  0  0  0  0  0  0
   -4.5363   -2.6791   -0.7430 H   0  0  0  0  0  0  0  0  0  0  0  0
   -5.8340   -2.3483    0.4260 H   0  0  0  0  0  0  0  0  0  0  0  0
   -5.4684   -1.1704   -0.8523 H   0  0  0  0  0  0  0  0  0  0  0  0
   -2.8360   -1.6365    2.9475 N   0  0  0  0  0  0  0  0  0  0  0  0
   -2.0434   -2.4102    3.8911 C   0  0  0  0  0  0  0  0  0  0  0  0
   -2.6729   -0.6262    2.8974 H   0  0  0  0  0  0  0  0  0  0  0  0
   -2.6089   -3.2761    4.2498 H   0  0  0  0  0  0  0  0  0  0  0  0
   -1.1192   -2.7572    3.4187 H   0  0  0  0  0  0  0  0  0  0  0  0
   -1.7810   -1.7912    4.7544 H   0  0  0  0  0  0  0  0  0  0  0  0
  1  2  2  0  0  0  0
  1  3  1  0  0  0  0
  1  7  1  0  0  0  0
  3  4  1  0  0  0  0
  3  5  1  0  0  0  0
  3  6  1  0  0  0  0
  7  8  1  0  0  0  0
  7 12  1  0  0  0  0
  8  9  1  0  0  0  0
  8 11  1  0  0  0  0
  8 13  1  0  0  0  0
  9 10  2  0  0  0  0
  9 17  1  0  0  0  0
 11 14  1  0  0  0  0
 11 15  1  0  0  0  0
 11 16  1  0  0  0  0
 17 18  1  0  0  0  0
 17 26  1  0  0  0  0
 18 19  1  0  0  0  0
 18 21  1  0  0  0  0
 18 27  1  0  0  0  0
 19 20  2  0  0  0  0
 19 32  1  0  0  0  0
 21 22  1  0  0  0  0
 21 28  1  0  0  0  0
 21 29  1  0  0  0  0
 22 23  1  0  0  0  0
 22 30  1  0  0  0  0
 22 31  1  0  0  0  0
 23 24  1  0  0  0  0
 23 25  2  0  0  0  0
 32 33  1  0  0  0  0
 32 37  1  0  0  0  0
 33 34  1  0  0  0  0
 33 36  1  0  0  0  0
 33 38  1  0  0  0  0
 34 35  2  0  0  0  0
 34 42  1  0  0  0  0
 36 39  1  0  0  0  0
 36 40  1  0  0  0  0
 36 41  1  0  0  0  0
 42 43  1  0  0  0  0
 42 44  1  0  0  0  0
 43 45  1  0  0  0  0
 43 46  1  0  0  0  0
 43 47  1  0  0  0  0
M  CHG  1  24  -1
M  END
$$$$

  -OEChem-05262216243D

 47 46  0     1  0  0  0  0  0999 V2000
    0.1812   -4.5276    1.8344 C   0  0  0  0  0  0  0  0  0  0  0  0
    1.1024   -3.7284    1.9322 O   0  0  0  0  0  0  0  0  0  0  0  0
   -0.3539   -5.2386    3.0637 C   0  0  0  0  0  0  0  0  0  0  0  0
   -1.4343   -5.0957    3.1407 H   0  0  0  0  0  0  0  0  0  0  0  0
   -0.1421   -6.3082    2.9950 H   0  0  0  0  0  0  0  0  0  0  0  0
    0.1190   -4.8430    3.9665 H   0  0  0  0  0  0  0  0  0  0  0  0
   -0.3459   -4.8132    0.5925 N   0  0  0  0  0  0  0  0  0  0  0  0
    0.1086   -4.1722   -0.6503 C   0  0  2  0  0  0  0  0  0  0  0  0
   -0.4867   -2.7570   -0.8061 C   0  0  0  0  0  0  0  0  0  0  0  0
   -1.4856   -2.5767   -1.4941 O   0  0  0  0  0  0  0  0  0  0  0  0
   -0.2529   -5.1005   -1.8162 C   0  0  0  0  0  0  0  0  0  0  0  0
   -1.2384   -5.3004    0.5823 H   0  0  0  0  0  0  0  0  0  0  0  0
    1.1988   -4.0671   -0.6392 H   0  0  0  0  0  0  0  0  0  0  0  0
   -1.3349   -5.2596   -1.8643 H   0  0  0  0  0  0  0  0  0  0  0  0
    0.0741   -4.6602   -2.7639 H   0  0  0  0  0  0  0  0  0  0  0  0
    0.2386   -6.0706   -1.6972 H   0  0  0  0  0  0  0  0  0  0  0  0
    0.0024   -1.7436    0.0002 N   0  0  0  0  0  0  0  0  0  0  0  0
   -0.3795   -0.3128    0.0003 C   0  0  2  0  0  0  0  0  0  0  0  0
   -1.7588   -0.0859    0.6557 C   0  0  0  0  0  0  0  0  0  0  0  0
   -1.8618    0.6206    1.6553 O   0  0  0  0  0  0  0  0  0  0  0  0
   -0.2994    0.3275   -1.4002 C   0  0  0  0  0  0  0  0  0  0  0  0
    1.1589    0.3991   -1.8885 C   0  0  0  0  0  0  0  0  0  0  0  0
    1.2561    1.0095   -3.2871 C   0  0  0  0  0  0  0  0  0  0  0  0
    0.8003    2.1691   -3.4492 O   0  5  0  0  0  0  0  0  0  0  0  0
    1.8102    0.3258   -4.1833 O   0  0  0  0  0  0  0  0  0  0  0  0
    0.7267   -2.0389    0.6586 H   0  0  0  0  0  0  0  0  0  0  0  0
    0.3424    0.2170    0.6296 H   0  0  0  0  0  0  0  0  0  0  0  0
   -0.7012    1.3458   -1.3520 H   0  0  0  0  0  0  0  0  0  0  0  0
   -0.9069   -0.2217   -2.1251 H   0  0  0  0  0  0  0  0  0  0  0  0
    1.7493    1.0081   -1.1981 H   0  0  0  0  0  0  0  0  0  0  0  0
    1.5931   -0.6049   -1.9067 H   0  0  0  0  0  0  0  0  0  0  0  0
   -2.8111   -0.9202    0.3325 N   0  0  0  0  0  0  0  0  0  0  0  0
   -3.8543   -1.3145    1.2836 C   0  0  2  0  0  0  0  0  0  0  0  0
   -3.2730   -2.1641    2.4421 C   0  0  0  0  0  0  0  0  0  0  0  0
   -3.3828   -3.3873    2.4781 O   0  0  0  0  0  0  0  0  0  0  0  0
   -4.9324   -2.0594    0.4892 C   0  0  0  0  0  0  0  0  0  0  0  0
   -2.5919   -1.5768   -0.4240 H   0  0  0  0  0  0  0  0  0  0  0  0
   -4.3097   -0.4192    1.7196 H   0  0  0  0  0  0  0  0  0  0  0  0
   -4.5094   -2.9457    0.0051 H   0  0  0  0  0  0  0  0  0  0  0  0
   -5.7424   -2.3769    1.1526 H   0  0  0  0  0  0  0  0  0  0  0  0
   -5.3511   -1.4083   -0.2844 H   0  0  0  0  0  0  0  0  0  0  0  0
   -2.5717   -1.5161    3.4408 N   0  0  0  0  0  0  0  0  0  0  0  0
   -1.7935   -2.1972    4.4643 C   0  0  0  0  0  0  0  0  0  0  0  0
   -2.3216   -0.5485    3.2140 H   0  0  0  0  0  0  0  0  0  0  0  0
   -2.3417   -3.0538    4.8698 H   0  0  0  0  0  0  0  0  0  0  0  0
   -0.8445   -2.5460    4.0466 H   0  0  0  0  0  0  0  0  0  0  0  0
   -1.5795   -1.5102    5.2883 H   0  0  0  0  0  0  0  0  0  0  0  0
  1  2  2  0  0  0  0
  1  3  1  0  0  0  0
  1  7  1  0  0  0  0
  3  4  1  0  0  0  0
  3  5  1  0  0  0  0
  3  6  1  0  0  0  0
  7  8  1  0  0  0  0
  7 12  1  0  0  0  0
  8  9  1  0  0  0  0
  8 11  1  0  0  0  0
  8 13  1  0  0  0  0
  9 10  2  0  0  0  0
  9 17  1  0  0  0  0
 11 14  1  0  0  0  0
 11 15  1  0  0  0  0
 11 16  1  0  0  0  0
 17 18  1  0  0  0  0
 17 26  1  0  0  0  0
 18 19  1  0  0  0  0
 18 21  1  0  0  0  0
 18 27  1  0  0  0  0
 19 20  2  0  0  0  0
 19 32  1  0  0  0  0
 21 22  1  0  0  0  0
 21 28  1  0  0  0  0
 21 29  1  0  0  0  0
 22 23  1  0  0  0  0
 22 30  1  0  0  0  0
 22 31  1  0  0  0  0
 23 24  1  0  0  0  0
 23 25  2  0  0  0  0
 32 33  1  0  0  0  0
 32 37  1  0  0  0  0
 33 34  1  0  0  0  0
 33 36  1  0  0  0  0
 33 38  1  0  0  0  0
 34 35  2  0  0  0  0
 34 42  1  0  0  0  0
 36 39  1  0  0  0  0
 36 40  1  0  0  0  0
 36 41  1  0  0  0  0
 42 43  1  0  0  0  0
 42 44  1  0  0  0  0
 43 45  1  0  0  0  0
 43 46  1  0  0  0  0
 43 47  1  0  0  0  0
M  CHG  1  24  -1
M  END
$$$$

  -OEChem-05262216243D

 47 46  0     1  0  0  0  0  0999 V2000
    0.4054   -4.6326    1.6564 C   0  0  0  0  0  0  0  0  0  0  0  0
    1.3562   -3.8656    1.7161 O   0  0  0  0  0  0  0  0  0  0  0  0
   -0.1623   -5.2487    2.9208 C   0  0  0  0  0  0  0  0  0  0  0  0
    0.4128   -4.9218    3.7913 H   0  0  0  0  0  0  0  0  0  0  0  0
   -1.2027   -4.9405    3.0512 H   0  0  0  0  0  0  0  0  0  0  0  0
   -0.1187   -6.3385    2.8586 H   0  0  0  0  0  0  0  0  0  0  0  0
   -0.1753   -4.9085    0.4351 N   0  0  0  0  0  0  0  0  0  0  0  0
    0.1952   -4.2142   -0.8082 C   0  0  2  0  0  0  0  0  0  0  0  0
   -0.4062   -2.7929   -0.8471 C   0  0  0  0  0  0  0  0  0  0  0  0
   -1.4812   -2.5860   -1.3986 O   0  0  0  0  0  0  0  0  0  0  0  0
   -0.2556   -5.0815   -1.9894 C   0  0  0  0  0  0  0  0  0  0  0  0
   -1.0656   -5.3980    0.4596 H   0  0  0  0  0  0  0  0  0  0  0  0
    1.2843   -4.1110   -0.8700 H   0  0  0  0  0  0  0  0  0  0  0  0
   -1.3388   -5.2386   -1.9669 H   0  0  0  0  0  0  0  0  0  0  0  0
    0.0030   -4.5931   -2.9346 H   0  0  0  0  0  0  0  0  0  0  0  0
    0.2402   -6.0564   -1.9563 H   0  0  0  0  0  0  0  0  0  0  0  0
    0.1376   -1.8362   -0.0099 N   0  0  0  0  0  0  0  0  0  0  0  0
   -0.2145   -0.4032    0.1052 C   0  0  2  0  0  0  0  0  0  0  0  0
   -1.5515   -0.1778    0.8464 C   0  0  0  0  0  0  0  0  0  0  0  0
   -1.6187    0.6451    1.7548 O   0  0  0  0  0  0  0  0  0  0  0  0
   -0.2003    0.3078   -1.2624 C   0  0  0  0  0  0  0  0  0  0  0  0
    1.2285    0.3790   -1.8322 C   0  0  0  0  0  0  0  0  0  0  0  0
    1.2586    1.0599   -3.2012 C   0  0  0  0  0  0  0  0  0  0  0  0
    0.8156    2.2327   -3.2807 O   0  5  0  0  0  0  0  0  0  0  0  0
    1.7480    0.4124   -4.1598 O   0  0  0  0  0  0  0  0  0  0  0  0
    0.9232   -2.1697    0.5536 H   0  0  0  0  0  0  0  0  0  0  0  0
    0.5539    0.0745    0.7211 H   0  0  0  0  0  0  0  0  0  0  0  0
   -0.5776    1.3291   -1.1387 H   0  0  0  0  0  0  0  0  0  0  0  0
   -0.8603   -0.1947   -1.9755 H   0  0  0  0  0  0  0  0  0  0  0  0
    1.8701    0.9406   -1.1475 H   0  0  0  0  0  0  0  0  0  0  0  0
    1.6411   -0.6296   -1.9276 H   0  0  0  0  0  0  0  0  0  0  0  0
   -2.5477   -1.1312    0.7712 N   0  0  0  0  0  0  0  0  0  0  0  0
   -3.5935   -1.3497    1.7744 C   0  0  2  0  0  0  0  0  0  0  0  0
   -3.0239   -2.0518    3.0311 C   0  0  0  0  0  0  0  0  0  0  0  0
   -3.3241   -3.2044    3.3310 O   0  0  0  0  0  0  0  0  0  0  0  0
   -4.7158   -2.1431    1.0962 C   0  0  0  0  0  0  0  0  0  0  0  0
   -2.4152   -1.8294    0.0336 H   0  0  0  0  0  0  0  0  0  0  0  0
   -4.0047   -0.3854    2.0902 H   0  0  0  0  0  0  0  0  0  0  0  0
   -4.3456   -3.1116    0.7446 H   0  0  0  0  0  0  0  0  0  0  0  0
   -5.5362   -2.3173    1.7991 H   0  0  0  0  0  0  0  0  0  0  0  0
   -5.1063   -1.5877    0.2377 H   0  0  0  0  0  0  0  0  0  0  0  0
   -2.1087   -1.3701    3.8093 N   0  0  0  0  0  0  0  0  0  0  0  0
   -1.3604   -1.9691    4.9045 C   0  0  0  0  0  0  0  0  0  0  0  0
   -1.7883   -0.4776    3.4206 H   0  0  0  0  0  0  0  0  0  0  0  0
   -2.0393   -2.4344    5.6264 H   0  0  0  0  0  0  0  0  0  0  0  0
   -0.6707   -2.7285    4.5247 H   0  0  0  0  0  0  0  0  0  0  0  0
   -0.7796   -1.2016    5.4247 H   0  0  0  0  0  0  0  0  0  0  0  0
  1  2  2  0  0  0  0
  1  3  1  0  0  0  0
  1  7  1  0  0  0  0
  3  4  1  0  0  0  0
  3  5  1  0  0  0  0
  3  6  1  0  0  0  0
  7  8  1  0  0  0  0
  7 12  1  0  0  0  0
  8  9  1  0  0  0  0
  8 11  1  0  0  0  0
  8 13  1  0  0  0  0
  9 10  2  0  0  0  0
  9 17  1  0  0  0  0
 11 14  1  0  0  0  0
 11 15  1  0  0  0  0
 11 16  1  0  0  0  0
 17 18  1  0  0  0  0
 17 26  1  0  0  0  0
 18 19  1  0  0  0  0
 18 21  1  0  0  0  0
 18 27  1  0  0  0  0
 19 20  2  0  0  0  0
 19 32  1  0  0  0  0
 21 22  1  0  0  0  0
 21 28  1  0  0  0  0
 21 29  1  0  0  0  0
 22 23  1  0  0  0  0
 22 30  1  0  0  0  0
 22 31  1  0  0  0  0
 23 24  1  0  0  0  0
 23 25  2  0  0  0  0
 32 33  1  0  0  0  0
 32 37  1  0  0  0  0
 33 34  1  0  0  0  0
 33 36  1  0  0  0  0
 33 38  1  0  0  0  0
 34 35  2  0  0  0  0
 34 42  1  0  0  0  0
 36 39  1  0  0  0  0
 36 40  1  0  0  0  0
 36 41  1  0  0  0  0
 42 43  1  0  0  0  0
 42 44  1  0  0  0  0
 43 45  1  0  0  0  0
 43 46  1  0  0  0  0
 43 47  1  0  0  0  0
M  CHG  1  24  -1
M  END
$$$$

  -OEChem-05262216243D

 47 46  0     1  0  0  0  0  0999 V2000
    0.9159   -5.5576    1.4317 C   0  0  0  0  0  0  0  0  0  0  0  0
    2.0576   -5.2708    1.7611 O   0  0  0  0  0  0  0  0  0  0  0  0
    0.0488   -6.3947    2.3545 C   0  0  0  0  0  0  0  0  0  0  0  0
   -0.3444   -7.2609    1.8169 H   0  0  0  0  0  0  0  0  0  0  0  0
    0.6343   -6.7453    3.2087 H   0  0  0  0  0  0  0  0  0  0  0  0
   -0.7872   -5.7938    2.7234 H   0  0  0  0  0  0  0  0  0  0  0  0
    0.3945   -5.1114    0.2352 N   0  0  0  0  0  0  0  0  0  0  0  0
    0.9666   -3.9868   -0.5181 C   0  0  2  0  0  0  0  0  0  0  0  0
    0.0891   -2.7336   -0.3379 C   0  0  0  0  0  0  0  0  0  0  0  0
   -1.1276   -2.8647   -0.2482 O   0  0  0  0  0  0  0  0  0  0  0  0
    1.0398   -4.3772   -1.9957 C   0  0  0  0  0  0  0  0  0  0  0  0
   -0.6136   -5.2228    0.1403 H   0  0  0  0  0  0  0  0  0  0  0  0
    1.9784   -3.7549   -0.1707 H   0  0  0  0  0  0  0  0  0  0  0  0
    0.0419   -4.6065   -2.3835 H   0  0  0  0  0  0  0  0  0  0  0  0
    1.4585   -3.5574   -2.5885 H   0  0  0  0  0  0  0  0  0  0  0  0
    1.6760   -5.2579   -2.1244 H   0  0  0  0  0  0  0  0  0  0  0  0
    0.6630   -1.4929   -0.1202 N   0  0  0  0  0  0  0  0  0  0  0  0
   -0.0091   -0.1902   -0.3366 C   0  0  2  0  0  0  0  0  0  0  0  0
   -1.0525    0.1730    0.7482 C   0  0  0  0  0  0  0  0  0  0  0  0
   -1.3589    1.3440    0.9430 O   0  0  0  0  0  0  0  0  0  0  0  0
   -0.5977   -0.1115   -1.7607 C   0  0  0  0  0  0  0  0  0  0  0  0
    0.5316   -0.0903   -2.8071 C   0  0  0  0  0  0  0  0  0  0  0  0
   -0.0252   -0.0389   -4.2277 C   0  0  0  0  0  0  0  0  0  0  0  0
   -0.5199    1.0435   -4.6264 O   0  5  0  0  0  0  0  0  0  0  0  0
    0.0597   -1.0875   -4.9142 O   0  0  0  0  0  0  0  0  0  0  0  0
    1.6736   -1.4828   -0.2180 H   0  0  0  0  0  0  0  0  0  0  0  0
    0.7558    0.5888   -0.2606 H   0  0  0  0  0  0  0  0  0  0  0  0
   -1.1816    0.8107   -1.8606 H   0  0  0  0  0  0  0  0  0  0  0  0
   -1.2792   -0.9449   -1.9571 H   0  0  0  0  0  0  0  0  0  0  0  0
    1.1677    0.7849   -2.6460 H   0  0  0  0  0  0  0  0  0  0  0  0
    1.1582   -0.9805   -2.7048 H   0  0  0  0  0  0  0  0  0  0  0  0
   -1.5279   -0.7838    1.6229 N   0  0  0  0  0  0  0  0  0  0  0  0
   -2.5141   -0.5515    2.6804 C   0  0  2  0  0  0  0  0  0  0  0  0
   -2.3604   -1.5423    3.8538 C   0  0  0  0  0  0  0  0  0  0  0  0
   -1.9652   -2.6904    3.6763 O   0  0  0  0  0  0  0  0  0  0  0  0
   -3.9132   -0.6641    2.0679 C   0  0  0  0  0  0  0  0  0  0  0  0
   -1.3755   -1.7507    1.3213 H   0  0  0  0  0  0  0  0  0  0  0  0
   -2.3800    0.4569    3.0838 H   0  0  0  0  0  0  0  0  0  0  0  0
   -4.0635   -1.6610    1.6408 H   0  0  0  0  0  0  0  0  0  0  0  0
   -4.6802   -0.4897    2.8281 H   0  0  0  0  0  0  0  0  0  0  0  0
   -4.0404    0.0771    1.2726 H   0  0  0  0  0  0  0  0  0  0  0  0
   -2.6954   -1.1416    5.1353 N   0  0  0  0  0  0  0  0  0  0  0  0
   -2.5382   -1.9932    6.3064 C   0  0  0  0  0  0  0  0  0  0  0  0
   -2.9730   -0.1731    5.2623 H   0  0  0  0  0  0  0  0  0  0  0  0
   -3.1627   -2.8878    6.2143 H   0  0  0  0  0  0  0  0  0  0  0  0
   -1.4932   -2.3009    6.4170 H   0  0  0  0  0  0  0  0  0  0  0  0
   -2.8376   -1.4531    7.2095 H   0  0  0  0  0  0  0  0  0  0  0  0
  1  2  2  0  0  0  0
  1  3  1  0  0  0  0
  1  7  1  0  0  0  0
  3  4  1  0  0  0  0
  3  5  1  0  0  0  0
  3  6  1  0  0  0  0
  7  8  1  0  0  0  0
  7 12  1  0  0  0  0
  8  9  1  0  0  0  0
  8 11  1  0  0  0  0
  8 13  1  0  0  0  0
  9 10  2  0  0  0  0
  9 17  1  0  0  0  0
 11 14  1  0  0  0  0
 11 15  1  0  0  0  0
 11 16  1  0  0  0  0
 17 18  1  0  0  0  0
 17 26  1  0  0  0  0
 18 19  1  0  0  0  0
 18 21  1  0  0  0  0
 18 27  1  0  0  0  0
 19 20  2  0  0  0  0
 19 32  1  0  0  0  0
 21 22  1  0  0  0  0
 21 28  1  0  0  0  0
 21 29  1  0  0  0  0
 22 23  1  0  0  0  0
 22 30  1  0  0  0  0
 22 31  1  0  0  0  0
 23 24  1  0  0  0  0
 23 25  2  0  0  0  0
 32 33  1  0  0  0  0
 32 37  1  0  0  0  0
 33 34  1  0  0  0  0
 33 36  1  0  0  0  0
 33 38  1  0  0  0  0
 34 35  2  0  0  0  0
 34 42  1  0  0  0  0
 36 39  1  0  0  0  0
 36 40  1  0  0  0  0
 36 41  1  0  0  0  0
 42 43  1  0  0  0  0
 42 44  1  0  0  0  0
 43 45  1  0  0  0  0
 43 46  1  0  0  0  0
 43 47  1  0  0  0  0
M  CHG  1  24  -1
M  END
$$$$

  -OEChem-05262216243D

 47 46  0     1  0  0  0  0  0999 V2000
    0.9082   -5.9713    1.0854 C   0  0  0  0  0  0  0  0  0  0  0  0
    2.1164   -5.9313    1.2629 O   0  0  0  0  0  0  0  0  0  0  0  0
    0.0605   -6.9548    1.8713 C   0  0  0  0  0  0  0  0  0  0  0  0
   -0.4194   -7.6607    1.1889 H   0  0  0  0  0  0  0  0  0  0  0  0
    0.6831   -7.5111    2.5775 H   0  0  0  0  0  0  0  0  0  0  0  0
   -0.7103   -6.4179    2.4303 H   0  0  0  0  0  0  0  0  0  0  0  0
    0.2996   -5.1283    0.1806 N   0  0  0  0  0  0  0  0  0  0  0  0
    0.9451   -3.9499   -0.4140 C   0  0  2  0  0  0  0  0  0  0  0  0
    0.1180   -2.6775   -0.1354 C   0  0  0  0  0  0  0  0  0  0  0  0
   -1.0683   -2.7784    0.1622 O   0  0  0  0  0  0  0  0  0  0  0  0
    1.0747   -4.1896   -1.9198 C   0  0  0  0  0  0  0  0  0  0  0  0
   -0.7186   -5.0961    0.2159 H   0  0  0  0  0  0  0  0  0  0  0  0
    1.9432   -3.8010    0.0101 H   0  0  0  0  0  0  0  0  0  0  0  0
    0.0856   -4.2705   -2.3835 H   0  0  0  0  0  0  0  0  0  0  0  0
    1.6116   -3.3649   -2.3967 H   0  0  0  0  0  0  0  0  0  0  0  0
    1.6274   -5.1146   -2.1109 H   0  0  0  0  0  0  0  0  0  0  0  0
    0.7237   -1.4348   -0.0574 N   0  0  0  0  0  0  0  0  0  0  0  0
    0.0236   -0.1585   -0.3375 C   0  0  2  0  0  0  0  0  0  0  0  0
   -0.9471    0.2963    0.7797 C   0  0  0  0  0  0  0  0  0  0  0  0
   -1.4627    1.4081    0.7437 O   0  0  0  0  0  0  0  0  0  0  0  0
   -0.6417   -0.2061   -1.7294 C   0  0  0  0  0  0  0  0  0  0  0  0
    0.4312   -0.2602   -2.8322 C   0  0  0  0  0  0  0  0  0  0  0  0
   -0.2014   -0.3349   -4.2184 C   0  0  0  0  0  0  0  0  0  0  0  0
   -0.4618    0.7418   -4.8081 O   0  5  0  0  0  0  0  0  0  0  0  0
   -0.4101   -1.4818   -4.6860 O   0  0  0  0  0  0  0  0  0  0  0  0
    1.7036   -1.4480   -0.3237 H   0  0  0  0  0  0  0  0  0  0  0  0
    0.7837    0.6278   -0.3720 H   0  0  0  0  0  0  0  0  0  0  0  0
   -1.2460    0.6959   -1.8780 H   0  0  0  0  0  0  0  0  0  0  0  0
   -1.3172   -1.0631   -1.8162 H   0  0  0  0  0  0  0  0  0  0  0  0
    1.0615    0.6322   -2.7773 H   0  0  0  0  0  0  0  0  0  0  0  0
    1.0782   -1.1293   -2.6952 H   0  0  0  0  0  0  0  0  0  0  0  0
   -1.1101   -0.4658    1.9200 N   0  0  0  0  0  0  0  0  0  0  0  0
   -2.0544   -0.1606    2.9990 C   0  0  2  0  0  0  0  0  0  0  0  0
   -1.6894   -0.8622    4.3247 C   0  0  0  0  0  0  0  0  0  0  0  0
   -1.0103   -1.8835    4.3425 O   0  0  0  0  0  0  0  0  0  0  0  0
   -3.4573   -0.5853    2.5504 C   0  0  0  0  0  0  0  0  0  0  0  0
   -0.8204   -1.4401    1.8165 H   0  0  0  0  0  0  0  0  0  0  0  0
   -2.0476    0.9179    3.1865 H   0  0  0  0  0  0  0  0  0  0  0  0
   -3.4813   -1.6597    2.3407 H   0  0  0  0  0  0  0  0  0  0  0  0
   -4.1935   -0.3639    3.3287 H   0  0  0  0  0  0  0  0  0  0  0  0
   -3.7460   -0.0484    1.6413 H   0  0  0  0  0  0  0  0  0  0  0  0
   -2.1545   -0.3499    5.5234 N   0  0  0  0  0  0  0  0  0  0  0  0
   -1.8726   -0.9555    6.8184 C   0  0  0  0  0  0  0  0  0  0  0  0
   -2.7128    0.4975    5.4836 H   0  0  0  0  0  0  0  0  0  0  0  0
   -2.3136   -1.9560    6.8759 H   0  0  0  0  0  0  0  0  0  0  0  0
   -0.7921   -1.0364    6.9772 H   0  0  0  0  0  0  0  0  0  0  0  0
   -2.2945   -0.3441    7.6216 H   0  0  0  0  0  0  0  0  0  0  0  0
  1  2  2  0  0  0  0
  1  3  1  0  0  0  0
  1  7  1  0  0  0  0
  3  4  1  0  0  0  0
  3  5  1  0  0  0  0
  3  6  1  0  0  0  0
  7  8  1  0  0  0  0
  7 12  1  0  0  0  0
  8  9  1  0  0  0  0
  8 11  1  0  0  0  0
  8 13  1  0  0  0  0
  9 10  2  0  0  0  0
  9 17  1  0  0  0  0
 11 14  1  0  0  0  0
 11 15  1  0  0  0  0
 11 16  1  0  0  0  0
 17 18  1  0  0  0  0
 17 26  1  0  0  0  0
 18 19  1  0  0  0  0
 18 21  1  0  0  0  0
 18 27  1  0  0  0  0
 19 20  2  0  0  0  0
 19 32  1  0  0  0  0
 21 22  1  0  0  0  0
 21 28  1  0  0  0  0
 21 29  1  0  0  0  0
 22 23  1  0  0  0  0
 22 30  1  0  0  0  0
 22 31  1  0  0  0  0
 23 24  1  0  0  0  0
 23 25  2  0  0  0  0
 32 33  1  0  0  0  0
 32 37  1  0  0  0  0
 33 34  1  0  0  0  0
 33 36  1  0  0  0  0
 33 38  1  0  0  0  0
 34 35  2  0  0  0  0
 34 42  1  0  0  0  0
 36 39  1  0  0  0  0
 36 40  1  0  0  0  0
 36 41  1  0  0  0  0
 42 43  1  0  0  0  0
 42 44  1  0  0  0  0
 43 45  1  0  0  0  0
 43 46  1  0  0  0  0
 43 47  1  0  0  0  0
M  CHG  1  24  -1
M  END
$$$$

  -OEChem-05262216243D

 47 46  0     1  0  0  0  0  0999 V2000
    0.6626   -6.0561    1.0319 C   0  0  0  0  0  0  0  0  0  0  0  0
    1.8545   -6.1128    1.2950 O   0  0  0  0  0  0  0  0  0  0  0  0
   -0.2966   -7.0548    1.6531 C   0  0  0  0  0  0  0  0  0  0  0  0
   -0.7514   -7.6695    0.8724 H   0  0  0  0  0  0  0  0  0  0  0  0
    0.2354   -7.7061    2.3520 H   0  0  0  0  0  0  0  0  0  0  0  0
   -1.0842   -6.5259    2.1957 H   0  0  0  0  0  0  0  0  0  0  0  0
    0.1730   -5.0860    0.1845 N   0  0  0  0  0  0  0  0  0  0  0  0
    0.9325   -3.9067   -0.2518 C   0  0  2  0  0  0  0  0  0  0  0  0
    0.1245   -2.6123   -0.0145 C   0  0  0  0  0  0  0  0  0  0  0  0
   -1.0499   -2.6827    0.3339 O   0  0  0  0  0  0  0  0  0  0  0  0
    1.2601   -4.0798   -1.7367 C   0  0  0  0  0  0  0  0  0  0  0  0
   -0.8413   -4.9885    0.1502 H   0  0  0  0  0  0  0  0  0  0  0  0
    1.8665   -3.8225    0.3133 H   0  0  0  0  0  0  0  0  0  0  0  0
    0.3439   -4.0651   -2.3374 H   0  0  0  0  0  0  0  0  0  0  0  0
    1.9143   -3.2751   -2.0831 H   0  0  0  0  0  0  0  0  0  0  0  0
    1.7719   -5.0326   -1.9034 H   0  0  0  0  0  0  0  0  0  0  0  0
    0.7405   -1.3723   -0.0474 N   0  0  0  0  0  0  0  0  0  0  0  0
    0.0206   -0.1213   -0.3840 C   0  0  2  0  0  0  0  0  0  0  0  0
   -0.8939    0.3866    0.7577 C   0  0  0  0  0  0  0  0  0  0  0  0
   -1.6507    1.3377    0.5969 O   0  0  0  0  0  0  0  0  0  0  0  0
   -0.7000   -0.2566   -1.7443 C   0  0  0  0  0  0  0  0  0  0  0  0
    0.3278   -0.3758   -2.8848 C   0  0  0  0  0  0  0  0  0  0  0  0
   -0.3581   -0.5373   -4.2384 C   0  0  0  0  0  0  0  0  0  0  0  0
   -0.5695    0.4952   -4.9195 O   0  5  0  0  0  0  0  0  0  0  0  0
   -0.6487   -1.7067   -4.5930 O   0  0  0  0  0  0  0  0  0  0  0  0
    1.7016   -1.4104   -0.3735 H   0  0  0  0  0  0  0  0  0  0  0  0
    0.7710    0.6661   -0.4990 H   0  0  0  0  0  0  0  0  0  0  0  0
   -1.3134    0.6331   -1.9262 H   0  0  0  0  0  0  0  0  0  0  0  0
   -1.3756   -1.1179   -1.7509 H   0  0  0  0  0  0  0  0  0  0  0  0
    0.9588    0.5177   -2.9090 H   0  0  0  0  0  0  0  0  0  0  0  0
    0.9800   -1.2359   -2.7227 H   0  0  0  0  0  0  0  0  0  0  0  0
   -0.7495   -0.1234    2.0337 N   0  0  0  0  0  0  0  0  0  0  0  0
   -1.6408    0.1823    3.1573 C   0  0  2  0  0  0  0  0  0  0  0  0
   -1.0152   -0.1727    4.5233 C   0  0  0  0  0  0  0  0  0  0  0  0
   -0.0407   -0.9133    4.6055 O   0  0  0  0  0  0  0  0  0  0  0  0
   -2.9487   -0.5953    2.9629 C   0  0  0  0  0  0  0  0  0  0  0  0
   -0.2034   -0.9810    2.0951 H   0  0  0  0  0  0  0  0  0  0  0  0
   -1.8559    1.2558    3.1637 H   0  0  0  0  0  0  0  0  0  0  0  0
   -2.7517   -1.6721    2.9368 H   0  0  0  0  0  0  0  0  0  0  0  0
   -3.6466   -0.3860    3.7788 H   0  0  0  0  0  0  0  0  0  0  0  0
   -3.4271   -0.3092    2.0208 H   0  0  0  0  0  0  0  0  0  0  0  0
   -1.5678    0.3367    5.6853 N   0  0  0  0  0  0  0  0  0  0  0  0
   -1.0618    0.0302    7.0165 C   0  0  0  0  0  0  0  0  0  0  0  0
   -2.3750    0.9454    5.5898 H   0  0  0  0  0  0  0  0  0  0  0  0
   -1.0946   -1.0491    7.1990 H   0  0  0  0  0  0  0  0  0  0  0  0
   -0.0278    0.3750    7.1214 H   0  0  0  0  0  0  0  0  0  0  0  0
   -1.6718    0.5279    7.7761 H   0  0  0  0  0  0  0  0  0  0  0  0
  1  2  2  0  0  0  0
  1  3  1  0  0  0  0
  1  7  1  0  0  0  0
  3  4  1  0  0  0  0
  3  5  1  0  0  0  0
  3  6  1  0  0  0  0
  7  8  1  0  0  0  0
  7 12  1  0  0  0  0
  8  9  1  0  0  0  0
  8 11  1  0  0  0  0
  8 13  1  0  0  0  0
  9 10  2  0  0  0  0
  9 17  1  0  0  0  0
 11 14  1  0  0  0  0
 11 15  1  0  0  0  0
 11 16  1  0  0  0  0
 17 18  1  0  0  0  0
 17 26  1  0  0  0  0
 18 19  1  0  0  0  0
 18 21  1  0  0  0  0
 18 27  1  0  0  0  0
 19 20  2  0  0  0  0
 19 32  1  0  0  0  0
 21 22  1  0  0  0  0
 21 28  1  0  0  0  0
 21 29  1  0  0  0  0
 22 23  1  0  0  0  0
 22 30  1  0  0  0  0
 22 31  1  0  0  0  0
 23 24  1  0  0  0  0
 23 25  2  0  0  0  0
 32 33  1  0  0  0  0
 32 37  1  0  0  0  0
 33 34  1  0  0  0  0
 33 36  1  0  0  0  0
 33 38  1  0  0  0  0
 34 35  2  0  0  0  0
 34 42  1  0  0  0  0
 36 39  1  0  0  0  0
 36 40  1  0  0  0  0
 36 41  1  0  0  0  0
 42 43  1  0  0  0  0
 42 44  1  0  0  0  0
 43 45  1  0  0  0  0
 43 46  1  0  0  0  0
 43 47  1  0  0  0  0
M  CHG  1  24  -1
M  END
$$$$

  -OEChem-05262216243D

 47 46  0     1  0  0  0  0  0999 V2000
    0.5196   -6.0400    1.0757 C   0  0  0  0  0  0  0  0  0  0  0  0
    1.6928   -6.1083    1.4108 O   0  0  0  0  0  0  0  0  0  0  0  0
   -0.4815   -7.0436    1.6183 C   0  0  0  0  0  0  0  0  0  0  0  0
   -0.9404   -7.5944    0.7934 H   0  0  0  0  0  0  0  0  0  0  0  0
    0.0169   -7.7541    2.2837 H   0  0  0  0  0  0  0  0  0  0  0  0
   -1.2631   -6.5239    2.1786 H   0  0  0  0  0  0  0  0  0  0  0  0
    0.0873   -5.0554    0.2143 N   0  0  0  0  0  0  0  0  0  0  0  0
    0.8824   -3.8833   -0.1754 C   0  0  2  0  0  0  0  0  0  0  0  0
    0.0877   -2.5769    0.0434 C   0  0  0  0  0  0  0  0  0  0  0  0
   -1.0909   -2.6302    0.3802 O   0  0  0  0  0  0  0  0  0  0  0  0
    1.2676   -4.0487   -1.6479 C   0  0  0  0  0  0  0  0  0  0  0  0
   -0.9226   -4.9467    0.1264 H   0  0  0  0  0  0  0  0  0  0  0  0
    1.7936   -3.8207    0.4285 H   0  0  0  0  0  0  0  0  0  0  0  0
    0.3782   -4.0064   -2.2864 H   0  0  0  0  0  0  0  0  0  0  0  0
    1.9538   -3.2563   -1.9583 H   0  0  0  0  0  0  0  0  0  0  0  0
    1.7642   -5.0111   -1.8044 H   0  0  0  0  0  0  0  0  0  0  0  0
    0.7182   -1.3446   -0.0120 N   0  0  0  0  0  0  0  0  0  0  0  0
    0.0064   -0.0993   -0.3820 C   0  0  2  0  0  0  0  0  0  0  0  0
   -0.9056    0.4190    0.7560 C   0  0  0  0  0  0  0  0  0  0  0  0
   -1.8462    1.1773    0.5476 O   0  0  0  0  0  0  0  0  0  0  0  0
   -0.6968   -0.2581   -1.7493 C   0  0  0  0  0  0  0  0  0  0  0  0
    0.3498   -0.4011   -2.8702 C   0  0  0  0  0  0  0  0  0  0  0  0
   -0.3115   -0.5867   -4.2326 C   0  0  0  0  0  0  0  0  0  0  0  0
   -0.5910    0.4404   -4.8973 O   0  5  0  0  0  0  0  0  0  0  0  0
   -0.5098   -1.7677   -4.6122 O   0  0  0  0  0  0  0  0  0  0  0  0
    1.6755   -1.4016   -0.3462 H   0  0  0  0  0  0  0  0  0  0  0  0
    0.7573    0.6864   -0.5035 H   0  0  0  0  0  0  0  0  0  0  0  0
   -1.3042    0.6299   -1.9576 H   0  0  0  0  0  0  0  0  0  0  0  0
   -1.3749   -1.1171   -1.7499 H   0  0  0  0  0  0  0  0  0  0  0  0
    0.9819    0.4914   -2.9015 H   0  0  0  0  0  0  0  0  0  0  0  0
    0.9992   -1.2574   -2.6793 H   0  0  0  0  0  0  0  0  0  0  0  0
   -0.5544    0.1613    2.0677 N   0  0  0  0  0  0  0  0  0  0  0  0
   -1.4028    0.4602    3.2254 C   0  0  2  0  0  0  0  0  0  0  0  0
   -0.6060    0.4817    4.5462 C   0  0  0  0  0  0  0  0  0  0  0  0
    0.4707   -0.0981    4.6466 O   0  0  0  0  0  0  0  0  0  0  0  0
   -2.5093   -0.5989    3.2983 C   0  0  0  0  0  0  0  0  0  0  0  0
    0.1819   -0.5292    2.1972 H   0  0  0  0  0  0  0  0  0  0  0  0
   -1.8552    1.4488    3.0960 H   0  0  0  0  0  0  0  0  0  0  0  0
   -2.0743   -1.5981    3.4046 H   0  0  0  0  0  0  0  0  0  0  0  0
   -3.1672   -0.4111    4.1516 H   0  0  0  0  0  0  0  0  0  0  0  0
   -3.1149   -0.5819    2.3865 H   0  0  0  0  0  0  0  0  0  0  0  0
   -1.1152    1.1483    5.6466 N   0  0  0  0  0  0  0  0  0  0  0  0
   -0.4367    1.2073    6.9346 C   0  0  0  0  0  0  0  0  0  0  0  0
   -2.0058    1.6235    5.5333 H   0  0  0  0  0  0  0  0  0  0  0  0
   -0.3272    0.2023    7.3553 H   0  0  0  0  0  0  0  0  0  0  0  0
    0.5568    1.6545    6.8244 H   0  0  0  0  0  0  0  0  0  0  0  0
   -1.0135    1.8159    7.6374 H   0  0  0  0  0  0  0  0  0  0  0  0
  1  2  2  0  0  0  0
  1  3  1  0  0  0  0
  1  7  1  0  0  0  0
  3  4  1  0  0  0  0
  3  5  1  0  0  0  0
  3  6  1  0  0  0  0
  7  8  1  0  0  0  0
  7 12  1  0  0  0  0
  8  9  1  0  0  0  0
  8 11  1  0  0  0  0
  8 13  1  0  0  0  0
  9 10  2  0  0  0  0
  9 17  1  0  0  0  0
 11 14  1  0  0  0  0
 11 15  1  0  0  0  0
 11 16  1  0  0  0  0
 17 18  1  0  0  0  0
 17 26  1  0  0  0  0
 18 19  1  0  0  0  0
 18 21  1  0  0  0  0
 18 27  1  0  0  0  0
 19 20  2  0  0  0  0
 19 32  1  0  0  0  0
 21 22  1  0  0  0  0
 21 28  1  0  0  0  0
 21 29  1  0  0  0  0
 22 23  1  0  0  0  0
 22 30  1  0  0  0  0
 22 31  1  0  0  0  0
 23 24  1  0  0  0  0
 23 25  2  0  0  0  0
 32 33  1  0  0  0  0
 32 37  1  0  0  0  0
 33 34  1  0  0  0  0
 33 36  1  0  0  0  0
 33 38  1  0  0  0  0
 34 35  2  0  0  0  0
 34 42  1  0  0  0  0
 36 39  1  0  0  0  0
 36 40  1  0  0  0  0
 36 41  1  0  0  0  0
 42 43  1  0  0  0  0
 42 44  1  0  0  0  0
 43 45  1  0  0  0  0
 43 46  1  0  0  0  0
 43 47  1  0  0  0  0
M  CHG  1  24  -1
M  END
$$$$

  -OEChem-05262216243D

 47 46  0     1  0  0  0  0  0999 V2000
    0.4364   -5.9070    1.2466 C   0  0  0  0  0  0  0  0  0  0  0  0
    1.5630   -5.9063    1.7203 O   0  0  0  0  0  0  0  0  0  0  0  0
   -0.6090   -6.8667    1.7852 C   0  0  0  0  0  0  0  0  0  0  0  0
   -0.9212   -7.5568    0.9975 H   0  0  0  0  0  0  0  0  0  0  0  0
   -0.2001   -7.4440    2.6190 H   0  0  0  0  0  0  0  0  0  0  0  0
   -1.4804   -6.3085    2.1372 H   0  0  0  0  0  0  0  0  0  0  0  0
    0.0934   -5.0397    0.2322 N   0  0  0  0  0  0  0  0  0  0  0  0
    0.8900   -3.8657   -0.1506 C   0  0  2  0  0  0  0  0  0  0  0  0
    0.0834   -2.5628    0.0444 C   0  0  0  0  0  0  0  0  0  0  0  0
   -1.1007   -2.6229    0.3586 O   0  0  0  0  0  0  0  0  0  0  0  0
    1.3030   -4.0409   -1.6145 C   0  0  0  0  0  0  0  0  0  0  0  0
   -0.9048   -4.9633    0.0409 H   0  0  0  0  0  0  0  0  0  0  0  0
    1.7916   -3.7913    0.4658 H   0  0  0  0  0  0  0  0  0  0  0  0
    0.4249   -4.0121   -2.2693 H   0  0  0  0  0  0  0  0  0  0  0  0
    1.9877   -3.2450   -1.9199 H   0  0  0  0  0  0  0  0  0  0  0  0
    1.8105   -5.0004   -1.7539 H   0  0  0  0  0  0  0  0  0  0  0  0
    0.7067   -1.3275   -0.0197 N   0  0  0  0  0  0  0  0  0  0  0  0
   -0.0102   -0.0924   -0.4084 C   0  0  2  0  0  0  0  0  0  0  0  0
   -0.9307    0.4220    0.7237 C   0  0  0  0  0  0  0  0  0  0  0  0
   -2.0125    0.9570    0.5080 O   0  0  0  0  0  0  0  0  0  0  0  0
   -0.6986   -0.2682   -1.7810 C   0  0  0  0  0  0  0  0  0  0  0  0
    0.3612   -0.4127   -2.8889 C   0  0  0  0  0  0  0  0  0  0  0  0
   -0.2811   -0.6152   -4.2577 C   0  0  0  0  0  0  0  0  0  0  0  0
   -0.5894    0.4049   -4.9204 O   0  5  0  0  0  0  0  0  0  0  0  0
   -0.4311   -1.8002   -4.6462 O   0  0  0  0  0  0  0  0  0  0  0  0
    1.6671   -1.3829   -0.3448 H   0  0  0  0  0  0  0  0  0  0  0  0
    0.7353    0.6983   -0.5319 H   0  0  0  0  0  0  0  0  0  0  0  0
   -1.3092    0.6141   -2.0016 H   0  0  0  0  0  0  0  0  0  0  0  0
   -1.3712   -1.1318   -1.7808 H   0  0  0  0  0  0  0  0  0  0  0  0
    0.9839    0.4861   -2.9212 H   0  0  0  0  0  0  0  0  0  0  0  0
    1.0170   -1.2607   -2.6819 H   0  0  0  0  0  0  0  0  0  0  0  0
   -0.4364    0.4537    2.0141 N   0  0  0  0  0  0  0  0  0  0  0  0
   -1.2257    0.8126    3.1966 C   0  0  2  0  0  0  0  0  0  0  0  0
   -0.3377    1.1577    4.4103 C   0  0  0  0  0  0  0  0  0  0  0  0
    0.8394    0.8131    4.4512 O   0  0  0  0  0  0  0  0  0  0  0  0
   -2.1470   -0.3647    3.5388 C   0  0  0  0  0  0  0  0  0  0  0  0
    0.4448   -0.0302    2.1704 H   0  0  0  0  0  0  0  0  0  0  0  0
   -1.8336    1.6946    2.9701 H   0  0  0  0  0  0  0  0  0  0  0  0
   -1.5561   -1.2612    3.7524 H   0  0  0  0  0  0  0  0  0  0  0  0
   -2.7605   -0.1323    4.4140 H   0  0  0  0  0  0  0  0  0  0  0  0
   -2.8153   -0.5841    2.6997 H   0  0  0  0  0  0  0  0  0  0  0  0
   -0.8722    1.8526    5.4807 N   0  0  0  0  0  0  0  0  0  0  0  0
   -0.1084    2.2095    6.6688 C   0  0  0  0  0  0  0  0  0  0  0  0
   -1.8473    2.1299    5.4172 H   0  0  0  0  0  0  0  0  0  0  0  0
    0.2711    1.3098    7.1646 H   0  0  0  0  0  0  0  0  0  0  0  0
    0.7387    2.8499    6.4015 H   0  0  0  0  0  0  0  0  0  0  0  0
   -0.7428    2.7522    7.3758 H   0  0  0  0  0  0  0  0  0  0  0  0
  1  2  2  0  0  0  0
  1  3  1  0  0  0  0
  1  7  1  0  0  0  0
  3  4  1  0  0  0  0
  3  5  1  0  0  0  0
  3  6  1  0  0  0  0
  7  8  1  0  0  0  0
  7 12  1  0  0  0  0
  8  9  1  0  0  0  0
  8 11  1  0  0  0  0
  8 13  1  0  0  0  0
  9 10  2  0  0  0  0
  9 17  1  0  0  0  0
 11 14  1  0  0  0  0
 11 15  1  0  0  0  0
 11 16  1  0  0  0  0
 17 18  1  0  0  0  0
 17 26  1  0  0  0  0
 18 19  1  0  0  0  0
 18 21  1  0  0  0  0
 18 27  1  0  0  0  0
 19 20  2  0  0  0  0
 19 32  1  0  0  0  0
 21 22  1  0  0  0  0
 21 28  1  0  0  0  0
 21 29  1  0  0  0  0
 22 23  1  0  0  0  0
 22 30  1  0  0  0  0
 22 31  1  0  0  0  0
 23 24  1  0  0  0  0
 23 25  2  0  0  0  0
 32 33  1  0  0  0  0
 32 37  1  0  0  0  0
 33 34  1  0  0  0  0
 33 36  1  0  0  0  0
 33 38  1  0  0  0  0
 34 35  2  0  0  0  0
 34 42  1  0  0  0  0
 36 39  1  0  0  0  0
 36 40  1  0  0  0  0
 36 41  1  0  0  0  0
 42 43  1  0  0  0  0
 42 44  1  0  0  0  0
 43 45  1  0  0  0  0
 43 46  1  0  0  0  0
 43 47  1  0  0  0  0
M  CHG  1  24  -1
M  END
$$$$

  -OEChem-05262216243D

 47 46  0     1  0  0  0  0  0999 V2000
    0.4551   -5.9696    1.2224 C   0  0  0  0  0  0  0  0  0  0  0  0
    1.6109   -6.0000    1.6186 O   0  0  0  0  0  0  0  0  0  0  0  0
   -0.5659   -6.9335    1.7984 C   0  0  0  0  0  0  0  0  0  0  0  0
   -0.9467   -7.5869    1.0098 H   0  0  0  0  0  0  0  0  0  0  0  0
   -0.1077   -7.5488    2.5776 H   0  0  0  0  0  0  0  0  0  0  0  0
   -1.3994   -6.3766    2.2339 H   0  0  0  0  0  0  0  0  0  0  0  0
    0.0584   -5.0598    0.2667 N   0  0  0  0  0  0  0  0  0  0  0  0
    0.8514   -3.8912   -0.1389 C   0  0  2  0  0  0  0  0  0  0  0  0
    0.0466   -2.5870    0.0516 C   0  0  0  0  0  0  0  0  0  0  0  0
   -1.1437   -2.6485    0.3394 O   0  0  0  0  0  0  0  0  0  0  0  0
    1.2491   -4.0784   -1.6053 C   0  0  0  0  0  0  0  0  0  0  0  0
   -0.9487   -4.9613    0.1408 H   0  0  0  0  0  0  0  0  0  0  0  0
    1.7584   -3.8121    0.4685 H   0  0  0  0  0  0  0  0  0  0  0  0
    0.3635   -4.0651   -2.2503 H   0  0  0  0  0  0  0  0  0  0  0  0
    1.9230   -3.2796   -1.9272 H   0  0  0  0  0  0  0  0  0  0  0  0
    1.7638   -5.0348   -1.7393 H   0  0  0  0  0  0  0  0  0  0  0  0
    0.6787   -1.3551    0.0198 N   0  0  0  0  0  0  0  0  0  0  0  0
   -0.0187   -0.1080   -0.3615 C   0  0  2  0  0  0  0  0  0  0  0  0
   -0.9581    0.4004    0.7573 C   0  0  0  0  0  0  0  0  0  0  0  0
   -2.1201    0.7318    0.5512 O   0  0  0  0  0  0  0  0  0  0  0  0
   -0.6712   -0.2475   -1.7549 C   0  0  0  0  0  0  0  0  0  0  0  0
    0.4196   -0.3748   -2.8350 C   0  0  0  0  0  0  0  0  0  0  0  0
   -0.1812   -0.5417   -4.2273 C   0  0  0  0  0  0  0  0  0  0  0  0
   -0.5706    0.4893   -4.8279 O   0  5  0  0  0  0  0  0  0  0  0  0
   -0.2155   -1.7062   -4.6970 O   0  0  0  0  0  0  0  0  0  0  0  0
    1.6441   -1.4139   -0.2890 H   0  0  0  0  0  0  0  0  0  0  0  0
    0.7377    0.6765   -0.4548 H   0  0  0  0  0  0  0  0  0  0  0  0
   -1.2716    0.6432   -1.9705 H   0  0  0  0  0  0  0  0  0  0  0  0
   -1.3475   -1.1077   -1.7917 H   0  0  0  0  0  0  0  0  0  0  0  0
    1.0476    0.5208   -2.8290 H   0  0  0  0  0  0  0  0  0  0  0  0
    1.0644   -1.2307   -2.6264 H   0  0  0  0  0  0  0  0  0  0  0  0
   -0.4104    0.7067    1.9895 N   0  0  0  0  0  0  0  0  0  0  0  0
   -1.1769    1.1833    3.1457 C   0  0  2  0  0  0  0  0  0  0  0  0
   -0.2808    1.8716    4.1957 C   0  0  0  0  0  0  0  0  0  0  0  0
    0.9210    1.6295    4.2516 O   0  0  0  0  0  0  0  0  0  0  0  0
   -1.9009   -0.0126    3.7755 C   0  0  0  0  0  0  0  0  0  0  0  0
    0.5535    0.4235    2.1492 H   0  0  0  0  0  0  0  0  0  0  0  0
   -1.9161    1.9179    2.8095 H   0  0  0  0  0  0  0  0  0  0  0  0
   -1.1782   -0.7647    4.1081 H   0  0  0  0  0  0  0  0  0  0  0  0
   -2.4944    0.3073    4.6369 H   0  0  0  0  0  0  0  0  0  0  0  0
   -2.5742   -0.4774    3.0477 H   0  0  0  0  0  0  0  0  0  0  0  0
   -0.8334    2.7595    5.1014 N   0  0  0  0  0  0  0  0  0  0  0  0
   -0.0603    3.4429    6.1302 C   0  0  0  0  0  0  0  0  0  0  0  0
   -1.8268    2.9546    5.0165 H   0  0  0  0  0  0  0  0  0  0  0  0
    0.3745    2.7178    6.8259 H   0  0  0  0  0  0  0  0  0  0  0  0
    0.7483    4.0275    5.6790 H   0  0  0  0  0  0  0  0  0  0  0  0
   -0.7033    4.1233    6.6964 H   0  0  0  0  0  0  0  0  0  0  0  0
  1  2  2  0  0  0  0
  1  3  1  0  0  0  0
  1  7  1  0  0  0  0
  3  4  1  0  0  0  0
  3  5  1  0  0  0  0
  3  6  1  0  0  0  0
  7  8  1  0  0  0  0
  7 12  1  0  0  0  0
  8  9  1  0  0  0  0
  8 11  1  0  0  0  0
  8 13  1  0  0  0  0
  9 10  2  0  0  0  0
  9 17  1  0  0  0  0
 11 14  1  0  0  0  0
 11 15  1  0  0  0  0
 11 16  1  0  0  0  0
 17 18  1  0  0  0  0
 17 26  1  0  0  0  0
 18 19  1  0  0  0  0
 18 21  1  0  0  0  0
 18 27  1  0  0  0  0
 19 20  2  0  0  0  0
 19 32  1  0  0  0  0
 21 22  1  0  0  0  0
 21 28  1  0  0  0  0
 21 29  1  0  0  0  0
 22 23  1  0  0  0  0
 22 30  1  0  0  0  0
 22 31  1  0  0  0  0
 23 24  1  0  0  0  0
 23 25  2  0  0  0  0
 32 33  1  0  0  0  0
 32 37  1  0  0  0  0
 33 34  1  0  0  0  0
 33 36  1  0  0  0  0
 33 38  1  0  0  0  0
 34 35  2  0  0  0  0
 34 42  1  0  0  0  0
 36 39  1  0  0  0  0
 36 40  1  0  0  0  0
 36 41  1  0  0  0  0
 42 43  1  0  0  0  0
 42 44  1  0  0  0  0
 43 45  1  0  0  0  0
 43 46  1  0  0  0  0
 43 47  1  0  0  0  0
M  CHG  1  24  -1
M  END
$$$$

  -OEChem-05262216243D

 47 46  0     1  0  0  0  0  0999 V2000
    0.4728   -5.9699    1.2593 C   0  0  0  0  0  0  0  0  0  0  0  0
    1.6217   -5.9735    1.6764 O   0  0  0  0  0  0  0  0  0  0  0  0
   -0.5451   -6.9318    1.8443 C   0  0  0  0  0  0  0  0  0  0  0  0
   -0.9175   -7.6000    1.0640 H   0  0  0  0  0  0  0  0  0  0  0  0
   -0.0882   -7.5321    2.6360 H   0  0  0  0  0  0  0  0  0  0  0  0
   -1.3846   -6.3731    2.2662 H   0  0  0  0  0  0  0  0  0  0  0  0
    0.0792   -5.0900    0.2746 N   0  0  0  0  0  0  0  0  0  0  0  0
    0.8565   -3.9124   -0.1352 C   0  0  2  0  0  0  0  0  0  0  0  0
    0.0359   -2.6175    0.0531 C   0  0  0  0  0  0  0  0  0  0  0  0
   -1.1612   -2.6951    0.3029 O   0  0  0  0  0  0  0  0  0  0  0  0
    1.2527   -4.0972   -1.6024 C   0  0  0  0  0  0  0  0  0  0  0  0
   -0.9273   -5.0095    0.1321 H   0  0  0  0  0  0  0  0  0  0  0  0
    1.7642   -3.8192    0.4691 H   0  0  0  0  0  0  0  0  0  0  0  0
    0.3647   -4.1033   -2.2439 H   0  0  0  0  0  0  0  0  0  0  0  0
    1.9100   -3.2868   -1.9301 H   0  0  0  0  0  0  0  0  0  0  0  0
    1.7850   -5.0440   -1.7343 H   0  0  0  0  0  0  0  0  0  0  0  0
    0.6637   -1.3831    0.0469 N   0  0  0  0  0  0  0  0  0  0  0  0
   -0.0196   -0.1250   -0.3207 C   0  0  2  0  0  0  0  0  0  0  0  0
   -0.9733    0.3826    0.7874 C   0  0  0  0  0  0  0  0  0  0  0  0
   -2.1825    0.4983    0.6237 O   0  0  0  0  0  0  0  0  0  0  0  0
   -0.6589   -0.2326   -1.7224 C   0  0  0  0  0  0  0  0  0  0  0  0
    0.4412   -0.3492   -2.7943 C   0  0  0  0  0  0  0  0  0  0  0  0
   -0.1472   -0.4838   -4.1957 C   0  0  0  0  0  0  0  0  0  0  0  0
   -0.5495    0.5608   -4.7635 O   0  5  0  0  0  0  0  0  0  0  0  0
   -0.1543   -1.6308   -4.7073 O   0  0  0  0  0  0  0  0  0  0  0  0
    1.6400   -1.4353   -0.2259 H   0  0  0  0  0  0  0  0  0  0  0  0
    0.7464    0.6516   -0.3985 H   0  0  0  0  0  0  0  0  0  0  0  0
   -1.2521    0.6658   -1.9255 H   0  0  0  0  0  0  0  0  0  0  0  0
   -1.3408   -1.0873   -1.7807 H   0  0  0  0  0  0  0  0  0  0  0  0
    1.0779    0.5397   -2.7649 H   0  0  0  0  0  0  0  0  0  0  0  0
    1.0747   -1.2161   -2.5956 H   0  0  0  0  0  0  0  0  0  0  0  0
   -0.4252    0.9650    1.9164 N   0  0  0  0  0  0  0  0  0  0  0  0
   -1.1992    1.5679    3.0073 C   0  0  2  0  0  0  0  0  0  0  0  0
   -0.3544    2.5493    3.8449 C   0  0  0  0  0  0  0  0  0  0  0  0
    0.8712    2.4844    3.8402 O   0  0  0  0  0  0  0  0  0  0  0  0
   -1.7457    0.4476    3.9000 C   0  0  0  0  0  0  0  0  0  0  0  0
    0.5851    0.9170    2.0273 H   0  0  0  0  0  0  0  0  0  0  0  0
   -2.0363    2.1340    2.5857 H   0  0  0  0  0  0  0  0  0  0  0  0
   -0.9243   -0.1401    4.3223 H   0  0  0  0  0  0  0  0  0  0  0  0
   -2.3365    0.8641    4.7209 H   0  0  0  0  0  0  0  0  0  0  0  0
   -2.3895   -0.2218    3.3202 H   0  0  0  0  0  0  0  0  0  0  0  0
   -0.9789    3.5071    4.6238 N   0  0  0  0  0  0  0  0  0  0  0  0
   -0.2569    4.4733    5.4411 C   0  0  0  0  0  0  0  0  0  0  0  0
   -1.9932    3.5531    4.5824 H   0  0  0  0  0  0  0  0  0  0  0  0
    0.3447    3.9593    6.1977 H   0  0  0  0  0  0  0  0  0  0  0  0
    0.4054    5.0838    4.8184 H   0  0  0  0  0  0  0  0  0  0  0  0
   -0.9611    5.1371    5.9516 H   0  0  0  0  0  0  0  0  0  0  0  0
  1  2  2  0  0  0  0
  1  3  1  0  0  0  0
  1  7  1  0  0  0  0
  3  4  1  0  0  0  0
  3  5  1  0  0  0  0
  3  6  1  0  0  0  0
  7  8  1  0  0  0  0
  7 12  1  0  0  0  0
  8  9  1  0  0  0  0
  8 11  1  0  0  0  0
  8 13  1  0  0  0  0
  9 10  2  0  0  0  0
  9 17  1  0  0  0  0
 11 14  1  0  0  0  0
 11 15  1  0  0  0  0
 11 16  1  0  0  0  0
 17 18  1  0  0  0  0
 17 26  1  0  0  0  0
 18 19  1  0  0  0  0
 18 21  1  0  0  0  0
 18 27  1  0  0  0  0
 19 20  2  0  0  0  0
 19 32  1  0  0  0  0
 21 22  1  0  0  0  0
 21 28  1  0  0  0  0
 21 29  1  0  0  0  0
 22 23  1  0  0  0  0
 22 30  1  0  0  0  0
 22 31  1  0  0  0  0
 23 24  1  0  0  0  0
 23 25  2  0  0  0  0
 32 33  1  0  0  0  0
 32 37  1  0  0  0  0
 33 34  1  0  0  0  0
 33 36  1  0  0  0  0
 33 38  1  0  0  0  0
 34 35  2  0  0  0  0
 34 42  1  0  0  0  0
 36 39  1  0  0  0  0
 36 40  1  0  0  0  0
 36 41  1  0  0  0  0
 42 43  1  0  0  0  0
 42 44  1  0  0  0  0
 43 45  1  0  0  0  0
 43 46  1  0  0  0  0
 43 47  1  0  0  0  0
M  CHG  1  24  -1
M  END
$$$$

  -OEChem-05262216243D

 47 46  0     1  0  0  0  0  0999 V2000
    0.4877   -5.9665    1.3065 C   0  0  0  0  0  0  0  0  0  0  0  0
    1.6245   -5.9386    1.7551 O   0  0  0  0  0  0  0  0  0  0  0  0
   -0.5217   -6.9511    1.8680 C   0  0  0  0  0  0  0  0  0  0  0  0
   -0.8636   -7.6244    1.0780 H   0  0  0  0  0  0  0  0  0  0  0  0
   -0.0679   -7.5444    2.6664 H   0  0  0  0  0  0  0  0  0  0  0  0
   -1.3809   -6.4117    2.2747 H   0  0  0  0  0  0  0  0  0  0  0  0
    0.1024   -5.1084    0.2993 N   0  0  0  0  0  0  0  0  0  0  0  0
    0.8679   -3.9236   -0.1116 C   0  0  2  0  0  0  0  0  0  0  0  0
    0.0263   -2.6391    0.0495 C   0  0  0  0  0  0  0  0  0  0  0  0
   -1.1792   -2.7356    0.2420 O   0  0  0  0  0  0  0  0  0  0  0  0
    1.2856   -4.1148   -1.5718 C   0  0  0  0  0  0  0  0  0  0  0  0
   -0.9019   -5.0475    0.1328 H   0  0  0  0  0  0  0  0  0  0  0  0
    1.7659   -3.8122    0.5039 H   0  0  0  0  0  0  0  0  0  0  0  0
    0.4050   -4.1489   -2.2225 H   0  0  0  0  0  0  0  0  0  0  0  0
    1.9254   -3.2909   -1.9003 H   0  0  0  0  0  0  0  0  0  0  0  0
    1.8427   -5.0493   -1.6882 H   0  0  0  0  0  0  0  0  0  0  0  0
    0.6476   -1.4016    0.0671 N   0  0  0  0  0  0  0  0  0  0  0  0
   -0.0217   -0.1301   -0.2782 C   0  0  2  0  0  0  0  0  0  0  0  0
   -0.9821    0.3790    0.8246 C   0  0  0  0  0  0  0  0  0  0  0  0
   -2.2002    0.2724    0.7480 O   0  0  0  0  0  0  0  0  0  0  0  0
   -0.6606   -0.1979   -1.6816 C   0  0  0  0  0  0  0  0  0  0  0  0
    0.4356   -0.3034   -2.7589 C   0  0  0  0  0  0  0  0  0  0  0  0
   -0.1570   -0.3982   -4.1624 C   0  0  0  0  0  0  0  0  0  0  0  0
   -0.6177    0.6521   -4.6733 O   0  5  0  0  0  0  0  0  0  0  0  0
   -0.1043   -1.5148   -4.7352 O   0  0  0  0  0  0  0  0  0  0  0  0
    1.6332   -1.4467   -0.1699 H   0  0  0  0  0  0  0  0  0  0  0  0
    0.7568    0.6351   -0.3416 H   0  0  0  0  0  0  0  0  0  0  0  0
   -1.2451    0.7112   -1.8623 H   0  0  0  0  0  0  0  0  0  0  0  0
   -1.3516   -1.0439   -1.7578 H   0  0  0  0  0  0  0  0  0  0  0  0
    1.0838    0.5765   -2.7126 H   0  0  0  0  0  0  0  0  0  0  0  0
    1.0575   -1.1835   -2.5802 H   0  0  0  0  0  0  0  0  0  0  0  0
   -0.4828    1.2130    1.8101 N   0  0  0  0  0  0  0  0  0  0  0  0
   -1.2984    1.9059    2.8144 C   0  0  2  0  0  0  0  0  0  0  0  0
   -0.5719    3.1347    3.3976 C   0  0  0  0  0  0  0  0  0  0  0  0
    0.6489    3.2347    3.3199 O   0  0  0  0  0  0  0  0  0  0  0  0
   -1.6453    0.9200    3.9359 C   0  0  0  0  0  0  0  0  0  0  0  0
    0.5194    1.3904    1.8185 H   0  0  0  0  0  0  0  0  0  0  0  0
   -2.2222    2.2610    2.3455 H   0  0  0  0  0  0  0  0  0  0  0  0
   -0.7336    0.5584    4.4219 H   0  0  0  0  0  0  0  0  0  0  0  0
   -2.2757    1.4020    4.6889 H   0  0  0  0  0  0  0  0  0  0  0  0
   -2.1893    0.0595    3.5331 H   0  0  0  0  0  0  0  0  0  0  0  0
   -1.2946    4.1315    4.0283 N   0  0  0  0  0  0  0  0  0  0  0  0
   -0.6858    5.3289    4.5921 C   0  0  0  0  0  0  0  0  0  0  0  0
   -2.3062    4.0377    4.0415 H   0  0  0  0  0  0  0  0  0  0  0  0
    0.0389    5.0607    5.3681 H   0  0  0  0  0  0  0  0  0  0  0  0
   -0.1728    5.9011    3.8119 H   0  0  0  0  0  0  0  0  0  0  0  0
   -1.4532    5.9664    5.0415 H   0  0  0  0  0  0  0  0  0  0  0  0
  1  2  2  0  0  0  0
  1  3  1  0  0  0  0
  1  7  1  0  0  0  0
  3  4  1  0  0  0  0
  3  5  1  0  0  0  0
  3  6  1  0  0  0  0
  7  8  1  0  0  0  0
  7 12  1  0  0  0  0
  8  9  1  0  0  0  0
  8 11  1  0  0  0  0
  8 13  1  0  0  0  0
  9 10  2  0  0  0  0
  9 17  1  0  0  0  0
 11 14  1  0  0  0  0
 11 15  1  0  0  0  0
 11 16  1  0  0  0  0
 17 18  1  0  0  0  0
 17 26  1  0  0  0  0
 18 19  1  0  0  0  0
 18 21  1  0  0  0  0
 18 27  1  0  0  0  0
 19 20  2  0  0  0  0
 19 32  1  0  0  0  0
 21 22  1  0  0  0  0
 21 28  1  0  0  0  0
 21 29  1  0  0  0  0
 22 23  1  0  0  0  0
 22 30  1  0  0  0  0
 22 31  1  0  0  0  0
 23 24  1  0  0  0  0
 23 25  2  0  0  0  0
 32 33  1  0  0  0  0
 32 37  1  0  0  0  0
 33 34  1  0  0  0  0
 33 36  1  0  0  0  0
 33 38  1  0  0  0  0
 34 35  2  0  0  0  0
 34 42  1  0  0  0  0
 36 39  1  0  0  0  0
 36 40  1  0  0  0  0
 36 41  1  0  0  0  0
 42 43  1  0  0  0  0
 42 44  1  0  0  0  0
 43 45  1  0  0  0  0
 43 46  1  0  0  0  0
 43 47  1  0  0  0  0
M  CHG  1  24  -1
M  END
$$$$

  -OEChem-05262216243D

 47 46  0     1  0  0  0  0  0999 V2000
    0.5049   -5.9911    1.3104 C   0  0  0  0  0  0  0  0  0  0  0  0
    1.6399   -5.9567    1.7633 O   0  0  0  0  0  0  0  0  0  0  0  0
   -0.4950   -6.9945    1.8557 C   0  0  0  0  0  0  0  0  0  0  0  0
   -0.8359   -7.6540    1.0540 H   0  0  0  0  0  0  0  0  0  0  0  0
   -0.0339   -7.6013    2.6397 H   0  0  0  0  0  0  0  0  0  0  0  0
   -1.3563   -6.4696    2.2766 H   0  0  0  0  0  0  0  0  0  0  0  0
    0.1134   -5.1225    0.3147 N   0  0  0  0  0  0  0  0  0  0  0  0
    0.8688   -3.9258   -0.0794 C   0  0  2  0  0  0  0  0  0  0  0  0
    0.0038   -2.6543    0.0560 C   0  0  0  0  0  0  0  0  0  0  0  0
   -1.2083   -2.7725    0.1766 O   0  0  0  0  0  0  0  0  0  0  0  0
    1.3250   -4.1115   -1.5289 C   0  0  0  0  0  0  0  0  0  0  0  0
   -0.8903   -5.0721    0.1395 H   0  0  0  0  0  0  0  0  0  0  0  0
    1.7485   -3.7974    0.5590 H   0  0  0  0  0  0  0  0  0  0  0  0
    0.4605   -4.1796   -2.1985 H   0  0  0  0  0  0  0  0  0  0  0  0
    1.9431   -3.2680   -1.8493 H   0  0  0  0  0  0  0  0  0  0  0  0
    1.9157   -5.0275   -1.6262 H   0  0  0  0  0  0  0  0  0  0  0  0
    0.6180   -1.4131    0.0898 N   0  0  0  0  0  0  0  0  0  0  0  0
   -0.0366   -0.1260   -0.2262 C   0  0  2  0  0  0  0  0  0  0  0  0
   -0.9926    0.3986    0.8746 C   0  0  0  0  0  0  0  0  0  0  0  0
   -2.1697    0.0714    0.9527 O   0  0  0  0  0  0  0  0  0  0  0  0
   -0.6858   -0.1550   -1.6252 C   0  0  0  0  0  0  0  0  0  0  0  0
    0.4017   -0.2528   -2.7123 C   0  0  0  0  0  0  0  0  0  0  0  0
   -0.1974   -0.3091   -4.1156 C   0  0  0  0  0  0  0  0  0  0  0  0
   -0.7481    0.7303   -4.5551 O   0  5  0  0  0  0  0  0  0  0  0  0
   -0.0551   -1.3766   -4.7619 O   0  0  0  0  0  0  0  0  0  0  0  0
    1.6135   -1.4518   -0.1017 H   0  0  0  0  0  0  0  0  0  0  0  0
    0.7595    0.6216   -0.2830 H   0  0  0  0  0  0  0  0  0  0  0  0
   -1.2591    0.7653   -1.7820 H   0  0  0  0  0  0  0  0  0  0  0  0
   -1.3882   -0.9900   -1.7146 H   0  0  0  0  0  0  0  0  0  0  0  0
    1.0628    0.6164   -2.6511 H   0  0  0  0  0  0  0  0  0  0  0  0
    1.0107   -1.1462   -2.5538 H   0  0  0  0  0  0  0  0  0  0  0  0
   -0.5782    1.4502    1.6746 N   0  0  0  0  0  0  0  0  0  0  0  0
   -1.4423    2.1818    2.6089 C   0  0  2  0  0  0  0  0  0  0  0  0
   -0.9111    3.6027    2.8873 C   0  0  0  0  0  0  0  0  0  0  0  0
    0.2731    3.8715    2.7094 O   0  0  0  0  0  0  0  0  0  0  0  0
   -1.5415    1.3878    3.9162 C   0  0  0  0  0  0  0  0  0  0  0  0
    0.3605    1.8157    1.5279 H   0  0  0  0  0  0  0  0  0  0  0  0
   -2.4415    2.2849    2.1725 H   0  0  0  0  0  0  0  0  0  0  0  0
   -0.5518    1.2686    4.3681 H   0  0  0  0  0  0  0  0  0  0  0  0
   -2.1918    1.9034    4.6288 H   0  0  0  0  0  0  0  0  0  0  0  0
   -1.9588    0.3937    3.7265 H   0  0  0  0  0  0  0  0  0  0  0  0
   -1.7670    4.5856    3.3508 N   0  0  0  0  0  0  0  0  0  0  0  0
   -1.3503    5.9600    3.5966 C   0  0  0  0  0  0  0  0  0  0  0  0
   -2.7513    4.3467    3.4297 H   0  0  0  0  0  0  0  0  0  0  0  0
   -0.5429    5.9889    4.3357 H   0  0  0  0  0  0  0  0  0  0  0  0
   -0.9979    6.4245    2.6699 H   0  0  0  0  0  0  0  0  0  0  0  0
   -2.1905    6.5462    3.9807 H   0  0  0  0  0  0  0  0  0  0  0  0
  1  2  2  0  0  0  0
  1  3  1  0  0  0  0
  1  7  1  0  0  0  0
  3  4  1  0  0  0  0
  3  5  1  0  0  0  0
  3  6  1  0  0  0  0
  7  8  1  0  0  0  0
  7 12  1  0  0  0  0
  8  9  1  0  0  0  0
  8 11  1  0  0  0  0
  8 13  1  0  0  0  0
  9 10  2  0  0  0  0
  9 17  1  0  0  0  0
 11 14  1  0  0  0  0
 11 15  1  0  0  0  0
 11 16  1  0  0  0  0
 17 18  1  0  0  0  0
 17 26  1  0  0  0  0
 18 19  1  0  0  0  0
 18 21  1  0  0  0  0
 18 27  1  0  0  0  0
 19 20  2  0  0  0  0
 19 32  1  0  0  0  0
 21 22  1  0  0  0  0
 21 28  1  0  0  0  0
 21 29  1  0  0  0  0
 22 23  1  0  0  0  0
 22 30  1  0  0  0  0
 22 31  1  0  0  0  0
 23 24  1  0  0  0  0
 23 25  2  0  0  0  0
 32 33  1  0  0  0  0
 32 37  1  0  0  0  0
 33 34  1  0  0  0  0
 33 36  1  0  0  0  0
 33 38  1  0  0  0  0
 34 35  2  0  0  0  0
 34 42  1  0  0  0  0
 36 39  1  0  0  0  0
 36 40  1  0  0  0  0
 36 41  1  0  0  0  0
 42 43  1  0  0  0  0
 42 44  1  0  0  0  0
 43 45  1  0  0  0  0
 43 46  1  0  0  0  0
 43 47  1  0  0  0  0
M  CHG  1  24  -1
M  END
$$$$

  -OEChem-05262216243D

 47 46  0     1  0  0  0  0  0999 V2000
    0.4229   -6.0057    1.3464 C   0  0  0  0  0  0  0  0  0  0  0  0
    1.5553   -6.0161    1.8068 O   0  0  0  0  0  0  0  0  0  0  0  0
   -0.6040   -7.0085    1.8398 C   0  0  0  0  0  0  0  0  0  0  0  0
   -0.9472   -7.6292    1.0085 H   0  0  0  0  0  0  0  0  0  0  0  0
   -0.1659   -7.6537    2.6064 H   0  0  0  0  0  0  0  0  0  0  0  0
   -1.4606   -6.4823    2.2685 H   0  0  0  0  0  0  0  0  0  0  0  0
    0.0601   -5.0848    0.3884 N   0  0  0  0  0  0  0  0  0  0  0  0
    0.8521   -3.9002    0.0351 C   0  0  2  0  0  0  0  0  0  0  0  0
   -0.0278   -2.6322    0.0269 C   0  0  0  0  0  0  0  0  0  0  0  0
   -1.2447   -2.7647    0.0062 O   0  0  0  0  0  0  0  0  0  0  0  0
    1.4665   -4.1337   -1.3480 C   0  0  0  0  0  0  0  0  0  0  0  0
   -0.9381   -5.0085    0.1902 H   0  0  0  0  0  0  0  0  0  0  0  0
    1.6517   -3.7430    0.7660 H   0  0  0  0  0  0  0  0  0  0  0  0
    0.6799   -4.2622   -2.0994 H   0  0  0  0  0  0  0  0  0  0  0  0
    2.0888   -3.2835   -1.6428 H   0  0  0  0  0  0  0  0  0  0  0  0
    2.0911   -5.0322   -1.3389 H   0  0  0  0  0  0  0  0  0  0  0  0
    0.5837   -1.3882    0.0441 N   0  0  0  0  0  0  0  0  0  0  0  0
   -0.0568   -0.0911   -0.2598 C   0  0  2  0  0  0  0  0  0  0  0  0
   -0.9884    0.4672    0.8456 C   0  0  0  0  0  0  0  0  0  0  0  0
   -1.9803   -0.1170    1.2599 O   0  0  0  0  0  0  0  0  0  0  0  0
   -0.7311   -0.0891   -1.6453 C   0  0  0  0  0  0  0  0  0  0  0  0
    0.3334   -0.1943   -2.7546 C   0  0  0  0  0  0  0  0  0  0  0  0
   -0.2948   -0.2197   -4.1464 C   0  0  0  0  0  0  0  0  0  0  0  0
   -0.9442    0.7932   -4.5071 O   0  5  0  0  0  0  0  0  0  0  0  0
   -0.0734   -1.2252   -4.8651 O   0  0  0  0  0  0  0  0  0  0  0  0
    1.5932   -1.4198   -0.0460 H   0  0  0  0  0  0  0  0  0  0  0  0
    0.7580    0.6353   -0.3254 H   0  0  0  0  0  0  0  0  0  0  0  0
   -1.2893    0.8439   -1.7794 H   0  0  0  0  0  0  0  0  0  0  0  0
   -1.4522   -0.9075   -1.7334 H   0  0  0  0  0  0  0  0  0  0  0  0
    1.0132    0.6605   -2.6962 H   0  0  0  0  0  0  0  0  0  0  0  0
    0.9252   -1.1039   -2.6173 H   0  0  0  0  0  0  0  0  0  0  0  0
   -0.6962    1.6965    1.4117 N   0  0  0  0  0  0  0  0  0  0  0  0
   -1.5480    2.3822    2.3909 C   0  0  2  0  0  0  0  0  0  0  0  0
   -1.3707    3.9126    2.3311 C   0  0  0  0  0  0  0  0  0  0  0  0
   -0.3218    4.4009    1.9230 O   0  0  0  0  0  0  0  0  0  0  0  0
   -1.2051    1.8620    3.7906 C   0  0  0  0  0  0  0  0  0  0  0  0
    0.0603    2.2383    0.9975 H   0  0  0  0  0  0  0  0  0  0  0  0
   -2.5992    2.1654    2.1732 H   0  0  0  0  0  0  0  0  0  0  0  0
   -0.1544    2.0596    4.0253 H   0  0  0  0  0  0  0  0  0  0  0  0
   -1.8303    2.3493    4.5444 H   0  0  0  0  0  0  0  0  0  0  0  0
   -1.3774    0.7825    3.8470 H   0  0  0  0  0  0  0  0  0  0  0  0
   -2.3953    4.7464    2.7419 N   0  0  0  0  0  0  0  0  0  0  0  0
   -2.3361    6.1980    2.6304 C   0  0  0  0  0  0  0  0  0  0  0  0
   -3.2777    4.3083    2.9905 H   0  0  0  0  0  0  0  0  0  0  0  0
   -1.4827    6.5917    3.1920 H   0  0  0  0  0  0  0  0  0  0  0  0
   -2.2371    6.4973    1.5819 H   0  0  0  0  0  0  0  0  0  0  0  0
   -3.2498    6.6443    3.0339 H   0  0  0  0  0  0  0  0  0  0  0  0
  1  2  2  0  0  0  0
  1  3  1  0  0  0  0
  1  7  1  0  0  0  0
  3  4  1  0  0  0  0
  3  5  1  0  0  0  0
  3  6  1  0  0  0  0
  7  8  1  0  0  0  0
  7 12  1  0  0  0  0
  8  9  1  0  0  0  0
  8 11  1  0  0  0  0
  8 13  1  0  0  0  0
  9 10  2  0  0  0  0
  9 17  1  0  0  0  0
 11 14  1  0  0  0  0
 11 15  1  0  0  0  0
 11 16  1  0  0  0  0
 17 18  1  0  0  0  0
 17 26  1  0  0  0  0
 18 19  1  0  0  0  0
 18 21  1  0  0  0  0
 18 27  1  0  0  0  0
 19 20  2  0  0  0  0
 19 32  1  0  0  0  0
 21 22  1  0  0  0  0
 21 28  1  0  0  0  0
 21 29  1  0  0  0  0
 22 23  1  0  0  0  0
 22 30  1  0  0  0  0
 22 31  1  0  0  0  0
 23 24  1  0  0  0  0
 23 25  2  0  0  0  0
 32 33  1  0  0  0  0
 32 37  1  0  0  0  0
 33 34  1  0  0  0  0
 33 36  1  0  0  0  0
 33 38  1  0  0  0  0
 34 35  2  0  0  0  0
 34 42  1  0  0  0  0
 36 39  1  0  0  0  0
 36 40  1  0  0  0  0
 36 41  1  0  0  0  0
 42 43  1  0  0  0  0
 42 44  1  0  0  0  0
 43 45  1  0  0  0  0
 43 46  1  0  0  0  0
 43 47  1  0  0  0  0
M  CHG  1  24  -1
M  END
$$$$

  -OEChem-05262216243D

 47 46  0     1  0  0  0  0  0999 V2000
    0.3303   -6.0159    1.3655 C   0  0  0  0  0  0  0  0  0  0  0  0
    1.4665   -6.0771    1.8120 O   0  0  0  0  0  0  0  0  0  0  0  0
   -0.7104   -7.0302    1.8024 C   0  0  0  0  0  0  0  0  0  0  0  0
   -1.0524   -7.6070    0.9397 H   0  0  0  0  0  0  0  0  0  0  0  0
   -0.2848   -7.7158    2.5402 H   0  0  0  0  0  0  0  0  0  0  0  0
   -1.5651   -6.5172    2.2503 H   0  0  0  0  0  0  0  0  0  0  0  0
   -0.0198   -5.0267    0.4736 N   0  0  0  0  0  0  0  0  0  0  0  0
    0.8094   -3.8575    0.1589 C   0  0  2  0  0  0  0  0  0  0  0  0
   -0.0572   -2.5880    0.0186 C   0  0  0  0  0  0  0  0  0  0  0  0
   -1.2717   -2.7139   -0.0894 O   0  0  0  0  0  0  0  0  0  0  0  0
    1.5631   -4.1385   -1.1446 C   0  0  0  0  0  0  0  0  0  0  0  0
   -1.0131   -4.9248    0.2623 H   0  0  0  0  0  0  0  0  0  0  0  0
    1.5280   -3.6780    0.9652 H   0  0  0  0  0  0  0  0  0  0  0  0
    0.8568   -4.2945   -1.9670 H   0  0  0  0  0  0  0  0  0  0  0  0
    2.2143   -3.2983   -1.4039 H   0  0  0  0  0  0  0  0  0  0  0  0
    2.1810   -5.0355   -1.0394 H   0  0  0  0  0  0  0  0  0  0  0  0
    0.5629   -1.3482    0.0050 N   0  0  0  0  0  0  0  0  0  0  0  0
   -0.0742   -0.0556   -0.3176 C   0  0  2  0  0  0  0  0  0  0  0  0
   -0.9905    0.5287    0.7872 C   0  0  0  0  0  0  0  0  0  0  0  0
   -1.6589   -0.1635    1.5450 O   0  0  0  0  0  0  0  0  0  0  0  0
   -0.7560   -0.0526   -1.6994 C   0  0  0  0  0  0  0  0  0  0  0  0
    0.2993   -0.1700   -2.8160 C   0  0  0  0  0  0  0  0  0  0  0  0
   -0.3374   -0.1942   -4.2050 C   0  0  0  0  0  0  0  0  0  0  0  0
   -1.0746    0.7727   -4.5205 O   0  5  0  0  0  0  0  0  0  0  0  0
   -0.0374   -1.1465   -4.9664 O   0  0  0  0  0  0  0  0  0  0  0  0
    1.5760   -1.3725    0.0093 H   0  0  0  0  0  0  0  0  0  0  0  0
    0.7481    0.6612   -0.3923 H   0  0  0  0  0  0  0  0  0  0  0  0
   -1.3076    0.8843   -1.8339 H   0  0  0  0  0  0  0  0  0  0  0  0
   -1.4833   -0.8656   -1.7823 H   0  0  0  0  0  0  0  0  0  0  0  0
    0.9879    0.6782   -2.7647 H   0  0  0  0  0  0  0  0  0  0  0  0
    0.8819   -1.0854   -2.6780 H   0  0  0  0  0  0  0  0  0  0  0  0
   -0.8851    1.8738    1.0991 N   0  0  0  0  0  0  0  0  0  0  0  0
   -1.6901    2.5488    2.1251 C   0  0  2  0  0  0  0  0  0  0  0  0
   -1.9376    4.0301    1.7786 C   0  0  0  0  0  0  0  0  0  0  0  0
   -1.1068    4.6647    1.1375 O   0  0  0  0  0  0  0  0  0  0  0  0
   -0.9684    2.4337    3.4711 C   0  0  0  0  0  0  0  0  0  0  0  0
   -0.3794    2.4676    0.4430 H   0  0  0  0  0  0  0  0  0  0  0  0
   -2.6679    2.0611    2.1992 H   0  0  0  0  0  0  0  0  0  0  0  0
    0.0141    2.9135    3.4208 H   0  0  0  0  0  0  0  0  0  0  0  0
   -1.5527    2.9148    4.2610 H   0  0  0  0  0  0  0  0  0  0  0  0
   -0.8292    1.3812    3.7376 H   0  0  0  0  0  0  0  0  0  0  0  0
   -3.0944    4.6581    2.2034 N   0  0  0  0  0  0  0  0  0  0  0  0
   -3.4369    6.0270    1.8407 C   0  0  0  0  0  0  0  0  0  0  0  0
   -3.7965    4.0796    2.6555 H   0  0  0  0  0  0  0  0  0  0  0  0
   -2.6642    6.7206    2.1882 H   0  0  0  0  0  0  0  0  0  0  0  0
   -3.5341    6.1220    0.7541 H   0  0  0  0  0  0  0  0  0  0  0  0
   -4.3880    6.3122    2.3000 H   0  0  0  0  0  0  0  0  0  0  0  0
  1  2  2  0  0  0  0
  1  3  1  0  0  0  0
  1  7  1  0  0  0  0
  3  4  1  0  0  0  0
  3  5  1  0  0  0  0
  3  6  1  0  0  0  0
  7  8  1  0  0  0  0
  7 12  1  0  0  0  0
  8  9  1  0  0  0  0
  8 11  1  0  0  0  0
  8 13  1  0  0  0  0
  9 10  2  0  0  0  0
  9 17  1  0  0  0  0
 11 14  1  0  0  0  0
 11 15  1  0  0  0  0
 11 16  1  0  0  0  0
 17 18  1  0  0  0  0
 17 26  1  0  0  0  0
 18 19  1  0  0  0  0
 18 21  1  0  0  0  0
 18 27  1  0  0  0  0
 19 20  2  0  0  0  0
 19 32  1  0  0  0  0
 21 22  1  0  0  0  0
 21 28  1  0  0  0  0
 21 29  1  0  0  0  0
 22 23  1  0  0  0  0
 22 30  1  0  0  0  0
 22 31  1  0  0  0  0
 23 24  1  0  0  0  0
 23 25  2  0  0  0  0
 32 33  1  0  0  0  0
 32 37  1  0  0  0  0
 33 34  1  0  0  0  0
 33 36  1  0  0  0  0
 33 38  1  0  0  0  0
 34 35  2  0  0  0  0
 34 42  1  0  0  0  0
 36 39  1  0  0  0  0
 36 40  1  0  0  0  0
 36 41  1  0  0  0  0
 42 43  1  0  0  0  0
 42 44  1  0  0  0  0
 43 45  1  0  0  0  0
 43 46  1  0  0  0  0
 43 47  1  0  0  0  0
M  CHG  1  24  -1
M  END
$$$$

  -OEChem-05262216243D

 47 46  0     1  0  0  0  0  0999 V2000
    0.3038   -5.9772    1.4035 C   0  0  0  0  0  0  0  0  0  0  0  0
    1.4356   -6.0410    1.8608 O   0  0  0  0  0  0  0  0  0  0  0  0
   -0.7423   -6.9921    1.8264 C   0  0  0  0  0  0  0  0  0  0  0  0
   -1.0918   -7.5512    0.9549 H   0  0  0  0  0  0  0  0  0  0  0  0
   -0.3190   -7.6939    2.5502 H   0  0  0  0  0  0  0  0  0  0  0  0
   -1.5916   -6.4806    2.2861 H   0  0  0  0  0  0  0  0  0  0  0  0
   -0.0375   -4.9866    0.5096 N   0  0  0  0  0  0  0  0  0  0  0  0
    0.7984   -3.8222    0.1940 C   0  0  2  0  0  0  0  0  0  0  0  0
   -0.0622   -2.5508    0.0295 C   0  0  0  0  0  0  0  0  0  0  0  0
   -1.2788   -2.6682   -0.0755 O   0  0  0  0  0  0  0  0  0  0  0  0
    1.5684   -4.1189   -1.0960 C   0  0  0  0  0  0  0  0  0  0  0  0
   -1.0281   -4.8858    0.2859 H   0  0  0  0  0  0  0  0  0  0  0  0
    1.5070   -3.6373    1.0078 H   0  0  0  0  0  0  0  0  0  0  0  0
    0.8734   -4.2814   -1.9266 H   0  0  0  0  0  0  0  0  0  0  0  0
    2.2257   -3.2832   -1.3538 H   0  0  0  0  0  0  0  0  0  0  0  0
    2.1818   -5.0166   -0.9729 H   0  0  0  0  0  0  0  0  0  0  0  0
    0.5586   -1.3119    0.0024 N   0  0  0  0  0  0  0  0  0  0  0  0
   -0.0828   -0.0302   -0.3542 C   0  0  2  0  0  0  0  0  0  0  0  0
   -1.0163    0.5623    0.7310 C   0  0  0  0  0  0  0  0  0  0  0  0
   -1.4201   -0.0911    1.6869 O   0  0  0  0  0  0  0  0  0  0  0  0
   -0.7444   -0.0611   -1.7468 C   0  0  0  0  0  0  0  0  0  0  0  0
    0.3277   -0.1931   -2.8450 C   0  0  0  0  0  0  0  0  0  0  0  0
   -0.2935   -0.2508   -4.2397 C   0  0  0  0  0  0  0  0  0  0  0  0
   -1.0037    0.7216   -4.5972 O   0  5  0  0  0  0  0  0  0  0  0  0
   -0.0170   -1.2415   -4.9596 O   0  0  0  0  0  0  0  0  0  0  0  0
    1.5716   -1.3316    0.0261 H   0  0  0  0  0  0  0  0  0  0  0  0
    0.7319    0.6956   -0.4261 H   0  0  0  0  0  0  0  0  0  0  0  0
   -1.2995    0.8689   -1.9108 H   0  0  0  0  0  0  0  0  0  0  0  0
   -1.4651   -0.8802   -1.8257 H   0  0  0  0  0  0  0  0  0  0  0  0
    1.0076    0.6625   -2.8021 H   0  0  0  0  0  0  0  0  0  0  0  0
    0.9175   -1.0997   -2.6809 H   0  0  0  0  0  0  0  0  0  0  0  0
   -1.1595    1.9374    0.8097 N   0  0  0  0  0  0  0  0  0  0  0  0
   -1.9667    2.6285    1.8237 C   0  0  2  0  0  0  0  0  0  0  0  0
   -2.5598    3.9475    1.2898 C   0  0  0  0  0  0  0  0  0  0  0  0
   -1.9370    4.6244    0.4796 O   0  0  0  0  0  0  0  0  0  0  0  0
   -1.0875    2.9071    3.0465 C   0  0  0  0  0  0  0  0  0  0  0  0
   -0.8550    2.4848    0.0050 H   0  0  0  0  0  0  0  0  0  0  0  0
   -2.8042    1.9880    2.1204 H   0  0  0  0  0  0  0  0  0  0  0  0
   -0.2450    3.5502    2.7731 H   0  0  0  0  0  0  0  0  0  0  0  0
   -1.6686    3.4051    3.8281 H   0  0  0  0  0  0  0  0  0  0  0  0
   -0.6937    1.9703    3.4526 H   0  0  0  0  0  0  0  0  0  0  0  0
   -3.7865    4.3935    1.7479 N   0  0  0  0  0  0  0  0  0  0  0  0
   -4.4367    5.5957    1.2424 C   0  0  0  0  0  0  0  0  0  0  0  0
   -4.3105    3.7684    2.3532 H   0  0  0  0  0  0  0  0  0  0  0  0
   -3.7995    6.4722    1.4001 H   0  0  0  0  0  0  0  0  0  0  0  0
   -4.6431    5.4977    0.1716 H   0  0  0  0  0  0  0  0  0  0  0  0
   -5.3837    5.7604    1.7648 H   0  0  0  0  0  0  0  0  0  0  0  0
  1  2  2  0  0  0  0
  1  3  1  0  0  0  0
  1  7  1  0  0  0  0
  3  4  1  0  0  0  0
  3  5  1  0  0  0  0
  3  6  1  0  0  0  0
  7  8  1  0  0  0  0
  7 12  1  0  0  0  0
  8  9  1  0  0  0  0
  8 11  1  0  0  0  0
  8 13  1  0  0  0  0
  9 10  2  0  0  0  0
  9 17  1  0  0  0  0
 11 14  1  0  0  0  0
 11 15  1  0  0  0  0
 11 16  1  0  0  0  0
 17 18  1  0  0  0  0
 17 26  1  0  0  0  0
 18 19  1  0  0  0  0
 18 21  1  0  0  0  0
 18 27  1  0  0  0  0
 19 20  2  0  0  0  0
 19 32  1  0  0  0  0
 21 22  1  0  0  0  0
 21 28  1  0  0  0  0
 21 29  1  0  0  0  0
 22 23  1  0  0  0  0
 22 30  1  0  0  0  0
 22 31  1  0  0  0  0
 23 24  1  0  0  0  0
 23 25  2  0  0  0  0
 32 33  1  0  0  0  0
 32 37  1  0  0  0  0
 33 34  1  0  0  0  0
 33 36  1  0  0  0  0
 33 38  1  0  0  0  0
 34 35  2  0  0  0  0
 34 42  1  0  0  0  0
 36 39  1  0  0  0  0
 36 40  1  0  0  0  0
 36 41  1  0  0  0  0
 42 43  1  0  0  0  0
 42 44  1  0  0  0  0
 43 45  1  0  0  0  0
 43 46  1  0  0  0  0
 43 47  1  0  0  0  0
M  CHG  1  24  -1
M  END
$$$$

  -OEChem-05262216243D

 47 46  0     1  0  0  0  0  0999 V2000
    0.2864   -5.9352    1.4112 C   0  0  0  0  0  0  0  0  0  0  0  0
    1.4228   -6.0057    1.8558 O   0  0  0  0  0  0  0  0  0  0  0  0
   -0.7628   -6.9387    1.8532 C   0  0  0  0  0  0  0  0  0  0  0  0
   -1.1830   -7.4465    0.9816 H   0  0  0  0  0  0  0  0  0  0  0  0
   -0.3165   -7.6851    2.5159 H   0  0  0  0  0  0  0  0  0  0  0  0
   -1.5655   -6.4254    2.3885 H   0  0  0  0  0  0  0  0  0  0  0  0
   -0.0579   -4.9456    0.5171 N   0  0  0  0  0  0  0  0  0  0  0  0
    0.7819   -3.7856    0.1954 C   0  0  2  0  0  0  0  0  0  0  0  0
   -0.0694   -2.5055    0.0608 C   0  0  0  0  0  0  0  0  0  0  0  0
   -1.2909   -2.6049   -0.0082 O   0  0  0  0  0  0  0  0  0  0  0  0
    1.5238   -4.0750   -1.1132 C   0  0  0  0  0  0  0  0  0  0  0  0
   -1.0505   -4.8376    0.3070 H   0  0  0  0  0  0  0  0  0  0  0  0
    1.5084   -3.6141    0.9963 H   0  0  0  0  0  0  0  0  0  0  0  0
    0.8113   -4.2181   -1.9326 H   0  0  0  0  0  0  0  0  0  0  0  0
    2.1859   -3.2440   -1.3739 H   0  0  0  0  0  0  0  0  0  0  0  0
    2.1294   -4.9812   -1.0138 H   0  0  0  0  0  0  0  0  0  0  0  0
    0.5600   -1.2722    0.0242 N   0  0  0  0  0  0  0  0  0  0  0  0
   -0.0785   -0.0034   -0.3769 C   0  0  2  0  0  0  0  0  0  0  0  0
   -1.0374    0.5955    0.6826 C   0  0  0  0  0  0  0  0  0  0  0  0
   -1.2274    0.0557    1.7685 O   0  0  0  0  0  0  0  0  0  0  0  0
   -0.7018   -0.0856   -1.7867 C   0  0  0  0  0  0  0  0  0  0  0  0
    0.4046   -0.2425   -2.8474 C   0  0  0  0  0  0  0  0  0  0  0  0
   -0.1717   -0.3519   -4.2576 C   0  0  0  0  0  0  0  0  0  0  0  0
   -0.8741    0.6031   -4.6720 O   0  5  0  0  0  0  0  0  0  0  0  0
    0.1277   -1.3688   -4.9303 O   0  0  0  0  0  0  0  0  0  0  0  0
    1.5730   -1.3001    0.0201 H   0  0  0  0  0  0  0  0  0  0  0  0
    0.7270    0.7328   -0.4457 H   0  0  0  0  0  0  0  0  0  0  0  0
   -1.2599    0.8325   -1.9994 H   0  0  0  0  0  0  0  0  0  0  0  0
   -1.4126   -0.9138   -1.8604 H   0  0  0  0  0  0  0  0  0  0  0  0
    1.0762    0.6200   -2.8117 H   0  0  0  0  0  0  0  0  0  0  0  0
    0.9963   -1.1380   -2.6374 H   0  0  0  0  0  0  0  0  0  0  0  0
   -1.4474    1.9123    0.5586 N   0  0  0  0  0  0  0  0  0  0  0  0
   -2.2916    2.6100    1.5375 C   0  0  2  0  0  0  0  0  0  0  0  0
   -3.1930    3.6721    0.8779 C   0  0  0  0  0  0  0  0  0  0  0  0
   -2.7990    4.3021   -0.0965 O   0  0  0  0  0  0  0  0  0  0  0  0
   -1.3861    3.2669    2.5840 C   0  0  0  0  0  0  0  0  0  0  0  0
   -1.3141    2.3601   -0.3483 H   0  0  0  0  0  0  0  0  0  0  0  0
   -2.9477    1.8862    2.0323 H   0  0  0  0  0  0  0  0  0  0  0  0
   -0.7179    3.9924    2.1090 H   0  0  0  0  0  0  0  0  0  0  0  0
   -1.9861    3.7856    3.3377 H   0  0  0  0  0  0  0  0  0  0  0  0
   -0.7768    2.5103    3.0884 H   0  0  0  0  0  0  0  0  0  0  0  0
   -4.4420    3.9479    1.4050 N   0  0  0  0  0  0  0  0  0  0  0  0
   -5.3704    4.8942    0.7995 C   0  0  0  0  0  0  0  0  0  0  0  0
   -4.7694    3.3520    2.1596 H   0  0  0  0  0  0  0  0  0  0  0  0
   -4.9048    5.8808    0.7038 H   0  0  0  0  0  0  0  0  0  0  0  0
   -5.6737    4.5495   -0.1948 H   0  0  0  0  0  0  0  0  0  0  0  0
   -6.2654    4.9958    1.4207 H   0  0  0  0  0  0  0  0  0  0  0  0
  1  2  2  0  0  0  0
  1  3  1  0  0  0  0
  1  7  1  0  0  0  0
  3  4  1  0  0  0  0
  3  5  1  0  0  0  0
  3  6  1  0  0  0  0
  7  8  1  0  0  0  0
  7 12  1  0  0  0  0
  8  9  1  0  0  0  0
  8 11  1  0  0  0  0
  8 13  1  0  0  0  0
  9 10  2  0  0  0  0
  9 17  1  0  0  0  0
 11 14  1  0  0  0  0
 11 15  1  0  0  0  0
 11 16  1  0  0  0  0
 17 18  1  0  0  0  0
 17 26  1  0  0  0  0
 18 19  1  0  0  0  0
 18 21  1  0  0  0  0
 18 27  1  0  0  0  0
 19 20  2  0  0  0  0
 19 32  1  0  0  0  0
 21 22  1  0  0  0  0
 21 28  1  0  0  0  0
 21 29  1  0  0  0  0
 22 23  1  0  0  0  0
 22 30  1  0  0  0  0
 22 31  1  0  0  0  0
 23 24  1  0  0  0  0
 23 25  2  0  0  0  0
 32 33  1  0  0  0  0
 32 37  1  0  0  0  0
 33 34  1  0  0  0  0
 33 36  1  0  0  0  0
 33 38  1  0  0  0  0
 34 35  2  0  0  0  0
 34 42  1  0  0  0  0
 36 39  1  0  0  0  0
 36 40  1  0  0  0  0
 36 41  1  0  0  0  0
 42 43  1  0  0  0  0
 42 44  1  0  0  0  0
 43 45  1  0  0  0  0
 43 46  1  0  0  0  0
 43 47  1  0  0  0  0
M  CHG  1  24  -1
M  END
$$$$

  -OEChem-05262216243D

 47 46  0     1  0  0  0  0  0999 V2000
    0.2828   -5.9313    1.4551 C   0  0  0  0  0  0  0  0  0  0  0  0
    1.4313   -6.0038    1.8672 O   0  0  0  0  0  0  0  0  0  0  0  0
   -0.7555   -6.9325    1.9267 C   0  0  0  0  0  0  0  0  0  0  0  0
   -1.1560   -7.4840    1.0726 H   0  0  0  0  0  0  0  0  0  0  0  0
   -0.3062   -7.6423    2.6266 H   0  0  0  0  0  0  0  0  0  0  0  0
   -1.5733   -6.4101    2.4293 H   0  0  0  0  0  0  0  0  0  0  0  0
   -0.0874   -4.9391    0.5746 N   0  0  0  0  0  0  0  0  0  0  0  0
    0.7411   -3.7759    0.2356 C   0  0  2  0  0  0  0  0  0  0  0  0
   -0.1068   -2.4879    0.1622 C   0  0  0  0  0  0  0  0  0  0  0  0
   -1.3284   -2.5659    0.2493 O   0  0  0  0  0  0  0  0  0  0  0  0
    1.4208   -4.0508   -1.1090 C   0  0  0  0  0  0  0  0  0  0  0  0
   -1.0864   -4.8305    0.3987 H   0  0  0  0  0  0  0  0  0  0  0  0
    1.5055   -3.6207    1.0040 H   0  0  0  0  0  0  0  0  0  0  0  0
    0.6717   -4.1809   -1.8977 H   0  0  0  0  0  0  0  0  0  0  0  0
    2.0754   -3.2199   -1.3881 H   0  0  0  0  0  0  0  0  0  0  0  0
    2.0252   -4.9611   -1.0486 H   0  0  0  0  0  0  0  0  0  0  0  0
    0.5243   -1.2587    0.0814 N   0  0  0  0  0  0  0  0  0  0  0  0
   -0.0939   -0.0026   -0.3940 C   0  0  2  0  0  0  0  0  0  0  0  0
   -0.7671    0.8082    0.7413 C   0  0  0  0  0  0  0  0  0  0  0  0
   -0.5804    0.5240    1.9214 O   0  0  0  0  0  0  0  0  0  0  0  0
   -0.9598   -0.1745   -1.6644 C   0  0  0  0  0  0  0  0  0  0  0  0
   -0.0678   -0.5505   -2.8628 C   0  0  0  0  0  0  0  0  0  0  0  0
   -0.8830   -0.7552   -4.1386 C   0  0  0  0  0  0  0  0  0  0  0  0
   -1.5888    0.2051   -4.5345 O   0  5  0  0  0  0  0  0  0  0  0  0
   -0.7608   -1.8524   -4.7370 O   0  0  0  0  0  0  0  0  0  0  0  0
    1.5362   -1.3024    0.0477 H   0  0  0  0  0  0  0  0  0  0  0  0
    0.7363    0.6399   -0.7002 H   0  0  0  0  0  0  0  0  0  0  0  0
   -1.4661    0.7667   -1.9006 H   0  0  0  0  0  0  0  0  0  0  0  0
   -1.7428   -0.9241   -1.5255 H   0  0  0  0  0  0  0  0  0  0  0  0
    0.6641    0.2421   -3.0418 H   0  0  0  0  0  0  0  0  0  0  0  0
    0.4811   -1.4702   -2.6426 H   0  0  0  0  0  0  0  0  0  0  0  0
   -1.3967    2.0118    0.4726 N   0  0  0  0  0  0  0  0  0  0  0  0
   -2.0332    2.8549    1.4939 C   0  0  2  0  0  0  0  0  0  0  0  0
   -3.2349    3.6434    0.9377 C   0  0  0  0  0  0  0  0  0  0  0  0
   -3.2256    4.0601   -0.2141 O   0  0  0  0  0  0  0  0  0  0  0  0
   -0.9862    3.8220    2.0542 C   0  0  0  0  0  0  0  0  0  0  0  0
   -1.5821    2.2366   -0.5054 H   0  0  0  0  0  0  0  0  0  0  0  0
   -2.4069    2.2223    2.3059 H   0  0  0  0  0  0  0  0  0  0  0  0
   -0.5978    4.4666    1.2593 H   0  0  0  0  0  0  0  0  0  0  0  0
   -1.4263    4.4532    2.8321 H   0  0  0  0  0  0  0  0  0  0  0  0
   -0.1512    3.2661    2.4919 H   0  0  0  0  0  0  0  0  0  0  0  0
   -4.3188    3.9213    1.7512 N   0  0  0  0  0  0  0  0  0  0  0  0
   -5.5096    4.6172    1.2814 C   0  0  0  0  0  0  0  0  0  0  0  0
   -4.3290    3.4962    2.6735 H   0  0  0  0  0  0  0  0  0  0  0  0
   -5.2458    5.6042    0.8868 H   0  0  0  0  0  0  0  0  0  0  0  0
   -6.0030    4.0412    0.4914 H   0  0  0  0  0  0  0  0  0  0  0  0
   -6.2164    4.7532    2.1054 H   0  0  0  0  0  0  0  0  0  0  0  0
  1  2  2  0  0  0  0
  1  3  1  0  0  0  0
  1  7  1  0  0  0  0
  3  4  1  0  0  0  0
  3  5  1  0  0  0  0
  3  6  1  0  0  0  0
  7  8  1  0  0  0  0
  7 12  1  0  0  0  0
  8  9  1  0  0  0  0
  8 11  1  0  0  0  0
  8 13  1  0  0  0  0
  9 10  2  0  0  0  0
  9 17  1  0  0  0  0
 11 14  1  0  0  0  0
 11 15  1  0  0  0  0
 11 16  1  0  0  0  0
 17 18  1  0  0  0  0
 17 26  1  0  0  0  0
 18 19  1  0  0  0  0
 18 21  1  0  0  0  0
 18 27  1  0  0  0  0
 19 20  2  0  0  0  0
 19 32  1  0  0  0  0
 21 22  1  0  0  0  0
 21 28  1  0  0  0  0
 21 29  1  0  0  0  0
 22 23  1  0  0  0  0
 22 30  1  0  0  0  0
 22 31  1  0  0  0  0
 23 24  1  0  0  0  0
 23 25  2  0  0  0  0
 32 33  1  0  0  0  0
 32 37  1  0  0  0  0
 33 34  1  0  0  0  0
 33 36  1  0  0  0  0
 33 38  1  0  0  0  0
 34 35  2  0  0  0  0
 34 42  1  0  0  0  0
 36 39  1  0  0  0  0
 36 40  1  0  0  0  0
 36 41  1  0  0  0  0
 42 43  1  0  0  0  0
 42 44  1  0  0  0  0
 43 45  1  0  0  0  0
 43 46  1  0  0  0  0
 43 47  1  0  0  0  0
M  CHG  1  24  -1
M  END
$$$$

  -OEChem-05262216243D

 47 46  0     1  0  0  0  0  0999 V2000
    0.2568   -5.9006    1.4587 C   0  0  0  0  0  0  0  0  0  0  0  0
    1.4121   -5.9884    1.8483 O   0  0  0  0  0  0  0  0  0  0  0  0
   -0.7827   -6.8947    1.9421 C   0  0  0  0  0  0  0  0  0  0  0  0
   -1.1904   -7.4481    1.0927 H   0  0  0  0  0  0  0  0  0  0  0  0
   -0.3322   -7.6031    2.6426 H   0  0  0  0  0  0  0  0  0  0  0  0
   -1.5948   -6.3663    2.4478 H   0  0  0  0  0  0  0  0  0  0  0  0
   -0.1189   -4.8979    0.5925 N   0  0  0  0  0  0  0  0  0  0  0  0
    0.7206   -3.7482    0.2353 C   0  0  2  0  0  0  0  0  0  0  0  0
   -0.1138   -2.4521    0.1594 C   0  0  0  0  0  0  0  0  0  0  0  0
   -1.3361   -2.5135    0.2575 O   0  0  0  0  0  0  0  0  0  0  0  0
    1.3844   -4.0411   -1.1132 C   0  0  0  0  0  0  0  0  0  0  0  0
   -1.1193   -4.7767    0.4330 H   0  0  0  0  0  0  0  0  0  0  0  0
    1.4935   -3.5957    0.9956 H   0  0  0  0  0  0  0  0  0  0  0  0
    0.6266   -4.1554   -1.8962 H   0  0  0  0  0  0  0  0  0  0  0  0
    2.0554   -3.2253   -1.3979 H   0  0  0  0  0  0  0  0  0  0  0  0
    1.9691   -4.9645   -1.0555 H   0  0  0  0  0  0  0  0  0  0  0  0
    0.5223   -1.2259    0.0804 N   0  0  0  0  0  0  0  0  0  0  0  0
   -0.0923    0.0158   -0.4339 C   0  0  2  0  0  0  0  0  0  0  0  0
   -0.7989    0.8265    0.6807 C   0  0  0  0  0  0  0  0  0  0  0  0
   -0.4417    0.7150    1.8508 O   0  0  0  0  0  0  0  0  0  0  0  0
   -0.9101   -0.1880   -1.7323 C   0  0  0  0  0  0  0  0  0  0  0  0
    0.0304   -0.5715   -2.8912 C   0  0  0  0  0  0  0  0  0  0  0  0
   -0.7354   -0.8075   -4.1915 C   0  0  0  0  0  0  0  0  0  0  0  0
   -1.4116    0.1479   -4.6461 O   0  5  0  0  0  0  0  0  0  0  0  0
   -0.6090   -1.9271   -4.7457 O   0  0  0  0  0  0  0  0  0  0  0  0
    1.5343   -1.2715    0.0463 H   0  0  0  0  0  0  0  0  0  0  0  0
    0.7384    0.6664   -0.7223 H   0  0  0  0  0  0  0  0  0  0  0  0
   -1.4151    0.7435   -2.0056 H   0  0  0  0  0  0  0  0  0  0  0  0
   -1.6896   -0.9444   -1.6086 H   0  0  0  0  0  0  0  0  0  0  0  0
    0.7567    0.2295   -3.0571 H   0  0  0  0  0  0  0  0  0  0  0  0
    0.5846   -1.4791   -2.6377 H   0  0  0  0  0  0  0  0  0  0  0  0
   -1.6892    1.8437    0.3817 N   0  0  0  0  0  0  0  0  0  0  0  0
   -2.3984    2.6381    1.3938 C   0  0  2  0  0  0  0  0  0  0  0  0
   -3.8149    3.0425    0.9411 C   0  0  0  0  0  0  0  0  0  0  0  0
   -4.0567    3.2480   -0.2418 O   0  0  0  0  0  0  0  0  0  0  0  0
   -1.5673    3.8868    1.6991 C   0  0  0  0  0  0  0  0  0  0  0  0
   -2.0280    1.8994   -0.5794 H   0  0  0  0  0  0  0  0  0  0  0  0
   -2.5097    2.0476    2.3091 H   0  0  0  0  0  0  0  0  0  0  0  0
   -1.4410    4.4906    0.7946 H   0  0  0  0  0  0  0  0  0  0  0  0
   -2.0607    4.4973    2.4613 H   0  0  0  0  0  0  0  0  0  0  0  0
   -0.5777    3.6021    2.0702 H   0  0  0  0  0  0  0  0  0  0  0  0
   -4.8193    3.2146    1.8770 N   0  0  0  0  0  0  0  0  0  0  0  0
   -6.1899    3.5569    1.5198 C   0  0  0  0  0  0  0  0  0  0  0  0
   -4.6042    2.9779    2.8409 H   0  0  0  0  0  0  0  0  0  0  0  0
   -6.2205    4.5230    1.0052 H   0  0  0  0  0  0  0  0  0  0  0  0
   -6.6160    2.7928    0.8611 H   0  0  0  0  0  0  0  0  0  0  0  0
   -6.8096    3.6238    2.4191 H   0  0  0  0  0  0  0  0  0  0  0  0
  1  2  2  0  0  0  0
  1  3  1  0  0  0  0
  1  7  1  0  0  0  0
  3  4  1  0  0  0  0
  3  5  1  0  0  0  0
  3  6  1  0  0  0  0
  7  8  1  0  0  0  0
  7 12  1  0  0  0  0
  8  9  1  0  0  0  0
  8 11  1  0  0  0  0
  8 13  1  0  0  0  0
  9 10  2  0  0  0  0
  9 17  1  0  0  0  0
 11 14  1  0  0  0  0
 11 15  1  0  0  0  0
 11 16  1  0  0  0  0
 17 18  1  0  0  0  0
 17 26  1  0  0  0  0
 18 19  1  0  0  0  0
 18 21  1  0  0  0  0
 18 27  1  0  0  0  0
 19 20  2  0  0  0  0
 19 32  1  0  0  0  0
 21 22  1  0  0  0  0
 21 28  1  0  0  0  0
 21 29  1  0  0  0  0
 22 23  1  0  0  0  0
 22 30  1  0  0  0  0
 22 31  1  0  0  0  0
 23 24  1  0  0  0  0
 23 25  2  0  0  0  0
 32 33  1  0  0  0  0
 32 37  1  0  0  0  0
 33 34  1  0  0  0  0
 33 36  1  0  0  0  0
 33 38  1  0  0  0  0
 34 35  2  0  0  0  0
 34 42  1  0  0  0  0
 36 39  1  0  0  0  0
 36 40  1  0  0  0  0
 36 41  1  0  0  0  0
 42 43  1  0  0  0  0
 42 44  1  0  0  0  0
 43 45  1  0  0  0  0
 43 46  1  0  0  0  0
 43 47  1  0  0  0  0
M  CHG  1  24  -1
M  END
$$$$

  -OEChem-05262216243D

 47 46  0     1  0  0  0  0  0999 V2000
    0.2441   -5.8514    1.4841 C   0  0  0  0  0  0  0  0  0  0  0  0
    1.3785   -5.9092    1.9352 O   0  0  0  0  0  0  0  0  0  0  0  0
   -0.8054   -6.8451    1.9467 C   0  0  0  0  0  0  0  0  0  0  0  0
   -1.1445   -7.4484    1.1009 H   0  0  0  0  0  0  0  0  0  0  0  0
   -0.3893   -7.5084    2.7101 H   0  0  0  0  0  0  0  0  0  0  0  0
   -1.6605   -6.3125    2.3705 H   0  0  0  0  0  0  0  0  0  0  0  0
   -0.1002   -4.8855    0.5645 N   0  0  0  0  0  0  0  0  0  0  0  0
    0.7358   -3.7285    0.2211 C   0  0  2  0  0  0  0  0  0  0  0  0
   -0.1062   -2.4367    0.1437 C   0  0  0  0  0  0  0  0  0  0  0  0
   -1.3282   -2.5028    0.2415 O   0  0  0  0  0  0  0  0  0  0  0  0
    1.4125   -4.0123   -1.1231 C   0  0  0  0  0  0  0  0  0  0  0  0
   -1.0944   -4.7825    0.3610 H   0  0  0  0  0  0  0  0  0  0  0  0
    1.5025   -3.5743    0.9871 H   0  0  0  0  0  0  0  0  0  0  0  0
    0.6623   -4.1274   -1.9134 H   0  0  0  0  0  0  0  0  0  0  0  0
    2.0817   -3.1919   -1.3990 H   0  0  0  0  0  0  0  0  0  0  0  0
    2.0016   -4.9328   -1.0642 H   0  0  0  0  0  0  0  0  0  0  0  0
    0.5170   -1.2041    0.0673 N   0  0  0  0  0  0  0  0  0  0  0  0
   -0.1056    0.0228   -0.4722 C   0  0  2  0  0  0  0  0  0  0  0  0
   -0.8430    0.8225    0.6295 C   0  0  0  0  0  0  0  0  0  0  0  0
   -0.3606    0.8965    1.7569 O   0  0  0  0  0  0  0  0  0  0  0  0
   -0.8978   -0.2045   -1.7824 C   0  0  0  0  0  0  0  0  0  0  0  0
    0.0646   -0.5872   -2.9225 C   0  0  0  0  0  0  0  0  0  0  0  0
   -0.6798   -0.8447   -4.2311 C   0  0  0  0  0  0  0  0  0  0  0  0
   -1.3415    0.1054   -4.7167 O   0  5  0  0  0  0  0  0  0  0  0  0
   -0.5530   -1.9768   -4.7590 O   0  0  0  0  0  0  0  0  0  0  0  0
    1.5300   -1.2389    0.0409 H   0  0  0  0  0  0  0  0  0  0  0  0
    0.7182    0.6858   -0.7515 H   0  0  0  0  0  0  0  0  0  0  0  0
   -1.4057    0.7203   -2.0735 H   0  0  0  0  0  0  0  0  0  0  0  0
   -1.6708   -0.9686   -1.6641 H   0  0  0  0  0  0  0  0  0  0  0  0
    0.7845    0.2197   -3.0853 H   0  0  0  0  0  0  0  0  0  0  0  0
    0.6244   -1.4862   -2.6517 H   0  0  0  0  0  0  0  0  0  0  0  0
   -1.9542    1.6007    0.3533 N   0  0  0  0  0  0  0  0  0  0  0  0
   -2.7235    2.3243    1.3743 C   0  0  2  0  0  0  0  0  0  0  0  0
   -4.2311    2.3718    1.0552 C   0  0  0  0  0  0  0  0  0  0  0  0
   -4.6254    2.3810   -0.1043 O   0  0  0  0  0  0  0  0  0  0  0  0
   -2.1621    3.7440    1.4878 C   0  0  0  0  0  0  0  0  0  0  0  0
   -2.3921    1.4758   -0.5601 H   0  0  0  0  0  0  0  0  0  0  0  0
   -2.6161    1.8176    2.3389 H   0  0  0  0  0  0  0  0  0  0  0  0
   -2.2585    4.2698    0.5325 H   0  0  0  0  0  0  0  0  0  0  0  0
   -2.7012    4.3090    2.2540 H   0  0  0  0  0  0  0  0  0  0  0  0
   -1.1033    3.7113    1.7629 H   0  0  0  0  0  0  0  0  0  0  0  0
   -5.1548    2.4393    2.0834 N   0  0  0  0  0  0  0  0  0  0  0  0
   -6.5950    2.4506    1.8621 C   0  0  0  0  0  0  0  0  0  0  0  0
   -4.8014    2.3689    3.0328 H   0  0  0  0  0  0  0  0  0  0  0  0
   -6.8840    3.3259    1.2709 H   0  0  0  0  0  0  0  0  0  0  0  0
   -6.9079    1.5464    1.3294 H   0  0  0  0  0  0  0  0  0  0  0  0
   -7.1241    2.4897    2.8189 H   0  0  0  0  0  0  0  0  0  0  0  0
  1  2  2  0  0  0  0
  1  3  1  0  0  0  0
  1  7  1  0  0  0  0
  3  4  1  0  0  0  0
  3  5  1  0  0  0  0
  3  6  1  0  0  0  0
  7  8  1  0  0  0  0
  7 12  1  0  0  0  0
  8  9  1  0  0  0  0
  8 11  1  0  0  0  0
  8 13  1  0  0  0  0
  9 10  2  0  0  0  0
  9 17  1  0  0  0  0
 11 14  1  0  0  0  0
 11 15  1  0  0  0  0
 11 16  1  0  0  0  0
 17 18  1  0  0  0  0
 17 26  1  0  0  0  0
 18 19  1  0  0  0  0
 18 21  1  0  0  0  0
 18 27  1  0  0  0  0
 19 20  2  0  0  0  0
 19 32  1  0  0  0  0
 21 22  1  0  0  0  0
 21 28  1  0  0  0  0
 21 29  1  0  0  0  0
 22 23  1  0  0  0  0
 22 30  1  0  0  0  0
 22 31  1  0  0  0  0
 23 24  1  0  0  0  0
 23 25  2  0  0  0  0
 32 33  1  0  0  0  0
 32 37  1  0  0  0  0
 33 34  1  0  0  0  0
 33 36  1  0  0  0  0
 33 38  1  0  0  0  0
 34 35  2  0  0  0  0
 34 42  1  0  0  0  0
 36 39  1  0  0  0  0
 36 40  1  0  0  0  0
 36 41  1  0  0  0  0
 42 43  1  0  0  0  0
 42 44  1  0  0  0  0
 43 45  1  0  0  0  0
 43 46  1  0  0  0  0
 43 47  1  0  0  0  0
M  CHG  1  24  -1
M  END
$$$$

  -OEChem-05262216243D

 47 46  0     1  0  0  0  0  0999 V2000
    0.2484   -5.8073    1.4924 C   0  0  0  0  0  0  0  0  0  0  0  0
    1.3591   -5.8290    2.0021 O   0  0  0  0  0  0  0  0  0  0  0  0
   -0.8088   -6.7990    1.9414 C   0  0  0  0  0  0  0  0  0  0  0  0
   -1.0892   -7.4465    1.1071 H   0  0  0  0  0  0  0  0  0  0  0  0
   -0.4250   -7.4180    2.7569 H   0  0  0  0  0  0  0  0  0  0  0  0
   -1.6956   -6.2649    2.2917 H   0  0  0  0  0  0  0  0  0  0  0  0
   -0.0629   -4.8865    0.5163 N   0  0  0  0  0  0  0  0  0  0  0  0
    0.7613   -3.7159    0.1895 C   0  0  2  0  0  0  0  0  0  0  0  0
   -0.0929   -2.4311    0.1355 C   0  0  0  0  0  0  0  0  0  0  0  0
   -1.3131   -2.5067    0.2471 O   0  0  0  0  0  0  0  0  0  0  0  0
    1.4350   -3.9744   -1.1612 C   0  0  0  0  0  0  0  0  0  0  0  0
   -1.0494   -4.8069    0.2700 H   0  0  0  0  0  0  0  0  0  0  0  0
    1.5306   -3.5647    0.9535 H   0  0  0  0  0  0  0  0  0  0  0  0
    0.6833   -4.0807   -1.9511 H   0  0  0  0  0  0  0  0  0  0  0  0
    2.0993   -3.1467   -1.4261 H   0  0  0  0  0  0  0  0  0  0  0  0
    2.0290   -4.8926   -1.1193 H   0  0  0  0  0  0  0  0  0  0  0  0
    0.5145   -1.1905    0.0680 N   0  0  0  0  0  0  0  0  0  0  0  0
   -0.1254    0.0206   -0.4846 C   0  0  2  0  0  0  0  0  0  0  0  0
   -0.8913    0.8006    0.6083 C   0  0  0  0  0  0  0  0  0  0  0  0
   -0.3318    1.0681    1.6685 O   0  0  0  0  0  0  0  0  0  0  0  0
   -0.9009   -0.2245   -1.8014 C   0  0  0  0  0  0  0  0  0  0  0  0
    0.0770   -0.5939   -2.9323 C   0  0  0  0  0  0  0  0  0  0  0  0
   -0.6512   -0.8688   -4.2467 C   0  0  0  0  0  0  0  0  0  0  0  0
   -1.3537    0.0544   -4.7272 O   0  5  0  0  0  0  0  0  0  0  0  0
   -0.4718   -1.9899   -4.7829 O   0  0  0  0  0  0  0  0  0  0  0  0
    1.5273   -1.2154    0.0249 H   0  0  0  0  0  0  0  0  0  0  0  0
    0.6867    0.7014   -0.7561 H   0  0  0  0  0  0  0  0  0  0  0  0
   -1.4221    0.6929   -2.0955 H   0  0  0  0  0  0  0  0  0  0  0  0
   -1.6616   -1.0020   -1.6884 H   0  0  0  0  0  0  0  0  0  0  0  0
    0.7829    0.2263   -3.0915 H   0  0  0  0  0  0  0  0  0  0  0  0
    0.6514   -1.4809   -2.6538 H   0  0  0  0  0  0  0  0  0  0  0  0
   -2.1648    1.2983    0.3972 N   0  0  0  0  0  0  0  0  0  0  0  0
   -2.9764    1.9469    1.4343 C   0  0  2  0  0  0  0  0  0  0  0  0
   -4.4813    1.6547    1.2687 C   0  0  0  0  0  0  0  0  0  0  0  0
   -4.9622    1.4526    0.1604 O   0  0  0  0  0  0  0  0  0  0  0  0
   -2.7194    3.4550    1.3777 C   0  0  0  0  0  0  0  0  0  0  0  0
   -2.6491    0.9811   -0.4436 H   0  0  0  0  0  0  0  0  0  0  0  0
   -2.6809    1.5692    2.4185 H   0  0  0  0  0  0  0  0  0  0  0  0
   -3.0046    3.8540    0.3990 H   0  0  0  0  0  0  0  0  0  0  0  0
   -3.2989    3.9713    2.1486 H   0  0  0  0  0  0  0  0  0  0  0  0
   -1.6582    3.6649    1.5443 H   0  0  0  0  0  0  0  0  0  0  0  0
   -5.3119    1.6479    2.3753 N   0  0  0  0  0  0  0  0  0  0  0  0
   -6.7346    1.3419    2.3021 C   0  0  0  0  0  0  0  0  0  0  0  0
   -4.8757    1.7535    3.2860 H   0  0  0  0  0  0  0  0  0  0  0  0
   -7.2478    2.0629    1.6572 H   0  0  0  0  0  0  0  0  0  0  0  0
   -6.8898    0.3353    1.8997 H   0  0  0  0  0  0  0  0  0  0  0  0
   -7.1829    1.3898    3.2988 H   0  0  0  0  0  0  0  0  0  0  0  0
  1  2  2  0  0  0  0
  1  3  1  0  0  0  0
  1  7  1  0  0  0  0
  3  4  1  0  0  0  0
  3  5  1  0  0  0  0
  3  6  1  0  0  0  0
  7  8  1  0  0  0  0
  7 12  1  0  0  0  0
  8  9  1  0  0  0  0
  8 11  1  0  0  0  0
  8 13  1  0  0  0  0
  9 10  2  0  0  0  0
  9 17  1  0  0  0  0
 11 14  1  0  0  0  0
 11 15  1  0  0  0  0
 11 16  1  0  0  0  0
 17 18  1  0  0  0  0
 17 26  1  0  0  0  0
 18 19  1  0  0  0  0
 18 21  1  0  0  0  0
 18 27  1  0  0  0  0
 19 20  2  0  0  0  0
 19 32  1  0  0  0  0
 21 22  1  0  0  0  0
 21 28  1  0  0  0  0
 21 29  1  0  0  0  0
 22 23  1  0  0  0  0
 22 30  1  0  0  0  0
 22 31  1  0  0  0  0
 23 24  1  0  0  0  0
 23 25  2  0  0  0  0
 32 33  1  0  0  0  0
 32 37  1  0  0  0  0
 33 34  1  0  0  0  0
 33 36  1  0  0  0  0
 33 38  1  0  0  0  0
 34 35  2  0  0  0  0
 34 42  1  0  0  0  0
 36 39  1  0  0  0  0
 36 40  1  0  0  0  0
 36 41  1  0  0  0  0
 42 43  1  0  0  0  0
 42 44  1  0  0  0  0
 43 45  1  0  0  0  0
 43 46  1  0  0  0  0
 43 47  1  0  0  0  0
M  CHG  1  24  -1
M  END
$$$$

  -OEChem-05262216243D

 47 46  0     1  0  0  0  0  0999 V2000
    0.2716   -5.8492    1.4442 C   0  0  0  0  0  0  0  0  0  0  0  0
    1.3914   -5.8735    1.9334 O   0  0  0  0  0  0  0  0  0  0  0  0
   -0.7606   -6.8781    1.8673 C   0  0  0  0  0  0  0  0  0  0  0  0
   -1.1030   -7.4421    0.9963 H   0  0  0  0  0  0  0  0  0  0  0  0
   -0.3262   -7.5740    2.5902 H   0  0  0  0  0  0  0  0  0  0  0  0
   -1.6164   -6.3782    2.3278 H   0  0  0  0  0  0  0  0  0  0  0  0
   -0.0709   -4.8890    0.5175 N   0  0  0  0  0  0  0  0  0  0  0  0
    0.7456   -3.7105    0.1992 C   0  0  2  0  0  0  0  0  0  0  0  0
   -0.1192   -2.4340    0.1295 C   0  0  0  0  0  0  0  0  0  0  0  0
   -1.3409   -2.5188    0.2120 O   0  0  0  0  0  0  0  0  0  0  0  0
    1.4408   -3.9629   -1.1412 C   0  0  0  0  0  0  0  0  0  0  0  0
   -1.0599   -4.8162    0.2784 H   0  0  0  0  0  0  0  0  0  0  0  0
    1.5018   -3.5516    0.9748 H   0  0  0  0  0  0  0  0  0  0  0  0
    0.7011   -4.0797   -1.9409 H   0  0  0  0  0  0  0  0  0  0  0  0
    2.0985   -3.1275   -1.3981 H   0  0  0  0  0  0  0  0  0  0  0  0
    2.0451   -4.8736   -1.0884 H   0  0  0  0  0  0  0  0  0  0  0  0
    0.4762   -1.1865    0.0918 N   0  0  0  0  0  0  0  0  0  0  0  0
   -0.1626    0.0175   -0.4750 C   0  0  2  0  0  0  0  0  0  0  0  0
   -0.9735    0.7744    0.5980 C   0  0  0  0  0  0  0  0  0  0  0  0
   -0.3929    1.2464    1.5718 O   0  0  0  0  0  0  0  0  0  0  0  0
   -0.8953   -0.2202   -1.8165 C   0  0  0  0  0  0  0  0  0  0  0  0
    0.1222   -0.5660   -2.9195 C   0  0  0  0  0  0  0  0  0  0  0  0
   -0.5611   -0.8332   -4.2588 C   0  0  0  0  0  0  0  0  0  0  0  0
   -1.2034    0.1111   -4.7807 O   0  5  0  0  0  0  0  0  0  0  0  0
   -0.4091   -1.9696   -4.7707 O   0  0  0  0  0  0  0  0  0  0  0  0
    1.4900   -1.2014    0.0674 H   0  0  0  0  0  0  0  0  0  0  0  0
    0.6488    0.7107   -0.7161 H   0  0  0  0  0  0  0  0  0  0  0  0
   -1.4208    0.6951   -2.1113 H   0  0  0  0  0  0  0  0  0  0  0  0
   -1.6475   -1.0099   -1.7356 H   0  0  0  0  0  0  0  0  0  0  0  0
    0.8236    0.2634   -3.0469 H   0  0  0  0  0  0  0  0  0  0  0  0
    0.6979   -1.4497   -2.6327 H   0  0  0  0  0  0  0  0  0  0  0  0
   -2.3345    0.9848    0.4694 N   0  0  0  0  0  0  0  0  0  0  0  0
   -3.1726    1.5971    1.5076 C   0  0  2  0  0  0  0  0  0  0  0  0
   -4.5784    0.9673    1.5830 C   0  0  0  0  0  0  0  0  0  0  0  0
   -5.1229    0.5220    0.5801 O   0  0  0  0  0  0  0  0  0  0  0  0
   -3.2756    3.0961    1.2171 C   0  0  0  0  0  0  0  0  0  0  0  0
   -2.8087    0.4596   -0.2667 H   0  0  0  0  0  0  0  0  0  0  0  0
   -2.7051    1.4532    2.4870 H   0  0  0  0  0  0  0  0  0  0  0  0
   -3.7426    3.2641    0.2412 H   0  0  0  0  0  0  0  0  0  0  0  0
   -3.8769    3.5939    1.9834 H   0  0  0  0  0  0  0  0  0  0  0  0
   -2.2793    3.5491    1.2097 H   0  0  0  0  0  0  0  0  0  0  0  0
   -5.2533    0.9285    2.7907 N   0  0  0  0  0  0  0  0  0  0  0  0
   -6.5499    0.2853    2.9572 C   0  0  0  0  0  0  0  0  0  0  0  0
   -4.7466    1.2352    3.6154 H   0  0  0  0  0  0  0  0  0  0  0  0
   -7.2920    0.7397    2.2924 H   0  0  0  0  0  0  0  0  0  0  0  0
   -6.4775   -0.7830    2.7280 H   0  0  0  0  0  0  0  0  0  0  0  0
   -6.8969    0.3970    3.9886 H   0  0  0  0  0  0  0  0  0  0  0  0
  1  2  2  0  0  0  0
  1  3  1  0  0  0  0
  1  7  1  0  0  0  0
  3  4  1  0  0  0  0
  3  5  1  0  0  0  0
  3  6  1  0  0  0  0
  7  8  1  0  0  0  0
  7 12  1  0  0  0  0
  8  9  1  0  0  0  0
  8 11  1  0  0  0  0
  8 13  1  0  0  0  0
  9 10  2  0  0  0  0
  9 17  1  0  0  0  0
 11 14  1  0  0  0  0
 11 15  1  0  0  0  0
 11 16  1  0  0  0  0
 17 18  1  0  0  0  0
 17 26  1  0  0  0  0
 18 19  1  0  0  0  0
 18 21  1  0  0  0  0
 18 27  1  0  0  0  0
 19 20  2  0  0  0  0
 19 32  1  0  0  0  0
 21 22  1  0  0  0  0
 21 28  1  0  0  0  0
 21 29  1  0  0  0  0
 22 23  1  0  0  0  0
 22 30  1  0  0  0  0
 22 31  1  0  0  0  0
 23 24  1  0  0  0  0
 23 25  2  0  0  0  0
 32 33  1  0  0  0  0
 32 37  1  0  0  0  0
 33 34  1  0  0  0  0
 33 36  1  0  0  0  0
 33 38  1  0  0  0  0
 34 35  2  0  0  0  0
 34 42  1  0  0  0  0
 36 39  1  0  0  0  0
 36 40  1  0  0  0  0
 36 41  1  0  0  0  0
 42 43  1  0  0  0  0
 42 44  1  0  0  0  0
 43 45  1  0  0  0  0
 43 46  1  0  0  0  0
 43 47  1  0  0  0  0
M  CHG  1  24  -1
M  END
$$$$

  -OEChem-05262216243D

 47 46  0     1  0  0  0  0  0999 V2000
    0.2884   -5.8283    1.4369 C   0  0  0  0  0  0  0  0  0  0  0  0
    1.3886   -5.8199    1.9692 O   0  0  0  0  0  0  0  0  0  0  0  0
   -0.7477   -6.8533    1.8604 C   0  0  0  0  0  0  0  0  0  0  0  0
   -1.0361   -7.4668    1.0034 H   0  0  0  0  0  0  0  0  0  0  0  0
   -0.3403   -7.5040    2.6391 H   0  0  0  0  0  0  0  0  0  0  0  0
   -1.6344   -6.3476    2.2513 H   0  0  0  0  0  0  0  0  0  0  0  0
   -0.0291   -4.9115    0.4586 N   0  0  0  0  0  0  0  0  0  0  0  0
    0.7738   -3.7228    0.1436 C   0  0  2  0  0  0  0  0  0  0  0  0
   -0.1046   -2.4542    0.0996 C   0  0  0  0  0  0  0  0  0  0  0  0
   -1.3258   -2.5528    0.1759 O   0  0  0  0  0  0  0  0  0  0  0  0
    1.4540   -3.9562   -1.2078 C   0  0  0  0  0  0  0  0  0  0  0  0
   -1.0120   -4.8583    0.1916 H   0  0  0  0  0  0  0  0  0  0  0  0
    1.5401   -3.5645    0.9091 H   0  0  0  0  0  0  0  0  0  0  0  0
    0.7057   -4.0665   -2.0005 H   0  0  0  0  0  0  0  0  0  0  0  0
    2.1052   -3.1148   -1.4624 H   0  0  0  0  0  0  0  0  0  0  0  0
    2.0626   -4.8650   -1.1732 H   0  0  0  0  0  0  0  0  0  0  0  0
    0.4736   -1.1979    0.1016 N   0  0  0  0  0  0  0  0  0  0  0  0
   -0.1788    0.0030   -0.4547 C   0  0  2  0  0  0  0  0  0  0  0  0
   -1.0240    0.7182    0.6176 C   0  0  0  0  0  0  0  0  0  0  0  0
   -0.4672    1.3864    1.4843 O   0  0  0  0  0  0  0  0  0  0  0  0
   -0.8940   -0.2220   -1.8068 C   0  0  0  0  0  0  0  0  0  0  0  0
    0.1367   -0.5336   -2.9071 C   0  0  0  0  0  0  0  0  0  0  0  0
   -0.5360   -0.7865   -4.2545 C   0  0  0  0  0  0  0  0  0  0  0  0
   -1.1930    0.1554   -4.7622 O   0  5  0  0  0  0  0  0  0  0  0  0
   -0.3657   -1.9125   -4.7834 O   0  0  0  0  0  0  0  0  0  0  0  0
    1.4875   -1.2014    0.0676 H   0  0  0  0  0  0  0  0  0  0  0  0
    0.6218    0.7165   -0.6725 H   0  0  0  0  0  0  0  0  0  0  0  0
   -1.4320    0.6910   -2.0855 H   0  0  0  0  0  0  0  0  0  0  0  0
   -1.6354   -1.0238   -1.7503 H   0  0  0  0  0  0  0  0  0  0  0  0
    0.8283    0.3068   -3.0146 H   0  0  0  0  0  0  0  0  0  0  0  0
    0.7219   -1.4144   -2.6316 H   0  0  0  0  0  0  0  0  0  0  0  0
   -2.4038    0.6321    0.6162 N   0  0  0  0  0  0  0  0  0  0  0  0
   -3.2638    1.1853    1.6693 C   0  0  2  0  0  0  0  0  0  0  0  0
   -4.4853    0.2929    1.9705 C   0  0  0  0  0  0  0  0  0  0  0  0
   -5.0416   -0.3372    1.0795 O   0  0  0  0  0  0  0  0  0  0  0  0
   -3.7183    2.5788    1.2295 C   0  0  0  0  0  0  0  0  0  0  0  0
   -2.8090   -0.0754    0.0000 H   0  0  0  0  0  0  0  0  0  0  0  0
   -2.6938    1.2732    2.5998 H   0  0  0  0  0  0  0  0  0  0  0  0
   -4.2858    2.5178    0.2950 H   0  0  0  0  0  0  0  0  0  0  0  0
   -4.3531    3.0334    1.9956 H   0  0  0  0  0  0  0  0  0  0  0  0
   -2.8504    3.2262    1.0686 H   0  0  0  0  0  0  0  0  0  0  0  0
   -4.9948    0.2326    3.2560 N   0  0  0  0  0  0  0  0  0  0  0  0
   -6.1178   -0.6173    3.6294 C   0  0  0  0  0  0  0  0  0  0  0  0
   -4.4801    0.7189    3.9837 H   0  0  0  0  0  0  0  0  0  0  0  0
   -7.0112   -0.3434    3.0583 H   0  0  0  0  0  0  0  0  0  0  0  0
   -5.8830   -1.6690    3.4345 H   0  0  0  0  0  0  0  0  0  0  0  0
   -6.3402   -0.5035    4.6945 H   0  0  0  0  0  0  0  0  0  0  0  0
  1  2  2  0  0  0  0
  1  3  1  0  0  0  0
  1  7  1  0  0  0  0
  3  4  1  0  0  0  0
  3  5  1  0  0  0  0
  3  6  1  0  0  0  0
  7  8  1  0  0  0  0
  7 12  1  0  0  0  0
  8  9  1  0  0  0  0
  8 11  1  0  0  0  0
  8 13  1  0  0  0  0
  9 10  2  0  0  0  0
  9 17  1  0  0  0  0
 11 14  1  0  0  0  0
 11 15  1  0  0  0  0
 11 16  1  0  0  0  0
 17 18  1  0  0  0  0
 17 26  1  0  0  0  0
 18 19  1  0  0  0  0
 18 21  1  0  0  0  0
 18 27  1  0  0  0  0
 19 20  2  0  0  0  0
 19 32  1  0  0  0  0
 21 22  1  0  0  0  0
 21 28  1  0  0  0  0
 21 29  1  0  0  0  0
 22 23  1  0  0  0  0
 22 30  1  0  0  0  0
 22 31  1  0  0  0  0
 23 24  1  0  0  0  0
 23 25  2  0  0  0  0
 32 33  1  0  0  0  0
 32 37  1  0  0  0  0
 33 34  1  0  0  0  0
 33 36  1  0  0  0  0
 33 38  1  0  0  0  0
 34 35  2  0  0  0  0
 34 42  1  0  0  0  0
 36 39  1  0  0  0  0
 36 40  1  0  0  0  0
 36 41  1  0  0  0  0
 42 43  1  0  0  0  0
 42 44  1  0  0  0  0
 43 45  1  0  0  0  0
 43 46  1  0  0  0  0
 43 47  1  0  0  0  0
M  CHG  1  24  -1
M  END
$$$$

  -OEChem-05262216243D

 47 46  0     1  0  0  0  0  0999 V2000
   -0.2080   -6.1100    0.9180 C   0  0  0  0  0  0  0  0  0  0  0  0
    0.7523   -6.2476    1.6613 O   0  0  0  0  0  0  0  0  0  0  0  0
   -1.2137   -7.2357    0.7601 C   0  0  0  0  0  0  0  0  0  0  0  0
   -1.2706   -7.5396   -0.2882 H   0  0  0  0  0  0  0  0  0  0  0  0
   -0.9138   -8.0983    1.3615 H   0  0  0  0  0  0  0  0  0  0  0  0
   -2.2013   -6.9025    1.0888 H   0  0  0  0  0  0  0  0  0  0  0  0
   -0.3928   -4.9329    0.2264 N   0  0  0  0  0  0  0  0  0  0  0  0
    0.4108   -3.7181    0.4111 C   0  0  2  0  0  0  0  0  0  0  0  0
   -0.4566   -2.4469    0.2823 C   0  0  0  0  0  0  0  0  0  0  0  0
   -1.6515   -2.5393    0.0071 O   0  0  0  0  0  0  0  0  0  0  0  0
    1.5304   -3.7242   -0.6348 C   0  0  0  0  0  0  0  0  0  0  0  0
   -1.2792   -4.8154   -0.2638 H   0  0  0  0  0  0  0  0  0  0  0  0
    0.8529   -3.7120    1.4127 H   0  0  0  0  0  0  0  0  0  0  0  0
    1.1113   -3.6971   -1.6469 H   0  0  0  0  0  0  0  0  0  0  0  0
    2.1839   -2.8563   -0.5071 H   0  0  0  0  0  0  0  0  0  0  0  0
    2.1382   -4.6289   -0.5347 H   0  0  0  0  0  0  0  0  0  0  0  0
    0.0519   -1.2009    0.6066 N   0  0  0  0  0  0  0  0  0  0  0  0
   -0.4492    0.0436   -0.0089 C   0  0  2  0  0  0  0  0  0  0  0  0
   -1.6171    0.6202    0.8098 C   0  0  0  0  0  0  0  0  0  0  0  0
   -1.4135    1.4064    1.7300 O   0  0  0  0  0  0  0  0  0  0  0  0
   -0.7212   -0.0440   -1.5278 C   0  0  0  0  0  0  0  0  0  0  0  0
    0.5960   -0.2336   -2.2986 C   0  0  0  0  0  0  0  0  0  0  0  0
    0.3458   -0.3482   -3.8004 C   0  0  0  0  0  0  0  0  0  0  0  0
   -0.1445    0.6474   -4.3873 O   0  5  0  0  0  0  0  0  0  0  0  0
    0.6466   -1.4343   -4.3532 O   0  0  0  0  0  0  0  0  0  0  0  0
    1.0394   -1.2039    0.8420 H   0  0  0  0  0  0  0  0  0  0  0  0
    0.3478    0.7863    0.0983 H   0  0  0  0  0  0  0  0  0  0  0  0
   -1.1875    0.8898   -1.8615 H   0  0  0  0  0  0  0  0  0  0  0  0
   -1.4163   -0.8503   -1.7760 H   0  0  0  0  0  0  0  0  0  0  0  0
    1.2575    0.6182   -2.1172 H   0  0  0  0  0  0  0  0  0  0  0  0
    1.1086   -1.1339   -1.9518 H   0  0  0  0  0  0  0  0  0  0  0  0
   -2.9105    0.2355    0.5175 N   0  0  0  0  0  0  0  0  0  0  0  0
   -4.1096    0.7143    1.2212 C   0  0  2  0  0  0  0  0  0  0  0  0
   -4.3069    0.0700    2.6179 C   0  0  0  0  0  0  0  0  0  0  0  0
   -5.3835   -0.4033    2.9691 O   0  0  0  0  0  0  0  0  0  0  0  0
   -5.2988    0.4726    0.2837 C   0  0  0  0  0  0  0  0  0  0  0  0
   -2.9838   -0.6089   -0.0535 H   0  0  0  0  0  0  0  0  0  0  0  0
   -4.0203    1.7941    1.3790 H   0  0  0  0  0  0  0  0  0  0  0  0
   -5.4432   -0.5996    0.1169 H   0  0  0  0  0  0  0  0  0  0  0  0
   -6.2158    0.8842    0.7167 H   0  0  0  0  0  0  0  0  0  0  0  0
   -5.1268    0.9569   -0.6825 H   0  0  0  0  0  0  0  0  0  0  0  0
   -3.2617    0.0812    3.5208 N   0  0  0  0  0  0  0  0  0  0  0  0
   -3.3282   -0.4705    4.8653 C   0  0  0  0  0  0  0  0  0  0  0  0
   -2.3973    0.5235    3.1967 H   0  0  0  0  0  0  0  0  0  0  0  0
   -4.0864    0.0532    5.4560 H   0  0  0  0  0  0  0  0  0  0  0  0
   -3.5794   -1.5355    4.8293 H   0  0  0  0  0  0  0  0  0  0  0  0
   -2.3610   -0.3598    5.3644 H   0  0  0  0  0  0  0  0  0  0  0  0
  1  2  2  0  0  0  0
  1  3  1  0  0  0  0
  1  7  1  0  0  0  0
  3  4  1  0  0  0  0
  3  5  1  0  0  0  0
  3  6  1  0  0  0  0
  7  8  1  0  0  0  0
  7 12  1  0  0  0  0
  8  9  1  0  0  0  0
  8 11  1  0  0  0  0
  8 13  1  0  0  0  0
  9 10  2  0  0  0  0
  9 17  1  0  0  0  0
 11 14  1  0  0  0  0
 11 15  1  0  0  0  0
 11 16  1  0  0  0  0
 17 18  1  0  0  0  0
 17 26  1  0  0  0  0
 18 19  1  0  0  0  0
 18 21  1  0  0  0  0
 18 27  1  0  0  0  0
 19 20  2  0  0  0  0
 19 32  1  0  0  0  0
 21 22  1  0  0  0  0
 21 28  1  0  0  0  0
 21 29  1  0  0  0  0
 22 23  1  0  0  0  0
 22 30  1  0  0  0  0
 22 31  1  0  0  0  0
 23 24  1  0  0  0  0
 23 25  2  0  0  0  0
 32 33  1  0  0  0  0
 32 37  1  0  0  0  0
 33 34  1  0  0  0  0
 33 36  1  0  0  0  0
 33 38  1  0  0  0  0
 34 35  2  0  0  0  0
 34 42  1  0  0  0  0
 36 39  1  0  0  0  0
 36 40  1  0  0  0  0
 36 41  1  0  0  0  0
 42 43  1  0  0  0  0
 42 44  1  0  0  0  0
 43 45  1  0  0  0  0
 43 46  1  0  0  0  0
 43 47  1  0  0  0  0
M  CHG  1  24  -1
M  END
$$$$

  -OEChem-05262216243D

 47 46  0     1  0  0  0  0  0999 V2000
   -0.0677   -6.1041    0.9389 C   0  0  0  0  0  0  0  0  0  0  0  0
    0.8689   -6.1774    1.7206 O   0  0  0  0  0  0  0  0  0  0  0  0
   -1.0769   -7.2341    0.8547 C   0  0  0  0  0  0  0  0  0  0  0  0
   -1.1010   -7.6366   -0.1610 H   0  0  0  0  0  0  0  0  0  0  0  0
   -0.8056   -8.0365    1.5461 H   0  0  0  0  0  0  0  0  0  0  0  0
   -2.0720   -6.8647    1.1156 H   0  0  0  0  0  0  0  0  0  0  0  0
   -0.2262   -4.9968    0.1347 N   0  0  0  0  0  0  0  0  0  0  0  0
    0.5353   -3.7495    0.2770 C   0  0  2  0  0  0  0  0  0  0  0  0
   -0.3924   -2.5168    0.2192 C   0  0  0  0  0  0  0  0  0  0  0  0
   -1.5901   -2.6550   -0.0236 O   0  0  0  0  0  0  0  0  0  0  0  0
    1.5749   -3.7025   -0.8459 C   0  0  0  0  0  0  0  0  0  0  0  0
   -1.1079   -4.9243   -0.3720 H   0  0  0  0  0  0  0  0  0  0  0  0
    1.0490   -3.7268    1.2436 H   0  0  0  0  0  0  0  0  0  0  0  0
    1.0822   -3.6775   -1.8243 H   0  0  0  0  0  0  0  0  0  0  0  0
    2.2048   -2.8131   -0.7519 H   0  0  0  0  0  0  0  0  0  0  0  0
    2.2194   -4.5861   -0.8032 H   0  0  0  0  0  0  0  0  0  0  0  0
    0.0703   -1.2628    0.5800 N   0  0  0  0  0  0  0  0  0  0  0  0
   -0.4837   -0.0100    0.0264 C   0  0  2  0  0  0  0  0  0  0  0  0
   -1.6554    0.4888    0.8894 C   0  0  0  0  0  0  0  0  0  0  0  0
   -1.5035    1.3926    1.7056 O   0  0  0  0  0  0  0  0  0  0  0  0
   -0.8054   -0.0567   -1.4836 C   0  0  0  0  0  0  0  0  0  0  0  0
    0.4883   -0.1868   -2.3040 C   0  0  0  0  0  0  0  0  0  0  0  0
    0.1900   -0.2604   -3.7992 C   0  0  0  0  0  0  0  0  0  0  0  0
   -0.3186    0.7500   -4.3434 O   0  5  0  0  0  0  0  0  0  0  0  0
    0.4741   -1.3309   -4.3902 O   0  0  0  0  0  0  0  0  0  0  0  0
    1.0626   -1.2385    0.7930 H   0  0  0  0  0  0  0  0  0  0  0  0
    0.2914    0.7549    0.1392 H   0  0  0  0  0  0  0  0  0  0  0  0
   -1.3056    0.8752   -1.7704 H   0  0  0  0  0  0  0  0  0  0  0  0
   -1.4903   -0.8715   -1.7335 H   0  0  0  0  0  0  0  0  0  0  0  0
    1.1340    0.6756   -2.1168 H   0  0  0  0  0  0  0  0  0  0  0  0
    1.0344   -1.0840   -2.0048 H   0  0  0  0  0  0  0  0  0  0  0  0
   -2.8725   -0.1570    0.8053 N   0  0  0  0  0  0  0  0  0  0  0  0
   -4.0483    0.1514    1.6313 C   0  0  2  0  0  0  0  0  0  0  0  0
   -3.9369   -0.3913    3.0791 C   0  0  0  0  0  0  0  0  0  0  0  0
   -4.8312   -1.0528    3.5976 O   0  0  0  0  0  0  0  0  0  0  0  0
   -5.2699   -0.3948    0.8832 C   0  0  0  0  0  0  0  0  0  0  0  0
   -2.8412   -1.0553    0.3125 H   0  0  0  0  0  0  0  0  0  0  0  0
   -4.1569    1.2383    1.7051 H   0  0  0  0  0  0  0  0  0  0  0  0
   -5.2089   -1.4842    0.7949 H   0  0  0  0  0  0  0  0  0  0  0  0
   -6.1901   -0.1397    1.4179 H   0  0  0  0  0  0  0  0  0  0  0  0
   -5.3239    0.0351   -0.1218 H   0  0  0  0  0  0  0  0  0  0  0  0
   -2.8206   -0.0802    3.8310 N   0  0  0  0  0  0  0  0  0  0  0  0
   -2.6012   -0.5211    5.2001 C   0  0  0  0  0  0  0  0  0  0  0  0
   -2.1168    0.4998    3.3660 H   0  0  0  0  0  0  0  0  0  0  0  0
   -3.3981   -0.1512    5.8532 H   0  0  0  0  0  0  0  0  0  0  0  0
   -2.5803   -1.6146    5.2499 H   0  0  0  0  0  0  0  0  0  0  0  0
   -1.6448   -0.1387    5.5690 H   0  0  0  0  0  0  0  0  0  0  0  0
  1  2  2  0  0  0  0
  1  3  1  0  0  0  0
  1  7  1  0  0  0  0
  3  4  1  0  0  0  0
  3  5  1  0  0  0  0
  3  6  1  0  0  0  0
  7  8  1  0  0  0  0
  7 12  1  0  0  0  0
  8  9  1  0  0  0  0
  8 11  1  0  0  0  0
  8 13  1  0  0  0  0
  9 10  2  0  0  0  0
  9 17  1  0  0  0  0
 11 14  1  0  0  0  0
 11 15  1  0  0  0  0
 11 16  1  0  0  0  0
 17 18  1  0  0  0  0
 17 26  1  0  0  0  0
 18 19  1  0  0  0  0
 18 21  1  0  0  0  0
 18 27  1  0  0  0  0
 19 20  2  0  0  0  0
 19 32  1  0  0  0  0
 21 22  1  0  0  0  0
 21 28  1  0  0  0  0
 21 29  1  0  0  0  0
 22 23  1  0  0  0  0
 22 30  1  0  0  0  0
 22 31  1  0  0  0  0
 23 24  1  0  0  0  0
 23 25  2  0  0  0  0
 32 33  1  0  0  0  0
 32 37  1  0  0  0  0
 33 34  1  0  0  0  0
 33 36  1  0  0  0  0
 33 38  1  0  0  0  0
 34 35  2  0  0  0  0
 34 42  1  0  0  0  0
 36 39  1  0  0  0  0
 36 40  1  0  0  0  0
 36 41  1  0  0  0  0
 42 43  1  0  0  0  0
 42 44  1  0  0  0  0
 43 45  1  0  0  0  0
 43 46  1  0  0  0  0
 43 47  1  0  0  0  0
M  CHG  1  24  -1
M  END
$$$$

  -OEChem-05262216243D

 47 46  0     1  0  0  0  0  0999 V2000
    0.1435   -5.6884    1.3589 C   0  0  0  0  0  0  0  0  0  0  0  0
    1.1100   -5.3063    2.0015 O   0  0  0  0  0  0  0  0  0  0  0  0
   -0.7714   -6.7561    1.9298 C   0  0  0  0  0  0  0  0  0  0  0  0
   -0.7763   -7.6311    1.2752 H   0  0  0  0  0  0  0  0  0  0  0  0
   -0.4257   -7.0590    2.9221 H   0  0  0  0  0  0  0  0  0  0  0  0
   -1.7895   -6.3679    2.0160 H   0  0  0  0  0  0  0  0  0  0  0  0
   -0.1329   -5.1484    0.1204 N   0  0  0  0  0  0  0  0  0  0  0  0
    0.5178   -3.9343   -0.3898 C   0  0  2  0  0  0  0  0  0  0  0  0
   -0.3581   -2.6913   -0.1352 C   0  0  0  0  0  0  0  0  0  0  0  0
   -1.5713   -2.7547   -0.3212 O   0  0  0  0  0  0  0  0  0  0  0  0
    0.7582   -4.1270   -1.8896 C   0  0  0  0  0  0  0  0  0  0  0  0
   -1.0568   -5.3521   -0.2540 H   0  0  0  0  0  0  0  0  0  0  0  0
    1.4879   -3.7825    0.0937 H   0  0  0  0  0  0  0  0  0  0  0  0
   -0.1923   -4.2316   -2.4230 H   0  0  0  0  0  0  0  0  0  0  0  0
    1.2920   -3.2682   -2.3074 H   0  0  0  0  0  0  0  0  0  0  0  0
    1.3593   -5.0239   -2.0666 H   0  0  0  0  0  0  0  0  0  0  0  0
    0.1695   -1.5457    0.4362 N   0  0  0  0  0  0  0  0  0  0  0  0
   -0.3210   -0.1826    0.1367 C   0  0  2  0  0  0  0  0  0  0  0  0
   -1.4562    0.2305    1.0916 C   0  0  0  0  0  0  0  0  0  0  0  0
   -1.3123    1.1517    1.8891 O   0  0  0  0  0  0  0  0  0  0  0  0
   -0.6616    0.0431   -1.3513 C   0  0  0  0  0  0  0  0  0  0  0  0
    0.6188   -0.0129   -2.2032 C   0  0  0  0  0  0  0  0  0  0  0  0
    0.3132    0.1804   -3.6862 C   0  0  0  0  0  0  0  0  0  0  0  0
   -0.1462    1.2898   -4.0515 O   0  5  0  0  0  0  0  0  0  0  0  0
    0.5465   -0.7896   -4.4489 O   0  0  0  0  0  0  0  0  0  0  0  0
    1.1634   -1.6110    0.6347 H   0  0  0  0  0  0  0  0  0  0  0  0
    0.4994    0.5060    0.3637 H   0  0  0  0  0  0  0  0  0  0  0  0
   -1.1148    1.0340   -1.4682 H   0  0  0  0  0  0  0  0  0  0  0  0
   -1.3912   -0.6841   -1.7183 H   0  0  0  0  0  0  0  0  0  0  0  0
    1.3068    0.7753   -1.8841 H   0  0  0  0  0  0  0  0  0  0  0  0
    1.1247   -0.9706   -2.0634 H   0  0  0  0  0  0  0  0  0  0  0  0
   -2.6151   -0.5180    1.1277 N   0  0  0  0  0  0  0  0  0  0  0  0
   -3.7496   -0.2906    2.0324 C   0  0  2  0  0  0  0  0  0  0  0  0
   -3.4833   -0.7886    3.4757 C   0  0  0  0  0  0  0  0  0  0  0  0
   -4.2518   -1.5502    4.0554 O   0  0  0  0  0  0  0  0  0  0  0  0
   -4.9705   -0.9570    1.3873 C   0  0  0  0  0  0  0  0  0  0  0  0
   -2.5966   -1.3707    0.5577 H   0  0  0  0  0  0  0  0  0  0  0  0
   -3.9462    0.7846    2.0946 H   0  0  0  0  0  0  0  0  0  0  0  0
   -4.8204   -2.0388    1.3104 H   0  0  0  0  0  0  0  0  0  0  0  0
   -5.8673   -0.7711    1.9864 H   0  0  0  0  0  0  0  0  0  0  0  0
   -5.1367   -0.5552    0.3829 H   0  0  0  0  0  0  0  0  0  0  0  0
   -2.3678   -0.3295    4.1488 N   0  0  0  0  0  0  0  0  0  0  0  0
   -1.9798   -0.7524    5.4859 C   0  0  0  0  0  0  0  0  0  0  0  0
   -1.7538    0.2948    3.6179 H   0  0  0  0  0  0  0  0  0  0  0  0
   -1.7587   -1.8245    5.4975 H   0  0  0  0  0  0  0  0  0  0  0  0
   -1.0853   -0.2094    5.8056 H   0  0  0  0  0  0  0  0  0  0  0  0
   -2.7825   -0.5475    6.2018 H   0  0  0  0  0  0  0  0  0  0  0  0
  1  2  2  0  0  0  0
  1  3  1  0  0  0  0
  1  7  1  0  0  0  0
  3  4  1  0  0  0  0
  3  5  1  0  0  0  0
  3  6  1  0  0  0  0
  7  8  1  0  0  0  0
  7 12  1  0  0  0  0
  8  9  1  0  0  0  0
  8 11  1  0  0  0  0
  8 13  1  0  0  0  0
  9 10  2  0  0  0  0
  9 17  1  0  0  0  0
 11 14  1  0  0  0  0
 11 15  1  0  0  0  0
 11 16  1  0  0  0  0
 17 18  1  0  0  0  0
 17 26  1  0  0  0  0
 18 19  1  0  0  0  0
 18 21  1  0  0  0  0
 18 27  1  0  0  0  0
 19 20  2  0  0  0  0
 19 32  1  0  0  0  0
 21 22  1  0  0  0  0
 21 28  1  0  0  0  0
 21 29  1  0  0  0  0
 22 23  1  0  0  0  0
 22 30  1  0  0  0  0
 22 31  1  0  0  0  0
 23 24  1  0  0  0  0
 23 25  2  0  0  0  0
 32 33  1  0  0  0  0
 32 37  1  0  0  0  0
 33 34  1  0  0  0  0
 33 36  1  0  0  0  0
 33 38  1  0  0  0  0
 34 35  2  0  0  0  0
 34 42  1  0  0  0  0
 36 39  1  0  0  0  0
 36 40  1  0  0  0  0
 36 41  1  0  0  0  0
 42 43  1  0  0  0  0
 42 44  1  0  0  0  0
 43 45  1  0  0  0  0
 43 46  1  0  0  0  0
 43 47  1  0  0  0  0
M  CHG  1  24  -1
M  END
$$$$

  -OEChem-05262216243D

 47 46  0     1  0  0  0  0  0999 V2000
    0.8696   -4.8052    1.4521 C   0  0  0  0  0  0  0  0  0  0  0  0
    1.7385   -3.9465    1.4041 O   0  0  0  0  0  0  0  0  0  0  0  0
    0.6734   -5.6244    2.7142 C   0  0  0  0  0  0  0  0  0  0  0  0
    0.7569   -6.6897    2.4856 H   0  0  0  0  0  0  0  0  0  0  0  0
    1.4333   -5.3627    3.4560 H   0  0  0  0  0  0  0  0  0  0  0  0
   -0.3147   -5.4257    3.1378 H   0  0  0  0  0  0  0  0  0  0  0  0
    0.0279   -4.9905    0.3744 N   0  0  0  0  0  0  0  0  0  0  0  0
    0.0322   -4.1198   -0.8106 C   0  0  2  0  0  0  0  0  0  0  0  0
   -0.6393   -2.7610   -0.5149 C   0  0  0  0  0  0  0  0  0  0  0  0
   -1.8154   -2.5545   -0.7982 O   0  0  0  0  0  0  0  0  0  0  0  0
   -0.6478   -4.8738   -1.9590 C   0  0  0  0  0  0  0  0  0  0  0  0
   -0.7759   -5.5947    0.5182 H   0  0  0  0  0  0  0  0  0  0  0  0
    1.0636   -3.9126   -1.1176 H   0  0  0  0  0  0  0  0  0  0  0  0
   -1.6859   -5.1126   -1.7071 H   0  0  0  0  0  0  0  0  0  0  0  0
   -0.6445   -4.2591   -2.8653 H   0  0  0  0  0  0  0  0  0  0  0  0
   -0.1150   -5.8052   -2.1715 H   0  0  0  0  0  0  0  0  0  0  0  0
    0.0197   -1.8521    0.2907 N   0  0  0  0  0  0  0  0  0  0  0  0
   -0.1573   -0.3848    0.2545 C   0  0  2  0  0  0  0  0  0  0  0  0
   -1.2804    0.0576    1.2120 C   0  0  0  0  0  0  0  0  0  0  0  0
   -1.0711    0.8861    2.0929 O   0  0  0  0  0  0  0  0  0  0  0  0
   -0.3419    0.1780   -1.1704 C   0  0  0  0  0  0  0  0  0  0  0  0
    0.9497    0.0086   -1.9912 C   0  0  0  0  0  0  0  0  0  0  0  0
    0.7831    0.5362   -3.4156 C   0  0  0  0  0  0  0  0  0  0  0  0
    0.5355    1.7587   -3.5614 O   0  5  0  0  0  0  0  0  0  0  0  0
    0.9176   -0.2863   -4.3554 O   0  0  0  0  0  0  0  0  0  0  0  0
    0.9286   -2.1896    0.6166 H   0  0  0  0  0  0  0  0  0  0  0  0
    0.7605    0.0630    0.6488 H   0  0  0  0  0  0  0  0  0  0  0  0
   -0.5727    1.2471   -1.1041 H   0  0  0  0  0  0  0  0  0  0  0  0
   -1.1819   -0.2958   -1.6862 H   0  0  0  0  0  0  0  0  0  0  0  0
    1.7672    0.5522   -1.5090 H   0  0  0  0  0  0  0  0  0  0  0  0
    1.2302   -1.0478   -2.0340 H   0  0  0  0  0  0  0  0  0  0  0  0
   -2.4710   -0.6416    1.2289 N   0  0  0  0  0  0  0  0  0  0  0  0
   -3.5305   -0.4987    2.2350 C   0  0  2  0  0  0  0  0  0  0  0  0
   -3.1773   -1.2069    3.5673 C   0  0  0  0  0  0  0  0  0  0  0  0
   -3.9086   -2.0525    4.0745 O   0  0  0  0  0  0  0  0  0  0  0  0
   -4.8238   -1.0245    1.6020 C   0  0  0  0  0  0  0  0  0  0  0  0
   -2.5406   -1.3929    0.5340 H   0  0  0  0  0  0  0  0  0  0  0  0
   -3.6720    0.5636    2.4590 H   0  0  0  0  0  0  0  0  0  0  0  0
   -4.7303   -2.0898    1.3682 H   0  0  0  0  0  0  0  0  0  0  0  0
   -5.6657   -0.8903    2.2879 H   0  0  0  0  0  0  0  0  0  0  0  0
   -5.0413   -0.4820    0.6769 H   0  0  0  0  0  0  0  0  0  0  0  0
   -2.0052   -0.8680    4.2147 N   0  0  0  0  0  0  0  0  0  0  0  0
   -1.5294   -1.4919    5.4397 C   0  0  0  0  0  0  0  0  0  0  0  0
   -1.4190   -0.1756    3.7389 H   0  0  0  0  0  0  0  0  0  0  0  0
   -2.2547   -1.3495    6.2474 H   0  0  0  0  0  0  0  0  0  0  0  0
   -1.3739   -2.5649    5.2865 H   0  0  0  0  0  0  0  0  0  0  0  0
   -0.5790   -1.0434    5.7444 H   0  0  0  0  0  0  0  0  0  0  0  0
  1  2  2  0  0  0  0
  1  3  1  0  0  0  0
  1  7  1  0  0  0  0
  3  4  1  0  0  0  0
  3  5  1  0  0  0  0
  3  6  1  0  0  0  0
  7  8  1  0  0  0  0
  7 12  1  0  0  0  0
  8  9  1  0  0  0  0
  8 11  1  0  0  0  0
  8 13  1  0  0  0  0
  9 10  2  0  0  0  0
  9 17  1  0  0  0  0
 11 14  1  0  0  0  0
 11 15  1  0  0  0  0
 11 16  1  0  0  0  0
 17 18  1  0  0  0  0
 17 26  1  0  0  0  0
 18 19  1  0  0  0  0
 18 21  1  0  0  0  0
 18 27  1  0  0  0  0
 19 20  2  0  0  0  0
 19 32  1  0  0  0  0
 21 22  1  0  0  0  0
 21 28  1  0  0  0  0
 21 29  1  0  0  0  0
 22 23  1  0  0  0  0
 22 30  1  0  0  0  0
 22 31  1  0  0  0  0
 23 24  1  0  0  0  0
 23 25  2  0  0  0  0
 32 33  1  0  0  0  0
 32 37  1  0  0  0  0
 33 34  1  0  0  0  0
 33 36  1  0  0  0  0
 33 38  1  0  0  0  0
 34 35  2  0  0  0  0
 34 42  1  0  0  0  0
 36 39  1  0  0  0  0
 36 40  1  0  0  0  0
 36 41  1  0  0  0  0
 42 43  1  0  0  0  0
 42 44  1  0  0  0  0
 43 45  1  0  0  0  0
 43 46  1  0  0  0  0
 43 47  1  0  0  0  0
M  CHG  1  24  -1
M  END
$$$$

  -OEChem-05262216243D

 47 46  0     1  0  0  0  0  0999 V2000
    0.7375   -5.8101    1.2980 C   0  0  0  0  0  0  0  0  0  0  0  0
    1.9413   -5.7235    1.4917 O   0  0  0  0  0  0  0  0  0  0  0  0
   -0.1101   -6.6940    2.1947 C   0  0  0  0  0  0  0  0  0  0  0  0
   -0.7548   -7.3351    1.5887 H   0  0  0  0  0  0  0  0  0  0  0  0
    0.5302   -7.3254    2.8167 H   0  0  0  0  0  0  0  0  0  0  0  0
   -0.7334   -6.0731    2.8435 H   0  0  0  0  0  0  0  0  0  0  0  0
    0.1339   -5.1026    0.2802 N   0  0  0  0  0  0  0  0  0  0  0  0
    0.7654   -3.9759   -0.4201 C   0  0  2  0  0  0  0  0  0  0  0  0
   -0.0591   -2.6898   -0.2107 C   0  0  0  0  0  0  0  0  0  0  0  0
   -1.2689   -2.7712   -0.0177 O   0  0  0  0  0  0  0  0  0  0  0  0
    0.8570   -4.3231   -1.9074 C   0  0  0  0  0  0  0  0  0  0  0  0
   -0.8851   -5.0817    0.3026 H   0  0  0  0  0  0  0  0  0  0  0  0
    1.7756   -3.7973   -0.0383 H   0  0  0  0  0  0  0  0  0  0  0  0
   -0.1425   -4.4617   -2.3331 H   0  0  0  0  0  0  0  0  0  0  0  0
    1.3587   -3.5224   -2.4590 H   0  0  0  0  0  0  0  0  0  0  0  0
    1.4271   -5.2466   -2.0464 H   0  0  0  0  0  0  0  0  0  0  0  0
    0.5603   -1.4727    0.0102 N   0  0  0  0  0  0  0  0  0  0  0  0
   -0.0437   -0.1577   -0.3085 C   0  0  2  0  0  0  0  0  0  0  0  0
   -0.8616    0.4024    0.8750 C   0  0  0  0  0  0  0  0  0  0  0  0
   -0.8764    1.6042    1.1161 O   0  0  0  0  0  0  0  0  0  0  0  0
   -0.8229   -0.1422   -1.6405 C   0  0  0  0  0  0  0  0  0  0  0  0
    0.1411   -0.3300   -2.8262 C   0  0  0  0  0  0  0  0  0  0  0  0
   -0.6004   -0.3456   -4.1616 C   0  0  0  0  0  0  0  0  0  0  0  0
   -1.1899    0.7034   -4.5190 O   0  5  0  0  0  0  0  0  0  0  0  0
   -0.5533   -1.4072   -4.8311 O   0  0  0  0  0  0  0  0  0  0  0  0
    1.5699   -1.5116   -0.0889 H   0  0  0  0  0  0  0  0  0  0  0  0
    0.7834    0.5489   -0.4315 H   0  0  0  0  0  0  0  0  0  0  0  0
   -1.3238    0.8262   -1.7502 H   0  0  0  0  0  0  0  0  0  0  0  0
   -1.6040   -0.9073   -1.6620 H   0  0  0  0  0  0  0  0  0  0  0  0
    0.8702    0.4850   -2.8412 H   0  0  0  0  0  0  0  0  0  0  0  0
    0.6921   -1.2667   -2.7161 H   0  0  0  0  0  0  0  0  0  0  0  0
   -1.4815   -0.4671    1.7507 N   0  0  0  0  0  0  0  0  0  0  0  0
   -2.2245   -0.0893    2.9562 C   0  0  2  0  0  0  0  0  0  0  0  0
   -1.9665   -1.0448    4.1411 C   0  0  0  0  0  0  0  0  0  0  0  0
   -1.6670   -2.2209    3.9639 O   0  0  0  0  0  0  0  0  0  0  0  0
   -3.7129   -0.0646    2.6024 C   0  0  0  0  0  0  0  0  0  0  0  0
   -1.4735   -1.4534    1.4707 H   0  0  0  0  0  0  0  0  0  0  0  0
   -1.9190    0.9117    3.2762 H   0  0  0  0  0  0  0  0  0  0  0  0
   -4.0440   -1.0562    2.2772 H   0  0  0  0  0  0  0  0  0  0  0  0
   -4.3087    0.2364    3.4691 H   0  0  0  0  0  0  0  0  0  0  0  0
   -3.8966    0.6473    1.7913 H   0  0  0  0  0  0  0  0  0  0  0  0
   -2.0989   -0.5779    5.4373 N   0  0  0  0  0  0  0  0  0  0  0  0
   -1.8324   -1.3951    6.6138 C   0  0  0  0  0  0  0  0  0  0  0  0
   -2.2992    0.4104    5.5571 H   0  0  0  0  0  0  0  0  0  0  0  0
   -2.4732   -2.2830    6.6166 H   0  0  0  0  0  0  0  0  0  0  0  0
   -0.7853   -1.7152    6.6271 H   0  0  0  0  0  0  0  0  0  0  0  0
   -2.0320   -0.8225    7.5243 H   0  0  0  0  0  0  0  0  0  0  0  0
  1  2  2  0  0  0  0
  1  3  1  0  0  0  0
  1  7  1  0  0  0  0
  3  4  1  0  0  0  0
  3  5  1  0  0  0  0
  3  6  1  0  0  0  0
  7  8  1  0  0  0  0
  7 12  1  0  0  0  0
  8  9  1  0  0  0  0
  8 11  1  0  0  0  0
  8 13  1  0  0  0  0
  9 10  2  0  0  0  0
  9 17  1  0  0  0  0
 11 14  1  0  0  0  0
 11 15  1  0  0  0  0
 11 16  1  0  0  0  0
 17 18  1  0  0  0  0
 17 26  1  0  0  0  0
 18 19  1  0  0  0  0
 18 21  1  0  0  0  0
 18 27  1  0  0  0  0
 19 20  2  0  0  0  0
 19 32  1  0  0  0  0
 21 22  1  0  0  0  0
 21 28  1  0  0  0  0
 21 29  1  0  0  0  0
 22 23  1  0  0  0  0
 22 30  1  0  0  0  0
 22 31  1  0  0  0  0
 23 24  1  0  0  0  0
 23 25  2  0  0  0  0
 32 33  1  0  0  0  0
 32 37  1  0  0  0  0
 33 34  1  0  0  0  0
 33 36  1  0  0  0  0
 33 38  1  0  0  0  0
 34 35  2  0  0  0  0
 34 42  1  0  0  0  0
 36 39  1  0  0  0  0
 36 40  1  0  0  0  0
 36 41  1  0  0  0  0
 42 43  1  0  0  0  0
 42 44  1  0  0  0  0
 43 45  1  0  0  0  0
 43 46  1  0  0  0  0
 43 47  1  0  0  0  0
M  CHG  1  24  -1
M  END
$$$$

  -OEChem-05262216243D

 47 46  0     1  0  0  0  0  0999 V2000
    0.7175   -6.2293    0.8249 C   0  0  0  0  0  0  0  0  0  0  0  0
    1.9335   -6.3337    0.8895 O   0  0  0  0  0  0  0  0  0  0  0  0
   -0.1680   -7.2697    1.4855 C   0  0  0  0  0  0  0  0  0  0  0  0
   -0.7609   -7.7878    0.7280 H   0  0  0  0  0  0  0  0  0  0  0  0
    0.4431   -8.0028    2.0191 H   0  0  0  0  0  0  0  0  0  0  0  0
   -0.8417   -6.7873    2.1984 H   0  0  0  0  0  0  0  0  0  0  0  0
    0.1382   -5.1690    0.1628 N   0  0  0  0  0  0  0  0  0  0  0  0
    0.8673   -3.9856   -0.3091 C   0  0  2  0  0  0  0  0  0  0  0  0
    0.0745   -2.6935   -0.0130 C   0  0  0  0  0  0  0  0  0  0  0  0
   -1.0723   -2.7615    0.4198 O   0  0  0  0  0  0  0  0  0  0  0  0
    1.1162   -4.1473   -1.8105 C   0  0  0  0  0  0  0  0  0  0  0  0
   -0.8690   -5.0530    0.2728 H   0  0  0  0  0  0  0  0  0  0  0  0
    1.8298   -3.9072    0.2070 H   0  0  0  0  0  0  0  0  0  0  0  0
    0.1688   -4.1455   -2.3612 H   0  0  0  0  0  0  0  0  0  0  0  0
    1.7385   -3.3308   -2.1870 H   0  0  0  0  0  0  0  0  0  0  0  0
    1.6330   -5.0914   -2.0095 H   0  0  0  0  0  0  0  0  0  0  0  0
    0.7005   -1.4607    0.0256 N   0  0  0  0  0  0  0  0  0  0  0  0
    0.0196   -0.1845   -0.3027 C   0  0  2  0  0  0  0  0  0  0  0  0
   -0.6417    0.4709    0.9293 C   0  0  0  0  0  0  0  0  0  0  0  0
   -0.9216    1.6644    0.9301 O   0  0  0  0  0  0  0  0  0  0  0  0
   -0.9358   -0.2883   -1.5123 C   0  0  0  0  0  0  0  0  0  0  0  0
   -0.1413   -0.5485   -2.8043 C   0  0  0  0  0  0  0  0  0  0  0  0
   -1.0629   -0.6818   -4.0142 C   0  0  0  0  0  0  0  0  0  0  0  0
   -1.5918    0.3617   -4.4688 O   0  5  0  0  0  0  0  0  0  0  0  0
   -1.2193   -1.8337   -4.4895 O   0  0  0  0  0  0  0  0  0  0  0  0
    1.6746   -1.5017   -0.2569 H   0  0  0  0  0  0  0  0  0  0  0  0
    0.8029    0.5220   -0.5944 H   0  0  0  0  0  0  0  0  0  0  0  0
   -1.4793    0.6568   -1.6248 H   0  0  0  0  0  0  0  0  0  0  0  0
   -1.6866   -1.0702   -1.3649 H   0  0  0  0  0  0  0  0  0  0  0  0
    0.5531    0.2777   -2.9825 H   0  0  0  0  0  0  0  0  0  0  0  0
    0.4482   -1.4616   -2.7070 H   0  0  0  0  0  0  0  0  0  0  0  0
   -0.8357   -0.2609    2.0846 N   0  0  0  0  0  0  0  0  0  0  0  0
   -1.5813    0.2170    3.2540 C   0  0  2  0  0  0  0  0  0  0  0  0
   -1.1631   -0.4734    4.5704 C   0  0  0  0  0  0  0  0  0  0  0  0
   -0.5377   -1.5281    4.5738 O   0  0  0  0  0  0  0  0  0  0  0  0
   -3.0729   -0.0119    2.9861 C   0  0  0  0  0  0  0  0  0  0  0  0
   -0.7227   -1.2713    1.9732 H   0  0  0  0  0  0  0  0  0  0  0  0
   -1.3999    1.2889    3.3830 H   0  0  0  0  0  0  0  0  0  0  0  0
   -3.2756   -1.0793    2.8493 H   0  0  0  0  0  0  0  0  0  0  0  0
   -3.6762    0.3550    3.8215 H   0  0  0  0  0  0  0  0  0  0  0  0
   -3.3821    0.5187    2.0796 H   0  0  0  0  0  0  0  0  0  0  0  0
   -1.5119    0.0979    5.7822 N   0  0  0  0  0  0  0  0  0  0  0  0
   -1.1732   -0.4861    7.0733 C   0  0  0  0  0  0  0  0  0  0  0  0
   -2.0305    0.9706    5.7546 H   0  0  0  0  0  0  0  0  0  0  0  0
   -1.6158   -1.4831    7.1698 H   0  0  0  0  0  0  0  0  0  0  0  0
   -0.0869   -0.5694    7.1827 H   0  0  0  0  0  0  0  0  0  0  0  0
   -1.5555    0.1423    7.8833 H   0  0  0  0  0  0  0  0  0  0  0  0
  1  2  2  0  0  0  0
  1  3  1  0  0  0  0
  1  7  1  0  0  0  0
  3  4  1  0  0  0  0
  3  5  1  0  0  0  0
  3  6  1  0  0  0  0
  7  8  1  0  0  0  0
  7 12  1  0  0  0  0
  8  9  1  0  0  0  0
  8 11  1  0  0  0  0
  8 13  1  0  0  0  0
  9 10  2  0  0  0  0
  9 17  1  0  0  0  0
 11 14  1  0  0  0  0
 11 15  1  0  0  0  0
 11 16  1  0  0  0  0
 17 18  1  0  0  0  0
 17 26  1  0  0  0  0
 18 19  1  0  0  0  0
 18 21  1  0  0  0  0
 18 27  1  0  0  0  0
 19 20  2  0  0  0  0
 19 32  1  0  0  0  0
 21 22  1  0  0  0  0
 21 28  1  0  0  0  0
 21 29  1  0  0  0  0
 22 23  1  0  0  0  0
 22 30  1  0  0  0  0
 22 31  1  0  0  0  0
 23 24  1  0  0  0  0
 23 25  2  0  0  0  0
 32 33  1  0  0  0  0
 32 37  1  0  0  0  0
 33 34  1  0  0  0  0
 33 36  1  0  0  0  0
 33 38  1  0  0  0  0
 34 35  2  0  0  0  0
 34 42  1  0  0  0  0
 36 39  1  0  0  0  0
 36 40  1  0  0  0  0
 36 41  1  0  0  0  0
 42 43  1  0  0  0  0
 42 44  1  0  0  0  0
 43 45  1  0  0  0  0
 43 46  1  0  0  0  0
 43 47  1  0  0  0  0
M  CHG  1  24  -1
M  END
$$$$

  -OEChem-05262216243D

 47 46  0     1  0  0  0  0  0999 V2000
    0.5934   -6.2040    0.8944 C   0  0  0  0  0  0  0  0  0  0  0  0
    1.8035   -6.3348    1.0056 O   0  0  0  0  0  0  0  0  0  0  0  0
   -0.3417   -7.1999    1.5553 C   0  0  0  0  0  0  0  0  0  0  0  0
   -0.9437   -7.7051    0.7958 H   0  0  0  0  0  0  0  0  0  0  0  0
    0.2318   -7.9481    2.1091 H   0  0  0  0  0  0  0  0  0  0  0  0
   -1.0065   -6.6812    2.2507 H   0  0  0  0  0  0  0  0  0  0  0  0
    0.0620   -5.1482    0.1870 N   0  0  0  0  0  0  0  0  0  0  0  0
    0.8300   -3.9827   -0.2679 C   0  0  2  0  0  0  0  0  0  0  0  0
    0.0593   -2.6736    0.0117 C   0  0  0  0  0  0  0  0  0  0  0  0
   -1.0809   -2.7187    0.4633 O   0  0  0  0  0  0  0  0  0  0  0  0
    1.1096   -4.1508   -1.7634 C   0  0  0  0  0  0  0  0  0  0  0  0
   -0.9448   -5.0063    0.2677 H   0  0  0  0  0  0  0  0  0  0  0  0
    1.7814   -3.9250    0.2708 H   0  0  0  0  0  0  0  0  0  0  0  0
    0.1753   -4.1263   -2.3356 H   0  0  0  0  0  0  0  0  0  0  0  0
    1.7596   -3.3492   -2.1256 H   0  0  0  0  0  0  0  0  0  0  0  0
    1.6077   -5.1072   -1.9511 H   0  0  0  0  0  0  0  0  0  0  0  0
    0.7011   -1.4480    0.0061 N   0  0  0  0  0  0  0  0  0  0  0  0
    0.0203   -0.1754   -0.3368 C   0  0  2  0  0  0  0  0  0  0  0  0
   -0.6035    0.5106    0.8991 C   0  0  0  0  0  0  0  0  0  0  0  0
   -1.0972    1.6296    0.8215 O   0  0  0  0  0  0  0  0  0  0  0  0
   -0.9509   -0.3025   -1.5333 C   0  0  0  0  0  0  0  0  0  0  0  0
   -0.1687   -0.5910   -2.8273 C   0  0  0  0  0  0  0  0  0  0  0  0
   -1.1011   -0.7484   -4.0253 C   0  0  0  0  0  0  0  0  0  0  0  0
   -1.5568    0.2937   -4.5560 O   0  5  0  0  0  0  0  0  0  0  0  0
   -1.3350   -1.9182   -4.4183 O   0  0  0  0  0  0  0  0  0  0  0  0
    1.6643   -1.5064   -0.3099 H   0  0  0  0  0  0  0  0  0  0  0  0
    0.8016    0.5205   -0.6564 H   0  0  0  0  0  0  0  0  0  0  0  0
   -1.4946    0.6401   -1.6622 H   0  0  0  0  0  0  0  0  0  0  0  0
   -1.7016   -1.0794   -1.3618 H   0  0  0  0  0  0  0  0  0  0  0  0
    0.5253    0.2304   -3.0286 H   0  0  0  0  0  0  0  0  0  0  0  0
    0.4209   -1.5030   -2.7179 H   0  0  0  0  0  0  0  0  0  0  0  0
   -0.4903   -0.0758    2.1447 N   0  0  0  0  0  0  0  0  0  0  0  0
   -1.1453    0.4183    3.3597 C   0  0  2  0  0  0  0  0  0  0  0  0
   -0.4700   -0.0929    4.6499 C   0  0  0  0  0  0  0  0  0  0  0  0
    0.2540   -1.0829    4.6418 O   0  0  0  0  0  0  0  0  0  0  0  0
   -2.6131   -0.0228    3.3248 C   0  0  0  0  0  0  0  0  0  0  0  0
   -0.1889   -1.0501    2.1362 H   0  0  0  0  0  0  0  0  0  0  0  0
   -1.0962    1.5118    3.3752 H   0  0  0  0  0  0  0  0  0  0  0  0
   -2.6819   -1.1152    3.2925 H   0  0  0  0  0  0  0  0  0  0  0  0
   -3.1448    0.3351    4.2112 H   0  0  0  0  0  0  0  0  0  0  0  0
   -3.1118    0.3816    2.4381 H   0  0  0  0  0  0  0  0  0  0  0  0
   -0.6957    0.5613    5.8482 N   0  0  0  0  0  0  0  0  0  0  0  0
   -0.1214    0.1321    7.1165 C   0  0  0  0  0  0  0  0  0  0  0  0
   -1.2961    1.3802    5.8274 H   0  0  0  0  0  0  0  0  0  0  0  0
   -0.4782   -0.8699    7.3776 H   0  0  0  0  0  0  0  0  0  0  0  0
    0.9719    0.1129    7.0550 H   0  0  0  0  0  0  0  0  0  0  0  0
   -0.4105    0.8222    7.9149 H   0  0  0  0  0  0  0  0  0  0  0  0
  1  2  2  0  0  0  0
  1  3  1  0  0  0  0
  1  7  1  0  0  0  0
  3  4  1  0  0  0  0
  3  5  1  0  0  0  0
  3  6  1  0  0  0  0
  7  8  1  0  0  0  0
  7 12  1  0  0  0  0
  8  9  1  0  0  0  0
  8 11  1  0  0  0  0
  8 13  1  0  0  0  0
  9 10  2  0  0  0  0
  9 17  1  0  0  0  0
 11 14  1  0  0  0  0
 11 15  1  0  0  0  0
 11 16  1  0  0  0  0
 17 18  1  0  0  0  0
 17 26  1  0  0  0  0
 18 19  1  0  0  0  0
 18 21  1  0  0  0  0
 18 27  1  0  0  0  0
 19 20  2  0  0  0  0
 19 32  1  0  0  0  0
 21 22  1  0  0  0  0
 21 28  1  0  0  0  0
 21 29  1  0  0  0  0
 22 23  1  0  0  0  0
 22 30  1  0  0  0  0
 22 31  1  0  0  0  0
 23 24  1  0  0  0  0
 23 25  2  0  0  0  0
 32 33  1  0  0  0  0
 32 37  1  0  0  0  0
 33 34  1  0  0  0  0
 33 36  1  0  0  0  0
 33 38  1  0  0  0  0
 34 35  2  0  0  0  0
 34 42  1  0  0  0  0
 36 39  1  0  0  0  0
 36 40  1  0  0  0  0
 36 41  1  0  0  0  0
 42 43  1  0  0  0  0
 42 44  1  0  0  0  0
 43 45  1  0  0  0  0
 43 46  1  0  0  0  0
 43 47  1  0  0  0  0
M  CHG  1  24  -1
M  END
$$$$

  -OEChem-05262216243D

 47 46  0     1  0  0  0  0  0999 V2000
    0.4481   -6.1896    0.9653 C   0  0  0  0  0  0  0  0  0  0  0  0
    1.6450   -6.3263    1.1710 O   0  0  0  0  0  0  0  0  0  0  0  0
   -0.5392   -7.1820    1.5521 C   0  0  0  0  0  0  0  0  0  0  0  0
   -1.0899   -7.6795    0.7501 H   0  0  0  0  0  0  0  0  0  0  0  0
   -0.0123   -7.9381    2.1407 H   0  0  0  0  0  0  0  0  0  0  0  0
   -1.2477   -6.6609    2.2009 H   0  0  0  0  0  0  0  0  0  0  0  0
   -0.0211   -5.1306    0.2192 N   0  0  0  0  0  0  0  0  0  0  0  0
    0.7878   -3.9725   -0.1825 C   0  0  2  0  0  0  0  0  0  0  0  0
    0.0250   -2.6511    0.0608 C   0  0  0  0  0  0  0  0  0  0  0  0
   -1.1239   -2.6795    0.4897 O   0  0  0  0  0  0  0  0  0  0  0  0
    1.1469   -4.1365   -1.6616 C   0  0  0  0  0  0  0  0  0  0  0  0
   -1.0297   -4.9801    0.2276 H   0  0  0  0  0  0  0  0  0  0  0  0
    1.7085   -3.9316    0.4087 H   0  0  0  0  0  0  0  0  0  0  0  0
    0.2436   -4.1155   -2.2815 H   0  0  0  0  0  0  0  0  0  0  0  0
    1.8113   -3.3321   -1.9895 H   0  0  0  0  0  0  0  0  0  0  0  0
    1.6581   -5.0902   -1.8240 H   0  0  0  0  0  0  0  0  0  0  0  0
    0.6792   -1.4318    0.0174 N   0  0  0  0  0  0  0  0  0  0  0  0
    0.0042   -0.1633   -0.3507 C   0  0  2  0  0  0  0  0  0  0  0  0
   -0.5965    0.5506    0.8818 C   0  0  0  0  0  0  0  0  0  0  0  0
   -1.3144    1.5377    0.7727 O   0  0  0  0  0  0  0  0  0  0  0  0
   -0.9634   -0.3109   -1.5490 C   0  0  0  0  0  0  0  0  0  0  0  0
   -0.1708   -0.6265   -2.8310 C   0  0  0  0  0  0  0  0  0  0  0  0
   -1.0897   -0.8067   -4.0366 C   0  0  0  0  0  0  0  0  0  0  0  0
   -1.5910    0.2214   -4.5533 O   0  5  0  0  0  0  0  0  0  0  0  0
   -1.2603   -1.9789   -4.4544 O   0  0  0  0  0  0  0  0  0  0  0  0
    1.6362   -1.5096   -0.3131 H   0  0  0  0  0  0  0  0  0  0  0  0
    0.7884    0.5209   -0.6867 H   0  0  0  0  0  0  0  0  0  0  0  0
   -1.5024    0.6306   -1.7024 H   0  0  0  0  0  0  0  0  0  0  0  0
   -1.7185   -1.0811   -1.3676 H   0  0  0  0  0  0  0  0  0  0  0  0
    0.5263    0.1897   -3.0418 H   0  0  0  0  0  0  0  0  0  0  0  0
    0.4172   -1.5365   -2.6976 H   0  0  0  0  0  0  0  0  0  0  0  0
   -0.2076    0.1625    2.1495 N   0  0  0  0  0  0  0  0  0  0  0  0
   -0.7840    0.6767    3.3956 C   0  0  2  0  0  0  0  0  0  0  0  0
    0.1468    0.4620    4.6078 C   0  0  0  0  0  0  0  0  0  0  0  0
    1.0588   -0.3580    4.5703 O   0  0  0  0  0  0  0  0  0  0  0  0
   -2.1264   -0.0266    3.6265 C   0  0  0  0  0  0  0  0  0  0  0  0
    0.3246   -0.7042    2.1999 H   0  0  0  0  0  0  0  0  0  0  0  0
   -0.9519    1.7542    3.2983 H   0  0  0  0  0  0  0  0  0  0  0  0
   -1.9817   -1.1091    3.7031 H   0  0  0  0  0  0  0  0  0  0  0  0
   -2.5958    0.3302    4.5476 H   0  0  0  0  0  0  0  0  0  0  0  0
   -2.8083    0.1729    2.7936 H   0  0  0  0  0  0  0  0  0  0  0  0
   -0.0478    1.1959    5.7647 N   0  0  0  0  0  0  0  0  0  0  0  0
    0.7775    1.0482    6.9561 C   0  0  0  0  0  0  0  0  0  0  0  0
   -0.8018    1.8765    5.7653 H   0  0  0  0  0  0  0  0  0  0  0  0
    0.7133    0.0248    7.3404 H   0  0  0  0  0  0  0  0  0  0  0  0
    1.8241    1.2747    6.7270 H   0  0  0  0  0  0  0  0  0  0  0  0
    0.4383    1.7334    7.7387 H   0  0  0  0  0  0  0  0  0  0  0  0
  1  2  2  0  0  0  0
  1  3  1  0  0  0  0
  1  7  1  0  0  0  0
  3  4  1  0  0  0  0
  3  5  1  0  0  0  0
  3  6  1  0  0  0  0
  7  8  1  0  0  0  0
  7 12  1  0  0  0  0
  8  9  1  0  0  0  0
  8 11  1  0  0  0  0
  8 13  1  0  0  0  0
  9 10  2  0  0  0  0
  9 17  1  0  0  0  0
 11 14  1  0  0  0  0
 11 15  1  0  0  0  0
 11 16  1  0  0  0  0
 17 18  1  0  0  0  0
 17 26  1  0  0  0  0
 18 19  1  0  0  0  0
 18 21  1  0  0  0  0
 18 27  1  0  0  0  0
 19 20  2  0  0  0  0
 19 32  1  0  0  0  0
 21 22  1  0  0  0  0
 21 28  1  0  0  0  0
 21 29  1  0  0  0  0
 22 23  1  0  0  0  0
 22 30  1  0  0  0  0
 22 31  1  0  0  0  0
 23 24  1  0  0  0  0
 23 25  2  0  0  0  0
 32 33  1  0  0  0  0
 32 37  1  0  0  0  0
 33 34  1  0  0  0  0
 33 36  1  0  0  0  0
 33 38  1  0  0  0  0
 34 35  2  0  0  0  0
 34 42  1  0  0  0  0
 36 39  1  0  0  0  0
 36 40  1  0  0  0  0
 36 41  1  0  0  0  0
 42 43  1  0  0  0  0
 42 44  1  0  0  0  0
 43 45  1  0  0  0  0
 43 46  1  0  0  0  0
 43 47  1  0  0  0  0
M  CHG  1  24  -1
M  END
$$$$

  -OEChem-05262216243D

 47 46  0     1  0  0  0  0  0999 V2000
    0.3937   -6.1519    1.0482 C   0  0  0  0  0  0  0  0  0  0  0  0
    1.5814   -6.2684    1.3117 O   0  0  0  0  0  0  0  0  0  0  0  0
   -0.6107   -7.1310    1.6272 C   0  0  0  0  0  0  0  0  0  0  0  0
   -1.1704   -7.6110    0.8207 H   0  0  0  0  0  0  0  0  0  0  0  0
   -0.0969   -7.9020    2.2077 H   0  0  0  0  0  0  0  0  0  0  0  0
   -1.3095   -6.6029    2.2809 H   0  0  0  0  0  0  0  0  0  0  0  0
   -0.0530   -5.1284    0.2416 N   0  0  0  0  0  0  0  0  0  0  0  0
    0.7595   -3.9738   -0.1629 C   0  0  2  0  0  0  0  0  0  0  0  0
    0.0071   -2.6485    0.0923 C   0  0  0  0  0  0  0  0  0  0  0  0
   -1.1474   -2.6738    0.5058 O   0  0  0  0  0  0  0  0  0  0  0  0
    1.0986   -4.1374   -1.6462 C   0  0  0  0  0  0  0  0  0  0  0  0
   -1.0621   -4.9846    0.2132 H   0  0  0  0  0  0  0  0  0  0  0  0
    1.6884   -3.9408    0.4151 H   0  0  0  0  0  0  0  0  0  0  0  0
    0.1903   -4.0830   -2.2571 H   0  0  0  0  0  0  0  0  0  0  0  0
    1.7854   -3.3517   -1.9729 H   0  0  0  0  0  0  0  0  0  0  0  0
    1.5781   -5.1053   -1.8211 H   0  0  0  0  0  0  0  0  0  0  0  0
    0.6680   -1.4325    0.0479 N   0  0  0  0  0  0  0  0  0  0  0  0
   -0.0048   -0.1687   -0.3370 C   0  0  2  0  0  0  0  0  0  0  0  0
   -0.6171    0.5507    0.8874 C   0  0  0  0  0  0  0  0  0  0  0  0
   -1.5205    1.3720    0.7816 O   0  0  0  0  0  0  0  0  0  0  0  0
   -0.9467   -0.3243   -1.5552 C   0  0  0  0  0  0  0  0  0  0  0  0
   -0.1259   -0.6391   -2.8199 C   0  0  0  0  0  0  0  0  0  0  0  0
   -1.0179   -0.8271   -4.0446 C   0  0  0  0  0  0  0  0  0  0  0  0
   -1.4762    0.2002   -4.6007 O   0  5  0  0  0  0  0  0  0  0  0  0
   -1.2058   -2.0044   -4.4405 O   0  0  0  0  0  0  0  0  0  0  0  0
    1.6229   -1.5182   -0.2864 H   0  0  0  0  0  0  0  0  0  0  0  0
    0.7830    0.5155   -0.6643 H   0  0  0  0  0  0  0  0  0  0  0  0
   -1.4866    0.6141   -1.7230 H   0  0  0  0  0  0  0  0  0  0  0  0
   -1.7020   -1.0971   -1.3862 H   0  0  0  0  0  0  0  0  0  0  0  0
    0.5713    0.1801   -3.0183 H   0  0  0  0  0  0  0  0  0  0  0  0
    0.4635   -1.5451   -2.6726 H   0  0  0  0  0  0  0  0  0  0  0  0
   -0.0232    0.3973    2.1262 N   0  0  0  0  0  0  0  0  0  0  0  0
   -0.5234    0.9819    3.3746 C   0  0  2  0  0  0  0  0  0  0  0  0
    0.5752    1.0923    4.4522 C   0  0  0  0  0  0  0  0  0  0  0  0
    1.6022    0.4248    4.3783 O   0  0  0  0  0  0  0  0  0  0  0  0
   -1.6773    0.1114    3.8850 C   0  0  0  0  0  0  0  0  0  0  0  0
    0.6959   -0.3194    2.1955 H   0  0  0  0  0  0  0  0  0  0  0  0
   -0.8931    1.9935    3.1771 H   0  0  0  0  0  0  0  0  0  0  0  0
   -1.3265   -0.9054    4.0894 H   0  0  0  0  0  0  0  0  0  0  0  0
   -2.0969    0.5285    4.8049 H   0  0  0  0  0  0  0  0  0  0  0  0
   -2.4746    0.0581    3.1365 H   0  0  0  0  0  0  0  0  0  0  0  0
    0.3997    1.9404    5.5312 N   0  0  0  0  0  0  0  0  0  0  0  0
    1.3729    2.0858    6.6056 C   0  0  0  0  0  0  0  0  0  0  0  0
   -0.4599    2.4806    5.5654 H   0  0  0  0  0  0  0  0  0  0  0  0
    1.4988    1.1372    7.1377 H   0  0  0  0  0  0  0  0  0  0  0  0
    2.3429    2.3981    6.2048 H   0  0  0  0  0  0  0  0  0  0  0  0
    1.0353    2.8422    7.3204 H   0  0  0  0  0  0  0  0  0  0  0  0
  1  2  2  0  0  0  0
  1  3  1  0  0  0  0
  1  7  1  0  0  0  0
  3  4  1  0  0  0  0
  3  5  1  0  0  0  0
  3  6  1  0  0  0  0
  7  8  1  0  0  0  0
  7 12  1  0  0  0  0
  8  9  1  0  0  0  0
  8 11  1  0  0  0  0
  8 13  1  0  0  0  0
  9 10  2  0  0  0  0
  9 17  1  0  0  0  0
 11 14  1  0  0  0  0
 11 15  1  0  0  0  0
 11 16  1  0  0  0  0
 17 18  1  0  0  0  0
 17 26  1  0  0  0  0
 18 19  1  0  0  0  0
 18 21  1  0  0  0  0
 18 27  1  0  0  0  0
 19 20  2  0  0  0  0
 19 32  1  0  0  0  0
 21 22  1  0  0  0  0
 21 28  1  0  0  0  0
 21 29  1  0  0  0  0
 22 23  1  0  0  0  0
 22 30  1  0  0  0  0
 22 31  1  0  0  0  0
 23 24  1  0  0  0  0
 23 25  2  0  0  0  0
 32 33  1  0  0  0  0
 32 37  1  0  0  0  0
 33 34  1  0  0  0  0
 33 36  1  0  0  0  0
 33 38  1  0  0  0  0
 34 35  2  0  0  0  0
 34 42  1  0  0  0  0
 36 39  1  0  0  0  0
 36 40  1  0  0  0  0
 36 41  1  0  0  0  0
 42 43  1  0  0  0  0
 42 44  1  0  0  0  0
 43 45  1  0  0  0  0
 43 46  1  0  0  0  0
 43 47  1  0  0  0  0
M  CHG  1  24  -1
M  END
$$$$

  -OEChem-05262216243D

 47 46  0     1  0  0  0  0  0999 V2000
    0.3745   -6.0002    1.2482 C   0  0  0  0  0  0  0  0  0  0  0  0
    1.5361   -6.0434    1.6260 O   0  0  0  0  0  0  0  0  0  0  0  0
   -0.6502   -6.9424    1.8520 C   0  0  0  0  0  0  0  0  0  0  0  0
   -1.0517   -7.6017    1.0785 H   0  0  0  0  0  0  0  0  0  0  0  0
   -0.1885   -7.5524    2.6332 H   0  0  0  0  0  0  0  0  0  0  0  0
   -1.4693   -6.3675    2.2916 H   0  0  0  0  0  0  0  0  0  0  0  0
   -0.0257   -5.0960    0.2887 N   0  0  0  0  0  0  0  0  0  0  0  0
    0.7735   -3.9382   -0.1348 C   0  0  2  0  0  0  0  0  0  0  0  0
    0.0028   -2.6178    0.0883 C   0  0  0  0  0  0  0  0  0  0  0  0
   -1.1586   -2.6514    0.4799 O   0  0  0  0  0  0  0  0  0  0  0  0
    1.1209   -4.1283   -1.6127 C   0  0  0  0  0  0  0  0  0  0  0  0
   -1.0335   -4.9892    0.1769 H   0  0  0  0  0  0  0  0  0  0  0  0
    1.7014   -3.8784    0.4428 H   0  0  0  0  0  0  0  0  0  0  0  0
    0.2138   -4.1059   -2.2275 H   0  0  0  0  0  0  0  0  0  0  0  0
    1.7924   -3.3356   -1.9543 H   0  0  0  0  0  0  0  0  0  0  0  0
    1.6212   -5.0899   -1.7644 H   0  0  0  0  0  0  0  0  0  0  0  0
    0.6552   -1.3979    0.0290 N   0  0  0  0  0  0  0  0  0  0  0  0
   -0.0176   -0.1400   -0.3711 C   0  0  2  0  0  0  0  0  0  0  0  0
   -0.6273    0.5806    0.8530 C   0  0  0  0  0  0  0  0  0  0  0  0
   -1.6842    1.1988    0.8012 O   0  0  0  0  0  0  0  0  0  0  0  0
   -0.9562   -0.3082   -1.5904 C   0  0  0  0  0  0  0  0  0  0  0  0
   -0.1285   -0.6349   -2.8480 C   0  0  0  0  0  0  0  0  0  0  0  0
   -1.0118   -0.8364   -4.0762 C   0  0  0  0  0  0  0  0  0  0  0  0
   -1.4706    0.1853   -4.6428 O   0  5  0  0  0  0  0  0  0  0  0  0
   -1.1869   -2.0172   -4.4676 O   0  0  0  0  0  0  0  0  0  0  0  0
    1.6132   -1.4839   -0.2955 H   0  0  0  0  0  0  0  0  0  0  0  0
    0.7676    0.5438   -0.7054 H   0  0  0  0  0  0  0  0  0  0  0  0
   -1.4971    0.6278   -1.7683 H   0  0  0  0  0  0  0  0  0  0  0  0
   -1.7102   -1.0814   -1.4160 H   0  0  0  0  0  0  0  0  0  0  0  0
    0.5693    0.1826   -3.0509 H   0  0  0  0  0  0  0  0  0  0  0  0
    0.4608   -1.5392   -2.6879 H   0  0  0  0  0  0  0  0  0  0  0  0
    0.1297    0.6899    2.0049 N   0  0  0  0  0  0  0  0  0  0  0  0
   -0.3367    1.2961    3.2563 C   0  0  2  0  0  0  0  0  0  0  0  0
    0.8300    1.6821    4.1889 C   0  0  0  0  0  0  0  0  0  0  0  0
    1.9414    1.1807    4.0494 O   0  0  0  0  0  0  0  0  0  0  0  0
   -1.2658    0.3022    3.9633 C   0  0  0  0  0  0  0  0  0  0  0  0
    0.9901    0.1482    2.0381 H   0  0  0  0  0  0  0  0  0  0  0  0
   -0.8933    2.2106    3.0266 H   0  0  0  0  0  0  0  0  0  0  0  0
   -0.7306   -0.6257    4.1892 H   0  0  0  0  0  0  0  0  0  0  0  0
   -1.6425    0.7261    4.8988 H   0  0  0  0  0  0  0  0  0  0  0  0
   -2.1231    0.0609    3.3265 H   0  0  0  0  0  0  0  0  0  0  0  0
    0.6242    2.5942    5.2086 N   0  0  0  0  0  0  0  0  0  0  0  0
    1.6647    3.0073    6.1407 C   0  0  0  0  0  0  0  0  0  0  0  0
   -0.3055    2.9936    5.2970 H   0  0  0  0  0  0  0  0  0  0  0  0
    2.0117    2.1524    6.7302 H   0  0  0  0  0  0  0  0  0  0  0  0
    2.5165    3.4336    5.6002 H   0  0  0  0  0  0  0  0  0  0  0  0
    1.2764    3.7662    6.8267 H   0  0  0  0  0  0  0  0  0  0  0  0
  1  2  2  0  0  0  0
  1  3  1  0  0  0  0
  1  7  1  0  0  0  0
  3  4  1  0  0  0  0
  3  5  1  0  0  0  0
  3  6  1  0  0  0  0
  7  8  1  0  0  0  0
  7 12  1  0  0  0  0
  8  9  1  0  0  0  0
  8 11  1  0  0  0  0
  8 13  1  0  0  0  0
  9 10  2  0  0  0  0
  9 17  1  0  0  0  0
 11 14  1  0  0  0  0
 11 15  1  0  0  0  0
 11 16  1  0  0  0  0
 17 18  1  0  0  0  0
 17 26  1  0  0  0  0
 18 19  1  0  0  0  0
 18 21  1  0  0  0  0
 18 27  1  0  0  0  0
 19 20  2  0  0  0  0
 19 32  1  0  0  0  0
 21 22  1  0  0  0  0
 21 28  1  0  0  0  0
 21 29  1  0  0  0  0
 22 23  1  0  0  0  0
 22 30  1  0  0  0  0
 22 31  1  0  0  0  0
 23 24  1  0  0  0  0
 23 25  2  0  0  0  0
 32 33  1  0  0  0  0
 32 37  1  0  0  0  0
 33 34  1  0  0  0  0
 33 36  1  0  0  0  0
 33 38  1  0  0  0  0
 34 35  2  0  0  0  0
 34 42  1  0  0  0  0
 36 39  1  0  0  0  0
 36 40  1  0  0  0  0
 36 41  1  0  0  0  0
 42 43  1  0  0  0  0
 42 44  1  0  0  0  0
 43 45  1  0  0  0  0
 43 46  1  0  0  0  0
 43 47  1  0  0  0  0
M  CHG  1  24  -1
M  END
$$$$

  -OEChem-05262216243D

 47 46  0     1  0  0  0  0  0999 V2000
    0.3786   -6.0080    1.2830 C   0  0  0  0  0  0  0  0  0  0  0  0
    1.5445   -6.0452    1.6484 O   0  0  0  0  0  0  0  0  0  0  0  0
   -0.6349   -6.9556    1.8984 C   0  0  0  0  0  0  0  0  0  0  0  0
   -1.0700   -7.5905    1.1228 H   0  0  0  0  0  0  0  0  0  0  0  0
   -0.1534   -7.5910    2.6469 H   0  0  0  0  0  0  0  0  0  0  0  0
   -1.4321   -6.3850    2.3813 H   0  0  0  0  0  0  0  0  0  0  0  0
   -0.0338   -5.1054    0.3268 N   0  0  0  0  0  0  0  0  0  0  0  0
    0.7592   -3.9473   -0.1085 C   0  0  2  0  0  0  0  0  0  0  0  0
   -0.0243   -2.6312    0.0938 C   0  0  0  0  0  0  0  0  0  0  0  0
   -1.1992   -2.6746    0.4405 O   0  0  0  0  0  0  0  0  0  0  0  0
    1.1187   -4.1493   -1.5827 C   0  0  0  0  0  0  0  0  0  0  0  0
   -1.0430   -5.0000    0.2240 H   0  0  0  0  0  0  0  0  0  0  0  0
    1.6823   -3.8730    0.4750 H   0  0  0  0  0  0  0  0  0  0  0  0
    0.2164   -4.1401   -2.2045 H   0  0  0  0  0  0  0  0  0  0  0  0
    1.7858   -3.3545   -1.9285 H   0  0  0  0  0  0  0  0  0  0  0  0
    1.6279   -5.1081   -1.7211 H   0  0  0  0  0  0  0  0  0  0  0  0
    0.6289   -1.4107    0.0588 N   0  0  0  0  0  0  0  0  0  0  0  0
   -0.0287   -0.1455   -0.3388 C   0  0  2  0  0  0  0  0  0  0  0  0
   -0.6592    0.5696    0.8782 C   0  0  0  0  0  0  0  0  0  0  0  0
   -1.8159    0.9736    0.8870 O   0  0  0  0  0  0  0  0  0  0  0  0
   -0.9394   -0.2907   -1.5810 C   0  0  0  0  0  0  0  0  0  0  0  0
   -0.0812   -0.6028   -2.8220 C   0  0  0  0  0  0  0  0  0  0  0  0
   -0.9308   -0.7826   -4.0773 C   0  0  0  0  0  0  0  0  0  0  0  0
   -1.3928    0.2490   -4.6233 O   0  5  0  0  0  0  0  0  0  0  0  0
   -1.0714   -1.9526   -4.5124 O   0  0  0  0  0  0  0  0  0  0  0  0
    1.5962   -1.4949   -0.2362 H   0  0  0  0  0  0  0  0  0  0  0  0
    0.7684    0.5358   -0.6507 H   0  0  0  0  0  0  0  0  0  0  0  0
   -1.4729    0.6499   -1.7562 H   0  0  0  0  0  0  0  0  0  0  0  0
   -1.6998   -1.0635   -1.4363 H   0  0  0  0  0  0  0  0  0  0  0  0
    0.6249    0.2148   -2.9951 H   0  0  0  0  0  0  0  0  0  0  0  0
    0.4997   -1.5125   -2.6583 H   0  0  0  0  0  0  0  0  0  0  0  0
    0.1616    0.9451    1.9264 N   0  0  0  0  0  0  0  0  0  0  0  0
   -0.2834    1.6594    3.1283 C   0  0  2  0  0  0  0  0  0  0  0  0
    0.8845    2.3631    3.8501 C   0  0  0  0  0  0  0  0  0  0  0  0
    2.0453    2.0215    3.6452 O   0  0  0  0  0  0  0  0  0  0  0  0
   -0.9561    0.6566    4.0730 C   0  0  0  0  0  0  0  0  0  0  0  0
    1.1255    0.6209    1.9026 H   0  0  0  0  0  0  0  0  0  0  0  0
   -1.0077    2.4295    2.8425 H   0  0  0  0  0  0  0  0  0  0  0  0
   -0.2503   -0.1287    4.3621 H   0  0  0  0  0  0  0  0  0  0  0  0
   -1.3095    1.1597    4.9777 H   0  0  0  0  0  0  0  0  0  0  0  0
   -1.8154    0.1873    3.5830 H   0  0  0  0  0  0  0  0  0  0  0  0
    0.6296    3.3800    4.7528 N   0  0  0  0  0  0  0  0  0  0  0  0
    1.6742    4.0911    5.4783 C   0  0  0  0  0  0  0  0  0  0  0  0
   -0.3395    3.6543    4.8861 H   0  0  0  0  0  0  0  0  0  0  0  0
    2.2442    3.3979    6.1059 H   0  0  0  0  0  0  0  0  0  0  0  0
    2.3608    4.5812    4.7800 H   0  0  0  0  0  0  0  0  0  0  0  0
    1.2319    4.8569    6.1227 H   0  0  0  0  0  0  0  0  0  0  0  0
  1  2  2  0  0  0  0
  1  3  1  0  0  0  0
  1  7  1  0  0  0  0
  3  4  1  0  0  0  0
  3  5  1  0  0  0  0
  3  6  1  0  0  0  0
  7  8  1  0  0  0  0
  7 12  1  0  0  0  0
  8  9  1  0  0  0  0
  8 11  1  0  0  0  0
  8 13  1  0  0  0  0
  9 10  2  0  0  0  0
  9 17  1  0  0  0  0
 11 14  1  0  0  0  0
 11 15  1  0  0  0  0
 11 16  1  0  0  0  0
 17 18  1  0  0  0  0
 17 26  1  0  0  0  0
 18 19  1  0  0  0  0
 18 21  1  0  0  0  0
 18 27  1  0  0  0  0
 19 20  2  0  0  0  0
 19 32  1  0  0  0  0
 21 22  1  0  0  0  0
 21 28  1  0  0  0  0
 21 29  1  0  0  0  0
 22 23  1  0  0  0  0
 22 30  1  0  0  0  0
 22 31  1  0  0  0  0
 23 24  1  0  0  0  0
 23 25  2  0  0  0  0
 32 33  1  0  0  0  0
 32 37  1  0  0  0  0
 33 34  1  0  0  0  0
 33 36  1  0  0  0  0
 33 38  1  0  0  0  0
 34 35  2  0  0  0  0
 34 42  1  0  0  0  0
 36 39  1  0  0  0  0
 36 40  1  0  0  0  0
 36 41  1  0  0  0  0
 42 43  1  0  0  0  0
 42 44  1  0  0  0  0
 43 45  1  0  0  0  0
 43 46  1  0  0  0  0
 43 47  1  0  0  0  0
M  CHG  1  24  -1
M  END
$$$$

  -OEChem-05262216243D

 47 46  0     1  0  0  0  0  0999 V2000
    0.3923   -6.0115    1.3180 C   0  0  0  0  0  0  0  0  0  0  0  0
    1.5569   -6.0352    1.6889 O   0  0  0  0  0  0  0  0  0  0  0  0
   -0.6148   -6.9659    1.9330 C   0  0  0  0  0  0  0  0  0  0  0  0
   -1.0610   -7.5893    1.1543 H   0  0  0  0  0  0  0  0  0  0  0  0
   -0.1246   -7.6128    2.6656 H   0  0  0  0  0  0  0  0  0  0  0  0
   -1.4045   -6.4003    2.4342 H   0  0  0  0  0  0  0  0  0  0  0  0
   -0.0246   -5.1163    0.3569 N   0  0  0  0  0  0  0  0  0  0  0  0
    0.7601   -3.9544   -0.0815 C   0  0  2  0  0  0  0  0  0  0  0  0
   -0.0400   -2.6456    0.0971 C   0  0  0  0  0  0  0  0  0  0  0  0
   -1.2292   -2.7020    0.3865 O   0  0  0  0  0  0  0  0  0  0  0  0
    1.1365   -4.1669   -1.5498 C   0  0  0  0  0  0  0  0  0  0  0  0
   -1.0342   -5.0180    0.2507 H   0  0  0  0  0  0  0  0  0  0  0  0
    1.6758   -3.8633    0.5111 H   0  0  0  0  0  0  0  0  0  0  0  0
    0.2396   -4.1810   -2.1791 H   0  0  0  0  0  0  0  0  0  0  0  0
    1.7916   -3.3641   -1.8994 H   0  0  0  0  0  0  0  0  0  0  0  0
    1.6644   -5.1177   -1.6721 H   0  0  0  0  0  0  0  0  0  0  0  0
    0.6136   -1.4251    0.0847 N   0  0  0  0  0  0  0  0  0  0  0  0
   -0.0218   -0.1472   -0.3040 C   0  0  2  0  0  0  0  0  0  0  0  0
   -0.6646    0.5660    0.9073 C   0  0  0  0  0  0  0  0  0  0  0  0
   -1.8717    0.7465    1.0111 O   0  0  0  0  0  0  0  0  0  0  0  0
   -0.9226   -0.2554   -1.5560 C   0  0  0  0  0  0  0  0  0  0  0  0
   -0.0608   -0.5614   -2.7965 C   0  0  0  0  0  0  0  0  0  0  0  0
   -0.9026   -0.7039   -4.0621 C   0  0  0  0  0  0  0  0  0  0  0  0
   -1.4190    0.3365   -4.5388 O   0  5  0  0  0  0  0  0  0  0  0  0
   -0.9756   -1.8459   -4.5800 O   0  0  0  0  0  0  0  0  0  0  0  0
    1.5937   -1.5066   -0.1637 H   0  0  0  0  0  0  0  0  0  0  0  0
    0.7887    0.5239   -0.6016 H   0  0  0  0  0  0  0  0  0  0  0  0
   -1.4391    0.6976   -1.7157 H   0  0  0  0  0  0  0  0  0  0  0  0
   -1.6971   -1.0177   -1.4300 H   0  0  0  0  0  0  0  0  0  0  0  0
    0.6617    0.2453   -2.9500 H   0  0  0  0  0  0  0  0  0  0  0  0
    0.5008   -1.4854   -2.6430 H   0  0  0  0  0  0  0  0  0  0  0  0
    0.1586    1.1993    1.8216 N   0  0  0  0  0  0  0  0  0  0  0  0
   -0.3083    2.0050    2.9556 C   0  0  2  0  0  0  0  0  0  0  0  0
    0.7708    2.9930    3.4439 C   0  0  0  0  0  0  0  0  0  0  0  0
    1.9526    2.8172    3.1635 O   0  0  0  0  0  0  0  0  0  0  0  0
   -0.7140    1.0619    4.0937 C   0  0  0  0  0  0  0  0  0  0  0  0
    1.1639    1.1068    1.6953 H   0  0  0  0  0  0  0  0  0  0  0  0
   -1.1786    2.5933    2.6463 H   0  0  0  0  0  0  0  0  0  0  0  0
    0.1418    0.4587    4.4130 H   0  0  0  0  0  0  0  0  0  0  0  0
   -1.0809    1.6321    4.9520 H   0  0  0  0  0  0  0  0  0  0  0  0
   -1.5107    0.3873    3.7641 H   0  0  0  0  0  0  0  0  0  0  0  0
    0.4137    4.0836    4.2165 N   0  0  0  0  0  0  0  0  0  0  0  0
    1.3694    5.0665    4.7102 C   0  0  0  0  0  0  0  0  0  0  0  0
   -0.5758    4.2197    4.4024 H   0  0  0  0  0  0  0  0  0  0  0  0
    2.1139    4.5862    5.3536 H   0  0  0  0  0  0  0  0  0  0  0  0
    1.8852    5.5535    3.8760 H   0  0  0  0  0  0  0  0  0  0  0  0
    0.8535    5.8351    5.2935 H   0  0  0  0  0  0  0  0  0  0  0  0
  1  2  2  0  0  0  0
  1  3  1  0  0  0  0
  1  7  1  0  0  0  0
  3  4  1  0  0  0  0
  3  5  1  0  0  0  0
  3  6  1  0  0  0  0
  7  8  1  0  0  0  0
  7 12  1  0  0  0  0
  8  9  1  0  0  0  0
  8 11  1  0  0  0  0
  8 13  1  0  0  0  0
  9 10  2  0  0  0  0
  9 17  1  0  0  0  0
 11 14  1  0  0  0  0
 11 15  1  0  0  0  0
 11 16  1  0  0  0  0
 17 18  1  0  0  0  0
 17 26  1  0  0  0  0
 18 19  1  0  0  0  0
 18 21  1  0  0  0  0
 18 27  1  0  0  0  0
 19 20  2  0  0  0  0
 19 32  1  0  0  0  0
 21 22  1  0  0  0  0
 21 28  1  0  0  0  0
 21 29  1  0  0  0  0
 22 23  1  0  0  0  0
 22 30  1  0  0  0  0
 22 31  1  0  0  0  0
 23 24  1  0  0  0  0
 23 25  2  0  0  0  0
 32 33  1  0  0  0  0
 32 37  1  0  0  0  0
 33 34  1  0  0  0  0
 33 36  1  0  0  0  0
 33 38  1  0  0  0  0
 34 35  2  0  0  0  0
 34 42  1  0  0  0  0
 36 39  1  0  0  0  0
 36 40  1  0  0  0  0
 36 41  1  0  0  0  0
 42 43  1  0  0  0  0
 42 44  1  0  0  0  0
 43 45  1  0  0  0  0
 43 46  1  0  0  0  0
 43 47  1  0  0  0  0
M  CHG  1  24  -1
M  END
$$$$

  -OEChem-05262216243D

 47 46  0     1  0  0  0  0  0999 V2000
    0.3925   -6.0304    1.3161 C   0  0  0  0  0  0  0  0  0  0  0  0
    1.5504   -6.0546    1.7074 O   0  0  0  0  0  0  0  0  0  0  0  0
   -0.6189   -7.0046    1.8919 C   0  0  0  0  0  0  0  0  0  0  0  0
   -1.0355   -7.6237    1.0937 H   0  0  0  0  0  0  0  0  0  0  0  0
   -0.1414   -7.6542    2.6306 H   0  0  0  0  0  0  0  0  0  0  0  0
   -1.4296   -6.4555    2.3776 H   0  0  0  0  0  0  0  0  0  0  0  0
   -0.0122   -5.1216    0.3627 N   0  0  0  0  0  0  0  0  0  0  0  0
    0.7731   -3.9492   -0.0452 C   0  0  2  0  0  0  0  0  0  0  0  0
   -0.0385   -2.6474    0.1326 C   0  0  0  0  0  0  0  0  0  0  0  0
   -1.2351   -2.7179    0.3840 O   0  0  0  0  0  0  0  0  0  0  0  0
    1.1766   -4.1384   -1.5098 C   0  0  0  0  0  0  0  0  0  0  0  0
   -1.0201   -5.0283    0.2370 H   0  0  0  0  0  0  0  0  0  0  0  0
    1.6770   -3.8600    0.5654 H   0  0  0  0  0  0  0  0  0  0  0  0
    0.2894   -4.1625   -2.1524 H   0  0  0  0  0  0  0  0  0  0  0  0
    1.8213   -3.3194   -1.8417 H   0  0  0  0  0  0  0  0  0  0  0  0
    1.7237   -5.0779   -1.6338 H   0  0  0  0  0  0  0  0  0  0  0  0
    0.6122   -1.4247    0.1273 N   0  0  0  0  0  0  0  0  0  0  0  0
   -0.0120   -0.1386   -0.2529 C   0  0  2  0  0  0  0  0  0  0  0  0
   -0.6572    0.5855    0.9513 C   0  0  0  0  0  0  0  0  0  0  0  0
   -1.8568    0.5367    1.1920 O   0  0  0  0  0  0  0  0  0  0  0  0
   -0.9180   -0.2299   -1.5010 C   0  0  0  0  0  0  0  0  0  0  0  0
   -0.0656   -0.5379   -2.7475 C   0  0  0  0  0  0  0  0  0  0  0  0
   -0.9144   -0.6638   -4.0107 C   0  0  0  0  0  0  0  0  0  0  0  0
   -1.4903    0.3704   -4.4299 O   0  5  0  0  0  0  0  0  0  0  0  0
   -0.9307   -1.7800   -4.5867 O   0  0  0  0  0  0  0  0  0  0  0  0
    1.5986   -1.5040   -0.0950 H   0  0  0  0  0  0  0  0  0  0  0  0
    0.8075    0.5203   -0.5527 H   0  0  0  0  0  0  0  0  0  0  0  0
   -1.4270    0.7285   -1.6513 H   0  0  0  0  0  0  0  0  0  0  0  0
   -1.6990   -0.9858   -1.3751 H   0  0  0  0  0  0  0  0  0  0  0  0
    0.6653    0.2611   -2.8999 H   0  0  0  0  0  0  0  0  0  0  0  0
    0.4850   -1.4695   -2.6005 H   0  0  0  0  0  0  0  0  0  0  0  0
    0.1079    1.4690    1.6929 N   0  0  0  0  0  0  0  0  0  0  0  0
   -0.4051    2.3236    2.7698 C   0  0  2  0  0  0  0  0  0  0  0  0
    0.4990    3.5512    3.0037 C   0  0  0  0  0  0  0  0  0  0  0  0
    1.6732    3.5370    2.6469 O   0  0  0  0  0  0  0  0  0  0  0  0
   -0.5083    1.4919    4.0528 C   0  0  0  0  0  0  0  0  0  0  0  0
    1.0862    1.5811    1.4360 H   0  0  0  0  0  0  0  0  0  0  0  0
   -1.3999    2.6921    2.4969 H   0  0  0  0  0  0  0  0  0  0  0  0
    0.4753    1.1056    4.3380 H   0  0  0  0  0  0  0  0  0  0  0  0
   -0.8967    2.1012    4.8741 H   0  0  0  0  0  0  0  0  0  0  0  0
   -1.1846    0.6441    3.9037 H   0  0  0  0  0  0  0  0  0  0  0  0
   -0.0066    4.6784    3.6261 N   0  0  0  0  0  0  0  0  0  0  0  0
    0.7703    5.8921    3.8419 C   0  0  0  0  0  0  0  0  0  0  0  0
   -0.9956    4.6777    3.8590 H   0  0  0  0  0  0  0  0  0  0  0  0
    1.6499    5.6798    4.4586 H   0  0  0  0  0  0  0  0  0  0  0  0
    1.1022    6.3099    2.8857 H   0  0  0  0  0  0  0  0  0  0  0  0
    0.1620    6.6430    4.3551 H   0  0  0  0  0  0  0  0  0  0  0  0
  1  2  2  0  0  0  0
  1  3  1  0  0  0  0
  1  7  1  0  0  0  0
  3  4  1  0  0  0  0
  3  5  1  0  0  0  0
  3  6  1  0  0  0  0
  7  8  1  0  0  0  0
  7 12  1  0  0  0  0
  8  9  1  0  0  0  0
  8 11  1  0  0  0  0
  8 13  1  0  0  0  0
  9 10  2  0  0  0  0
  9 17  1  0  0  0  0
 11 14  1  0  0  0  0
 11 15  1  0  0  0  0
 11 16  1  0  0  0  0
 17 18  1  0  0  0  0
 17 26  1  0  0  0  0
 18 19  1  0  0  0  0
 18 21  1  0  0  0  0
 18 27  1  0  0  0  0
 19 20  2  0  0  0  0
 19 32  1  0  0  0  0
 21 22  1  0  0  0  0
 21 28  1  0  0  0  0
 21 29  1  0  0  0  0
 22 23  1  0  0  0  0
 22 30  1  0  0  0  0
 22 31  1  0  0  0  0
 23 24  1  0  0  0  0
 23 25  2  0  0  0  0
 32 33  1  0  0  0  0
 32 37  1  0  0  0  0
 33 34  1  0  0  0  0
 33 36  1  0  0  0  0
 33 38  1  0  0  0  0
 34 35  2  0  0  0  0
 34 42  1  0  0  0  0
 36 39  1  0  0  0  0
 36 40  1  0  0  0  0
 36 41  1  0  0  0  0
 42 43  1  0  0  0  0
 42 44  1  0  0  0  0
 43 45  1  0  0  0  0
 43 46  1  0  0  0  0
 43 47  1  0  0  0  0
M  CHG  1  24  -1
M  END
$$$$

  -OEChem-05262216243D

 47 46  0     1  0  0  0  0  0999 V2000
    0.3936   -6.0286    1.3456 C   0  0  0  0  0  0  0  0  0  0  0  0
    1.5572   -6.0673    1.7189 O   0  0  0  0  0  0  0  0  0  0  0  0
   -0.6206   -6.9920    1.9338 C   0  0  0  0  0  0  0  0  0  0  0  0
   -1.0731   -7.5886    1.1379 H   0  0  0  0  0  0  0  0  0  0  0  0
   -0.1357   -7.6638    2.6474 H   0  0  0  0  0  0  0  0  0  0  0  0
   -1.4049   -6.4340    2.4513 H   0  0  0  0  0  0  0  0  0  0  0  0
   -0.0167   -5.1092    0.4051 N   0  0  0  0  0  0  0  0  0  0  0  0
    0.7733   -3.9424   -0.0086 C   0  0  2  0  0  0  0  0  0  0  0  0
   -0.0472   -2.6409    0.1245 C   0  0  0  0  0  0  0  0  0  0  0  0
   -1.2555   -2.7189    0.3063 O   0  0  0  0  0  0  0  0  0  0  0  0
    1.2099   -4.1570   -1.4601 C   0  0  0  0  0  0  0  0  0  0  0  0
   -1.0254   -5.0080    0.2890 H   0  0  0  0  0  0  0  0  0  0  0  0
    1.6615   -3.8386    0.6223 H   0  0  0  0  0  0  0  0  0  0  0  0
    0.3364   -4.2132   -2.1190 H   0  0  0  0  0  0  0  0  0  0  0  0
    1.8440   -3.3320   -1.7978 H   0  0  0  0  0  0  0  0  0  0  0  0
    1.7769   -5.0885   -1.5521 H   0  0  0  0  0  0  0  0  0  0  0  0
    0.6063   -1.4189    0.1219 N   0  0  0  0  0  0  0  0  0  0  0  0
    0.0002   -0.1213   -0.2485 C   0  0  2  0  0  0  0  0  0  0  0  0
   -0.6388    0.6210    0.9490 C   0  0  0  0  0  0  0  0  0  0  0  0
   -1.7429    0.3367    1.3943 O   0  0  0  0  0  0  0  0  0  0  0  0
   -0.9161   -0.1837   -1.4893 C   0  0  0  0  0  0  0  0  0  0  0  0
   -0.0828   -0.4968   -2.7475 C   0  0  0  0  0  0  0  0  0  0  0  0
   -0.9497   -0.5927   -4.0010 C   0  0  0  0  0  0  0  0  0  0  0  0
   -1.5453    0.4481   -4.3742 O   0  5  0  0  0  0  0  0  0  0  0  0
   -0.9599   -1.6870   -4.6170 O   0  0  0  0  0  0  0  0  0  0  0  0
    1.6017   -1.4977   -0.0541 H   0  0  0  0  0  0  0  0  0  0  0  0
    0.8335    0.5192   -0.5498 H   0  0  0  0  0  0  0  0  0  0  0  0
   -1.4062    0.7866   -1.6264 H   0  0  0  0  0  0  0  0  0  0  0  0
   -1.7115   -0.9239   -1.3632 H   0  0  0  0  0  0  0  0  0  0  0  0
    0.6632    0.2880   -2.9010 H   0  0  0  0  0  0  0  0  0  0  0  0
    0.4492   -1.4422   -2.6145 H   0  0  0  0  0  0  0  0  0  0  0  0
    0.0102    1.7143    1.4978 N   0  0  0  0  0  0  0  0  0  0  0  0
   -0.5549    2.5811    2.5392 C   0  0  2  0  0  0  0  0  0  0  0  0
    0.0556    3.9970    2.5023 C   0  0  0  0  0  0  0  0  0  0  0  0
    1.1492    4.1894    1.9801 O   0  0  0  0  0  0  0  0  0  0  0  0
   -0.3044    1.9353    3.9062 C   0  0  0  0  0  0  0  0  0  0  0  0
    0.8725    2.0249    1.0547 H   0  0  0  0  0  0  0  0  0  0  0  0
   -1.6337    2.6830    2.3795 H   0  0  0  0  0  0  0  0  0  0  0  0
    0.7700    1.8305    4.0876 H   0  0  0  0  0  0  0  0  0  0  0  0
   -0.7361    2.5469    4.7040 H   0  0  0  0  0  0  0  0  0  0  0  0
   -0.7631    0.9421    3.9481 H   0  0  0  0  0  0  0  0  0  0  0  0
   -0.6185    5.0606    3.0752 N   0  0  0  0  0  0  0  0  0  0  0  0
   -0.1187    6.4292    3.0576 C   0  0  0  0  0  0  0  0  0  0  0  0
   -1.5453    4.8787    3.4495 H   0  0  0  0  0  0  0  0  0  0  0  0
    0.8530    6.4885    3.5589 H   0  0  0  0  0  0  0  0  0  0  0  0
   -0.0070    6.7834    2.0274 H   0  0  0  0  0  0  0  0  0  0  0  0
   -0.8161    7.0923    3.5782 H   0  0  0  0  0  0  0  0  0  0  0  0
  1  2  2  0  0  0  0
  1  3  1  0  0  0  0
  1  7  1  0  0  0  0
  3  4  1  0  0  0  0
  3  5  1  0  0  0  0
  3  6  1  0  0  0  0
  7  8  1  0  0  0  0
  7 12  1  0  0  0  0
  8  9  1  0  0  0  0
  8 11  1  0  0  0  0
  8 13  1  0  0  0  0
  9 10  2  0  0  0  0
  9 17  1  0  0  0  0
 11 14  1  0  0  0  0
 11 15  1  0  0  0  0
 11 16  1  0  0  0  0
 17 18  1  0  0  0  0
 17 26  1  0  0  0  0
 18 19  1  0  0  0  0
 18 21  1  0  0  0  0
 18 27  1  0  0  0  0
 19 20  2  0  0  0  0
 19 32  1  0  0  0  0
 21 22  1  0  0  0  0
 21 28  1  0  0  0  0
 21 29  1  0  0  0  0
 22 23  1  0  0  0  0
 22 30  1  0  0  0  0
 22 31  1  0  0  0  0
 23 24  1  0  0  0  0
 23 25  2  0  0  0  0
 32 33  1  0  0  0  0
 32 37  1  0  0  0  0
 33 34  1  0  0  0  0
 33 36  1  0  0  0  0
 33 38  1  0  0  0  0
 34 35  2  0  0  0  0
 34 42  1  0  0  0  0
 36 39  1  0  0  0  0
 36 40  1  0  0  0  0
 36 41  1  0  0  0  0
 42 43  1  0  0  0  0
 42 44  1  0  0  0  0
 43 45  1  0  0  0  0
 43 46  1  0  0  0  0
 43 47  1  0  0  0  0
M  CHG  1  24  -1
M  END
$$$$

  -OEChem-05262216243D

 47 46  0     1  0  0  0  0  0999 V2000
    0.3512   -6.0467    1.3591 C   0  0  0  0  0  0  0  0  0  0  0  0
    1.5167   -6.1182    1.7209 O   0  0  0  0  0  0  0  0  0  0  0  0
   -0.6711   -7.0298    1.8986 C   0  0  0  0  0  0  0  0  0  0  0  0
   -1.1564   -7.5543    1.0717 H   0  0  0  0  0  0  0  0  0  0  0  0
   -0.1855   -7.7647    2.5468 H   0  0  0  0  0  0  0  0  0  0  0  0
   -1.4303   -6.4957    2.4757 H   0  0  0  0  0  0  0  0  0  0  0  0
   -0.0517   -5.0740    0.4712 N   0  0  0  0  0  0  0  0  0  0  0  0
    0.7614   -3.9149    0.0837 C   0  0  2  0  0  0  0  0  0  0  0  0
   -0.0666   -2.6126    0.1424 C   0  0  0  0  0  0  0  0  0  0  0  0
   -1.2838   -2.6949    0.2516 O   0  0  0  0  0  0  0  0  0  0  0  0
    1.2821   -4.1561   -1.3359 C   0  0  0  0  0  0  0  0  0  0  0  0
   -1.0582   -4.9553    0.3509 H   0  0  0  0  0  0  0  0  0  0  0  0
    1.6086   -3.7989    0.7671 H   0  0  0  0  0  0  0  0  0  0  0  0
    0.4474   -4.2376   -2.0408 H   0  0  0  0  0  0  0  0  0  0  0  0
    1.9251   -3.3313   -1.6568 H   0  0  0  0  0  0  0  0  0  0  0  0
    1.8631   -5.0827   -1.3738 H   0  0  0  0  0  0  0  0  0  0  0  0
    0.5869   -1.3899    0.1205 N   0  0  0  0  0  0  0  0  0  0  0  0
   -0.0159   -0.0916   -0.2525 C   0  0  2  0  0  0  0  0  0  0  0  0
   -0.6413    0.6795    0.9343 C   0  0  0  0  0  0  0  0  0  0  0  0
   -1.5035    0.1998    1.6590 O   0  0  0  0  0  0  0  0  0  0  0  0
   -0.9398   -0.1429   -1.4871 C   0  0  0  0  0  0  0  0  0  0  0  0
   -0.1155   -0.4606   -2.7501 C   0  0  0  0  0  0  0  0  0  0  0  0
   -0.9879   -0.5464   -4.0011 C   0  0  0  0  0  0  0  0  0  0  0  0
   -1.6433    0.4767   -4.3199 O   0  5  0  0  0  0  0  0  0  0  0  0
   -0.9426   -1.6082   -4.6701 O   0  0  0  0  0  0  0  0  0  0  0  0
    1.5901   -1.4634   -0.0044 H   0  0  0  0  0  0  0  0  0  0  0  0
    0.8268    0.5336   -0.5598 H   0  0  0  0  0  0  0  0  0  0  0  0
   -1.4214    0.8320   -1.6209 H   0  0  0  0  0  0  0  0  0  0  0  0
   -1.7421   -0.8748   -1.3593 H   0  0  0  0  0  0  0  0  0  0  0  0
    0.6351    0.3192   -2.9050 H   0  0  0  0  0  0  0  0  0  0  0  0
    0.4093   -1.4111   -2.6201 H   0  0  0  0  0  0  0  0  0  0  0  0
   -0.1643    1.9392    1.2562 N   0  0  0  0  0  0  0  0  0  0  0  0
   -0.7215    2.7887    2.3164 C   0  0  2  0  0  0  0  0  0  0  0  0
   -0.5126    4.2882    2.0242 C   0  0  0  0  0  0  0  0  0  0  0  0
    0.4150    4.6587    1.3122 O   0  0  0  0  0  0  0  0  0  0  0  0
   -0.0562    2.4159    3.6448 C   0  0  0  0  0  0  0  0  0  0  0  0
    0.4813    2.3795    0.6027 H   0  0  0  0  0  0  0  0  0  0  0  0
   -1.8004    2.6157    2.3906 H   0  0  0  0  0  0  0  0  0  0  0  0
    1.0229    2.5921    3.5935 H   0  0  0  0  0  0  0  0  0  0  0  0
   -0.4701    3.0145    4.4615 H   0  0  0  0  0  0  0  0  0  0  0  0
   -0.2261    1.3588    3.8724 H   0  0  0  0  0  0  0  0  0  0  0  0
   -1.3603    5.2287    2.5815 N   0  0  0  0  0  0  0  0  0  0  0  0
   -1.2555    6.6574    2.3155 C   0  0  0  0  0  0  0  0  0  0  0  0
   -2.1539    4.8833    3.1137 H   0  0  0  0  0  0  0  0  0  0  0  0
   -0.2868    7.0397    2.6538 H   0  0  0  0  0  0  0  0  0  0  0  0
   -1.3591    6.8564    1.2437 H   0  0  0  0  0  0  0  0  0  0  0  0
   -2.0446    7.1985    2.8462 H   0  0  0  0  0  0  0  0  0  0  0  0
  1  2  2  0  0  0  0
  1  3  1  0  0  0  0
  1  7  1  0  0  0  0
  3  4  1  0  0  0  0
  3  5  1  0  0  0  0
  3  6  1  0  0  0  0
  7  8  1  0  0  0  0
  7 12  1  0  0  0  0
  8  9  1  0  0  0  0
  8 11  1  0  0  0  0
  8 13  1  0  0  0  0
  9 10  2  0  0  0  0
  9 17  1  0  0  0  0
 11 14  1  0  0  0  0
 11 15  1  0  0  0  0
 11 16  1  0  0  0  0
 17 18  1  0  0  0  0
 17 26  1  0  0  0  0
 18 19  1  0  0  0  0
 18 21  1  0  0  0  0
 18 27  1  0  0  0  0
 19 20  2  0  0  0  0
 19 32  1  0  0  0  0
 21 22  1  0  0  0  0
 21 28  1  0  0  0  0
 21 29  1  0  0  0  0
 22 23  1  0  0  0  0
 22 30  1  0  0  0  0
 22 31  1  0  0  0  0
 23 24  1  0  0  0  0
 23 25  2  0  0  0  0
 32 33  1  0  0  0  0
 32 37  1  0  0  0  0
 33 34  1  0  0  0  0
 33 36  1  0  0  0  0
 33 38  1  0  0  0  0
 34 35  2  0  0  0  0
 34 42  1  0  0  0  0
 36 39  1  0  0  0  0
 36 40  1  0  0  0  0
 36 41  1  0  0  0  0
 42 43  1  0  0  0  0
 42 44  1  0  0  0  0
 43 45  1  0  0  0  0
 43 46  1  0  0  0  0
 43 47  1  0  0  0  0
M  CHG  1  24  -1
M  END
$$$$

  -OEChem-05262216243D

 47 46  0     1  0  0  0  0  0999 V2000
    0.3218   -6.0364    1.3789 C   0  0  0  0  0  0  0  0  0  0  0  0
    1.4859   -6.1293    1.7406 O   0  0  0  0  0  0  0  0  0  0  0  0
   -0.7110   -7.0264    1.8845 C   0  0  0  0  0  0  0  0  0  0  0  0
   -1.1598   -7.5587    1.0422 H   0  0  0  0  0  0  0  0  0  0  0  0
   -0.2425   -7.7534    2.5536 H   0  0  0  0  0  0  0  0  0  0  0  0
   -1.4961   -6.4978    2.4312 H   0  0  0  0  0  0  0  0  0  0  0  0
   -0.0702   -5.0307    0.5240 N   0  0  0  0  0  0  0  0  0  0  0  0
    0.7563   -3.8711    0.1698 C   0  0  2  0  0  0  0  0  0  0  0  0
   -0.0860   -2.5775    0.1473 C   0  0  0  0  0  0  0  0  0  0  0  0
   -1.3071   -2.6668    0.2082 O   0  0  0  0  0  0  0  0  0  0  0  0
    1.3786   -4.1296   -1.2052 C   0  0  0  0  0  0  0  0  0  0  0  0
   -1.0744   -4.9041    0.3924 H   0  0  0  0  0  0  0  0  0  0  0  0
    1.5508   -3.7337    0.9105 H   0  0  0  0  0  0  0  0  0  0  0  0
    0.5958   -4.2370   -1.9639 H   0  0  0  0  0  0  0  0  0  0  0  0
    2.0305   -3.3007   -1.4964 H   0  0  0  0  0  0  0  0  0  0  0  0
    1.9739   -5.0477   -1.1848 H   0  0  0  0  0  0  0  0  0  0  0  0
    0.5585   -1.3514    0.1054 N   0  0  0  0  0  0  0  0  0  0  0  0
   -0.0499   -0.0623   -0.2858 C   0  0  2  0  0  0  0  0  0  0  0  0
   -0.6770    0.7229    0.8900 C   0  0  0  0  0  0  0  0  0  0  0  0
   -1.2343    0.1719    1.8319 O   0  0  0  0  0  0  0  0  0  0  0  0
   -0.9725   -0.1251   -1.5204 C   0  0  0  0  0  0  0  0  0  0  0  0
   -0.1486   -0.4518   -2.7809 C   0  0  0  0  0  0  0  0  0  0  0  0
   -1.0230   -0.5485   -4.0305 C   0  0  0  0  0  0  0  0  0  0  0  0
   -1.7151    0.4560   -4.3311 O   0  5  0  0  0  0  0  0  0  0  0  0
   -0.9474   -1.5991   -4.7141 O   0  0  0  0  0  0  0  0  0  0  0  0
    1.5676   -1.4111    0.0345 H   0  0  0  0  0  0  0  0  0  0  0  0
    0.7930    0.5609   -0.5972 H   0  0  0  0  0  0  0  0  0  0  0  0
   -1.4556    0.8478   -1.6621 H   0  0  0  0  0  0  0  0  0  0  0  0
   -1.7738   -0.8573   -1.3888 H   0  0  0  0  0  0  0  0  0  0  0  0
    0.6017    0.3272   -2.9430 H   0  0  0  0  0  0  0  0  0  0  0  0
    0.3764   -1.4012   -2.6422 H   0  0  0  0  0  0  0  0  0  0  0  0
   -0.4377    2.0820    0.9996 N   0  0  0  0  0  0  0  0  0  0  0  0
   -0.9715    2.9307    2.0724 C   0  0  2  0  0  0  0  0  0  0  0  0
   -1.1643    4.3894    1.6127 C   0  0  0  0  0  0  0  0  0  0  0  0
   -0.4530    4.8624    0.7330 O   0  0  0  0  0  0  0  0  0  0  0  0
   -0.0130    2.8783    3.2666 C   0  0  0  0  0  0  0  0  0  0  0  0
   -0.0355    2.5539    0.1904 H   0  0  0  0  0  0  0  0  0  0  0  0
   -1.9517    2.5507    2.3797 H   0  0  0  0  0  0  0  0  0  0  0  0
    0.9750    3.2528    2.9807 H   0  0  0  0  0  0  0  0  0  0  0  0
   -0.3942    3.4897    4.0896 H   0  0  0  0  0  0  0  0  0  0  0  0
    0.0945    1.8492    3.6236 H   0  0  0  0  0  0  0  0  0  0  0  0
   -2.1307    5.1817    2.2056 N   0  0  0  0  0  0  0  0  0  0  0  0
   -2.4200    6.5442    1.7773 C   0  0  0  0  0  0  0  0  0  0  0  0
   -2.7493    4.7355    2.8764 H   0  0  0  0  0  0  0  0  0  0  0  0
   -1.5299    7.1745    1.8745 H   0  0  0  0  0  0  0  0  0  0  0  0
   -2.7485    6.5561    0.7327 H   0  0  0  0  0  0  0  0  0  0  0  0
   -3.2148    6.9729    2.3951 H   0  0  0  0  0  0  0  0  0  0  0  0
  1  2  2  0  0  0  0
  1  3  1  0  0  0  0
  1  7  1  0  0  0  0
  3  4  1  0  0  0  0
  3  5  1  0  0  0  0
  3  6  1  0  0  0  0
  7  8  1  0  0  0  0
  7 12  1  0  0  0  0
  8  9  1  0  0  0  0
  8 11  1  0  0  0  0
  8 13  1  0  0  0  0
  9 10  2  0  0  0  0
  9 17  1  0  0  0  0
 11 14  1  0  0  0  0
 11 15  1  0  0  0  0
 11 16  1  0  0  0  0
 17 18  1  0  0  0  0
 17 26  1  0  0  0  0
 18 19  1  0  0  0  0
 18 21  1  0  0  0  0
 18 27  1  0  0  0  0
 19 20  2  0  0  0  0
 19 32  1  0  0  0  0
 21 22  1  0  0  0  0
 21 28  1  0  0  0  0
 21 29  1  0  0  0  0
 22 23  1  0  0  0  0
 22 30  1  0  0  0  0
 22 31  1  0  0  0  0
 23 24  1  0  0  0  0
 23 25  2  0  0  0  0
 32 33  1  0  0  0  0
 32 37  1  0  0  0  0
 33 34  1  0  0  0  0
 33 36  1  0  0  0  0
 33 38  1  0  0  0  0
 34 35  2  0  0  0  0
 34 42  1  0  0  0  0
 36 39  1  0  0  0  0
 36 40  1  0  0  0  0
 36 41  1  0  0  0  0
 42 43  1  0  0  0  0
 42 44  1  0  0  0  0
 43 45  1  0  0  0  0
 43 46  1  0  0  0  0
 43 47  1  0  0  0  0
M  CHG  1  24  -1
M  END
$$$$

  -OEChem-05262216243D

 47 46  0     1  0  0  0  0  0999 V2000
    0.3126   -6.0346    1.3715 C   0  0  0  0  0  0  0  0  0  0  0  0
    1.4807   -6.1477    1.7135 O   0  0  0  0  0  0  0  0  0  0  0  0
   -0.7198   -7.0386    1.8502 C   0  0  0  0  0  0  0  0  0  0  0  0
   -1.1820   -7.5334    0.9926 H   0  0  0  0  0  0  0  0  0  0  0  0
   -0.2488   -7.7952    2.4837 H   0  0  0  0  0  0  0  0  0  0  0  0
   -1.4948   -6.5277    2.4272 H   0  0  0  0  0  0  0  0  0  0  0  0
   -0.0845   -4.9950    0.5605 N   0  0  0  0  0  0  0  0  0  0  0  0
    0.7494   -3.8379    0.2158 C   0  0  2  0  0  0  0  0  0  0  0  0
   -0.0881   -2.5411    0.1865 C   0  0  0  0  0  0  0  0  0  0  0  0
   -1.3093   -2.6208    0.2681 O   0  0  0  0  0  0  0  0  0  0  0  0
    1.3853   -4.0968   -1.1533 C   0  0  0  0  0  0  0  0  0  0  0  0
   -1.0889   -4.8595    0.4409 H   0  0  0  0  0  0  0  0  0  0  0  0
    1.5362   -3.7051    0.9655 H   0  0  0  0  0  0  0  0  0  0  0  0
    0.6107   -4.1943   -1.9215 H   0  0  0  0  0  0  0  0  0  0  0  0
    2.0479   -3.2728   -1.4337 H   0  0  0  0  0  0  0  0  0  0  0  0
    1.9726   -5.0200   -1.1307 H   0  0  0  0  0  0  0  0  0  0  0  0
    0.5570   -1.3167    0.1237 N   0  0  0  0  0  0  0  0  0  0  0  0
   -0.0573   -0.0368   -0.2891 C   0  0  2  0  0  0  0  0  0  0  0  0
   -0.6861    0.7674    0.8735 C   0  0  0  0  0  0  0  0  0  0  0  0
   -0.9573    0.2554    1.9544 O   0  0  0  0  0  0  0  0  0  0  0  0
   -0.9797   -0.1306   -1.5236 C   0  0  0  0  0  0  0  0  0  0  0  0
   -0.1536   -0.4771   -2.7770 C   0  0  0  0  0  0  0  0  0  0  0  0
   -1.0281   -0.6046   -4.0238 C   0  0  0  0  0  0  0  0  0  0  0  0
   -1.7550    0.3749   -4.3244 O   0  5  0  0  0  0  0  0  0  0  0  0
   -0.9221   -1.6554   -4.7027 O   0  0  0  0  0  0  0  0  0  0  0  0
    1.5661   -1.3750    0.0537 H   0  0  0  0  0  0  0  0  0  0  0  0
    0.7816    0.5887   -0.6075 H   0  0  0  0  0  0  0  0  0  0  0  0
   -1.4684    0.8359   -1.6878 H   0  0  0  0  0  0  0  0  0  0  0  0
   -1.7777   -0.8640   -1.3794 H   0  0  0  0  0  0  0  0  0  0  0  0
    0.5909    0.3038   -2.9555 H   0  0  0  0  0  0  0  0  0  0  0  0
    0.3782   -1.4197   -2.6195 H   0  0  0  0  0  0  0  0  0  0  0  0
   -0.7236    2.1493    0.7991 N   0  0  0  0  0  0  0  0  0  0  0  0
   -1.2755    3.0164    1.8482 C   0  0  2  0  0  0  0  0  0  0  0  0
   -1.8643    4.3198    1.2732 C   0  0  0  0  0  0  0  0  0  0  0  0
   -1.3667    4.8396    0.2810 O   0  0  0  0  0  0  0  0  0  0  0  0
   -0.1643    3.3419    2.8507 C   0  0  0  0  0  0  0  0  0  0  0  0
   -0.5506    2.5731   -0.1123 H   0  0  0  0  0  0  0  0  0  0  0  0
   -2.0848    2.4899    2.3650 H   0  0  0  0  0  0  0  0  0  0  0  0
    0.6539    3.8731    2.3540 H   0  0  0  0  0  0  0  0  0  0  0  0
   -0.5507    3.9711    3.6579 H   0  0  0  0  0  0  0  0  0  0  0  0
    0.2332    2.4216    3.2899 H   0  0  0  0  0  0  0  0  0  0  0  0
   -2.9388    4.9310    1.8943 N   0  0  0  0  0  0  0  0  0  0  0  0
   -3.5814    6.1318    1.3756 C   0  0  0  0  0  0  0  0  0  0  0  0
   -3.3771    4.4322    2.6629 H   0  0  0  0  0  0  0  0  0  0  0  0
   -2.8565    6.9481    1.2896 H   0  0  0  0  0  0  0  0  0  0  0  0
   -4.0140    5.9385    0.3883 H   0  0  0  0  0  0  0  0  0  0  0  0
   -4.3823    6.4524    2.0488 H   0  0  0  0  0  0  0  0  0  0  0  0
  1  2  2  0  0  0  0
  1  3  1  0  0  0  0
  1  7  1  0  0  0  0
  3  4  1  0  0  0  0
  3  5  1  0  0  0  0
  3  6  1  0  0  0  0
  7  8  1  0  0  0  0
  7 12  1  0  0  0  0
  8  9  1  0  0  0  0
  8 11  1  0  0  0  0
  8 13  1  0  0  0  0
  9 10  2  0  0  0  0
  9 17  1  0  0  0  0
 11 14  1  0  0  0  0
 11 15  1  0  0  0  0
 11 16  1  0  0  0  0
 17 18  1  0  0  0  0
 17 26  1  0  0  0  0
 18 19  1  0  0  0  0
 18 21  1  0  0  0  0
 18 27  1  0  0  0  0
 19 20  2  0  0  0  0
 19 32  1  0  0  0  0
 21 22  1  0  0  0  0
 21 28  1  0  0  0  0
 21 29  1  0  0  0  0
 22 23  1  0  0  0  0
 22 30  1  0  0  0  0
 22 31  1  0  0  0  0
 23 24  1  0  0  0  0
 23 25  2  0  0  0  0
 32 33  1  0  0  0  0
 32 37  1  0  0  0  0
 33 34  1  0  0  0  0
 33 36  1  0  0  0  0
 33 38  1  0  0  0  0
 34 35  2  0  0  0  0
 34 42  1  0  0  0  0
 36 39  1  0  0  0  0
 36 40  1  0  0  0  0
 36 41  1  0  0  0  0
 42 43  1  0  0  0  0
 42 44  1  0  0  0  0
 43 45  1  0  0  0  0
 43 46  1  0  0  0  0
 43 47  1  0  0  0  0
M  CHG  1  24  -1
M  END
$$$$

  -OEChem-05262216243D

 47 46  0     1  0  0  0  0  0999 V2000
    0.2993   -5.9943    1.3903 C   0  0  0  0  0  0  0  0  0  0  0  0
    1.4635   -6.0967    1.7487 O   0  0  0  0  0  0  0  0  0  0  0  0
   -0.7332   -6.9953    1.8748 C   0  0  0  0  0  0  0  0  0  0  0  0
   -1.2403   -7.4517    1.0209 H   0  0  0  0  0  0  0  0  0  0  0  0
   -0.2509   -7.7825    2.4606 H   0  0  0  0  0  0  0  0  0  0  0  0
   -1.4734   -6.4909    2.5011 H   0  0  0  0  0  0  0  0  0  0  0  0
   -0.0929   -4.9673    0.5609 N   0  0  0  0  0  0  0  0  0  0  0  0
    0.7391   -3.8069    0.2215 C   0  0  2  0  0  0  0  0  0  0  0  0
   -0.0974   -2.5092    0.2070 C   0  0  0  0  0  0  0  0  0  0  0  0
   -1.3182   -2.5838    0.3070 O   0  0  0  0  0  0  0  0  0  0  0  0
    1.3689   -4.0564   -1.1523 C   0  0  0  0  0  0  0  0  0  0  0  0
   -1.0966   -4.8388    0.4292 H   0  0  0  0  0  0  0  0  0  0  0  0
    1.5300   -3.6793    0.9676 H   0  0  0  0  0  0  0  0  0  0  0  0
    0.5913   -4.1502   -1.9183 H   0  0  0  0  0  0  0  0  0  0  0  0
    2.0296   -3.2300   -1.4303 H   0  0  0  0  0  0  0  0  0  0  0  0
    1.9574   -4.9790   -1.1375 H   0  0  0  0  0  0  0  0  0  0  0  0
    0.5436   -1.2836    0.1377 N   0  0  0  0  0  0  0  0  0  0  0  0
   -0.0744   -0.0180   -0.3122 C   0  0  2  0  0  0  0  0  0  0  0  0
   -0.7350    0.7962    0.8267 C   0  0  0  0  0  0  0  0  0  0  0  0
   -0.7625    0.3873    1.9835 O   0  0  0  0  0  0  0  0  0  0  0  0
   -0.9619   -0.1604   -1.5691 C   0  0  0  0  0  0  0  0  0  0  0  0
   -0.0953   -0.5241   -2.7898 C   0  0  0  0  0  0  0  0  0  0  0  0
   -0.9358   -0.6990   -4.0538 C   0  0  0  0  0  0  0  0  0  0  0  0
   -1.6533    0.2680   -4.4110 O   0  5  0  0  0  0  0  0  0  0  0  0
   -0.8204   -1.7789   -4.6835 O   0  0  0  0  0  0  0  0  0  0  0  0
    1.5533   -1.3381    0.0716 H   0  0  0  0  0  0  0  0  0  0  0  0
    0.7599    0.6174   -0.6224 H   0  0  0  0  0  0  0  0  0  0  0  0
   -1.4647    0.7902   -1.7748 H   0  0  0  0  0  0  0  0  0  0  0  0
   -1.7490   -0.9057   -1.4284 H   0  0  0  0  0  0  0  0  0  0  0  0
    0.6413    0.2642   -2.9682 H   0  0  0  0  0  0  0  0  0  0  0  0
    0.4478   -1.4529   -2.5950 H   0  0  0  0  0  0  0  0  0  0  0  0
   -1.0729    2.1223    0.6160 N   0  0  0  0  0  0  0  0  0  0  0  0
   -1.6434    3.0028    1.6443 C   0  0  2  0  0  0  0  0  0  0  0  0
   -2.5781    4.0718    1.0452 C   0  0  0  0  0  0  0  0  0  0  0  0
   -2.3398    4.5596   -0.0532 O   0  0  0  0  0  0  0  0  0  0  0  0
   -0.4964    3.6748    2.4050 C   0  0  0  0  0  0  0  0  0  0  0  0
   -1.0885    2.4551   -0.3484 H   0  0  0  0  0  0  0  0  0  0  0  0
   -2.2376    2.4064    2.3445 H   0  0  0  0  0  0  0  0  0  0  0  0
    0.1172    4.2709    1.7219 H   0  0  0  0  0  0  0  0  0  0  0  0
   -0.8896    4.3323    3.1861 H   0  0  0  0  0  0  0  0  0  0  0  0
    0.1400    2.9196    2.8771 H   0  0  0  0  0  0  0  0  0  0  0  0
   -3.6770    4.5125    1.7609 N   0  0  0  0  0  0  0  0  0  0  0  0
   -4.6438    5.4646    1.2295 C   0  0  0  0  0  0  0  0  0  0  0  0
   -3.8902    4.0284    2.6280 H   0  0  0  0  0  0  0  0  0  0  0  0
   -4.1461    6.3961    0.9404 H   0  0  0  0  0  0  0  0  0  0  0  0
   -5.1489    5.0472    0.3520 H   0  0  0  0  0  0  0  0  0  0  0  0
   -5.3980    5.6983    1.9868 H   0  0  0  0  0  0  0  0  0  0  0  0
  1  2  2  0  0  0  0
  1  3  1  0  0  0  0
  1  7  1  0  0  0  0
  3  4  1  0  0  0  0
  3  5  1  0  0  0  0
  3  6  1  0  0  0  0
  7  8  1  0  0  0  0
  7 12  1  0  0  0  0
  8  9  1  0  0  0  0
  8 11  1  0  0  0  0
  8 13  1  0  0  0  0
  9 10  2  0  0  0  0
  9 17  1  0  0  0  0
 11 14  1  0  0  0  0
 11 15  1  0  0  0  0
 11 16  1  0  0  0  0
 17 18  1  0  0  0  0
 17 26  1  0  0  0  0
 18 19  1  0  0  0  0
 18 21  1  0  0  0  0
 18 27  1  0  0  0  0
 19 20  2  0  0  0  0
 19 32  1  0  0  0  0
 21 22  1  0  0  0  0
 21 28  1  0  0  0  0
 21 29  1  0  0  0  0
 22 23  1  0  0  0  0
 22 30  1  0  0  0  0
 22 31  1  0  0  0  0
 23 24  1  0  0  0  0
 23 25  2  0  0  0  0
 32 33  1  0  0  0  0
 32 37  1  0  0  0  0
 33 34  1  0  0  0  0
 33 36  1  0  0  0  0
 33 38  1  0  0  0  0
 34 35  2  0  0  0  0
 34 42  1  0  0  0  0
 36 39  1  0  0  0  0
 36 40  1  0  0  0  0
 36 41  1  0  0  0  0
 42 43  1  0  0  0  0
 42 44  1  0  0  0  0
 43 45  1  0  0  0  0
 43 46  1  0  0  0  0
 43 47  1  0  0  0  0
M  CHG  1  24  -1
M  END
$$$$

  -OEChem-05262216243D

 47 46  0     1  0  0  0  0  0999 V2000
    0.2716   -5.9969    1.4739 C   0  0  0  0  0  0  0  0  0  0  0  0
    1.4273   -6.0904    1.8612 O   0  0  0  0  0  0  0  0  0  0  0  0
   -0.7526   -7.0408    1.8793 C   0  0  0  0  0  0  0  0  0  0  0  0
   -1.1942   -7.4928    0.9877 H   0  0  0  0  0  0  0  0  0  0  0  0
   -0.2788   -7.8258    2.4750 H   0  0  0  0  0  0  0  0  0  0  0  0
   -1.5441   -6.5749    2.4718 H   0  0  0  0  0  0  0  0  0  0  0  0
   -0.1163   -4.9481    0.6706 N   0  0  0  0  0  0  0  0  0  0  0  0
    0.7113   -3.7751    0.3670 C   0  0  2  0  0  0  0  0  0  0  0  0
   -0.1485   -2.4957    0.2754 C   0  0  0  0  0  0  0  0  0  0  0  0
   -1.3638   -2.5833    0.4114 O   0  0  0  0  0  0  0  0  0  0  0  0
    1.4385   -4.0332   -0.9569 C   0  0  0  0  0  0  0  0  0  0  0  0
   -1.1171   -4.8346    0.5059 H   0  0  0  0  0  0  0  0  0  0  0  0
    1.4465   -3.6192    1.1630 H   0  0  0  0  0  0  0  0  0  0  0  0
    0.7163   -4.1638   -1.7702 H   0  0  0  0  0  0  0  0  0  0  0  0
    2.0949   -3.1948   -1.2078 H   0  0  0  0  0  0  0  0  0  0  0  0
    2.0491   -4.9386   -0.8843 H   0  0  0  0  0  0  0  0  0  0  0  0
    0.4718   -1.2641    0.1530 N   0  0  0  0  0  0  0  0  0  0  0  0
   -0.1180   -0.0081   -0.3648 C   0  0  2  0  0  0  0  0  0  0  0  0
   -0.4495    0.9973    0.7647 C   0  0  0  0  0  0  0  0  0  0  0  0
   -0.0463    0.8138    1.9103 O   0  0  0  0  0  0  0  0  0  0  0  0
   -1.2392   -0.1734   -1.4190 C   0  0  0  0  0  0  0  0  0  0  0  0
   -0.6628   -0.7681   -2.7194 C   0  0  0  0  0  0  0  0  0  0  0  0
   -1.7381   -0.9729   -3.7861 C   0  0  0  0  0  0  0  0  0  0  0  0
   -2.4606    0.0134   -4.0756 O   0  5  0  0  0  0  0  0  0  0  0  0
   -1.7899   -2.0919   -4.3537 O   0  0  0  0  0  0  0  0  0  0  0  0
    1.4842   -1.2964    0.1867 H   0  0  0  0  0  0  0  0  0  0  0  0
    0.6920    0.4872   -0.9073 H   0  0  0  0  0  0  0  0  0  0  0  0
   -1.6676    0.8041   -1.6603 H   0  0  0  0  0  0  0  0  0  0  0  0
   -2.0633   -0.7864   -1.0466 H   0  0  0  0  0  0  0  0  0  0  0  0
    0.1013   -0.0980   -3.1228 H   0  0  0  0  0  0  0  0  0  0  0  0
   -0.1880   -1.7303   -2.5084 H   0  0  0  0  0  0  0  0  0  0  0  0
   -1.0098    2.2305    0.4779 N   0  0  0  0  0  0  0  0  0  0  0  0
   -1.3288    3.2470    1.4895 C   0  0  2  0  0  0  0  0  0  0  0  0
   -2.5778    4.0707    1.1193 C   0  0  0  0  0  0  0  0  0  0  0  0
   -2.7812    4.4029   -0.0419 O   0  0  0  0  0  0  0  0  0  0  0  0
   -0.1173    4.1686    1.6541 C   0  0  0  0  0  0  0  0  0  0  0  0
   -1.3748    2.3730   -0.4644 H   0  0  0  0  0  0  0  0  0  0  0  0
   -1.5367    2.7569    2.4462 H   0  0  0  0  0  0  0  0  0  0  0  0
    0.1181    4.6644    0.7070 H   0  0  0  0  0  0  0  0  0  0  0  0
   -0.3201    4.9346    2.4083 H   0  0  0  0  0  0  0  0  0  0  0  0
    0.7560    3.5917    1.9730 H   0  0  0  0  0  0  0  0  0  0  0  0
   -3.4615    4.4714    2.1057 N   0  0  0  0  0  0  0  0  0  0  0  0
   -4.6994    5.1858    1.8223 C   0  0  0  0  0  0  0  0  0  0  0  0
   -3.3074    4.1075    3.0413 H   0  0  0  0  0  0  0  0  0  0  0  0
   -4.4881    6.1302    1.3102 H   0  0  0  0  0  0  0  0  0  0  0  0
   -5.3546    4.5797    1.1880 H   0  0  0  0  0  0  0  0  0  0  0  0
   -5.2278    5.4095    2.7537 H   0  0  0  0  0  0  0  0  0  0  0  0
  1  2  2  0  0  0  0
  1  3  1  0  0  0  0
  1  7  1  0  0  0  0
  3  4  1  0  0  0  0
  3  5  1  0  0  0  0
  3  6  1  0  0  0  0
  7  8  1  0  0  0  0
  7 12  1  0  0  0  0
  8  9  1  0  0  0  0
  8 11  1  0  0  0  0
  8 13  1  0  0  0  0
  9 10  2  0  0  0  0
  9 17  1  0  0  0  0
 11 14  1  0  0  0  0
 11 15  1  0  0  0  0
 11 16  1  0  0  0  0
 17 18  1  0  0  0  0
 17 26  1  0  0  0  0
 18 19  1  0  0  0  0
 18 21  1  0  0  0  0
 18 27  1  0  0  0  0
 19 20  2  0  0  0  0
 19 32  1  0  0  0  0
 21 22  1  0  0  0  0
 21 28  1  0  0  0  0
 21 29  1  0  0  0  0
 22 23  1  0  0  0  0
 22 30  1  0  0  0  0
 22 31  1  0  0  0  0
 23 24  1  0  0  0  0
 23 25  2  0  0  0  0
 32 33  1  0  0  0  0
 32 37  1  0  0  0  0
 33 34  1  0  0  0  0
 33 36  1  0  0  0  0
 33 38  1  0  0  0  0
 34 35  2  0  0  0  0
 34 42  1  0  0  0  0
 36 39  1  0  0  0  0
 36 40  1  0  0  0  0
 36 41  1  0  0  0  0
 42 43  1  0  0  0  0
 42 44  1  0  0  0  0
 43 45  1  0  0  0  0
 43 46  1  0  0  0  0
 43 47  1  0  0  0  0
M  CHG  1  24  -1
M  END
$$$$

  -OEChem-05262216243D

 47 46  0     1  0  0  0  0  0999 V2000
    0.2506   -5.9681    1.4930 C   0  0  0  0  0  0  0  0  0  0  0  0
    1.4033   -6.0499    1.8916 O   0  0  0  0  0  0  0  0  0  0  0  0
   -0.7746   -7.0011    1.9236 C   0  0  0  0  0  0  0  0  0  0  0  0
   -1.2602   -7.4331    1.0452 H   0  0  0  0  0  0  0  0  0  0  0  0
   -0.2905   -7.8024    2.4886 H   0  0  0  0  0  0  0  0  0  0  0  0
   -1.5330   -6.5309    2.5543 H   0  0  0  0  0  0  0  0  0  0  0  0
   -0.1345   -4.9351    0.6673 N   0  0  0  0  0  0  0  0  0  0  0  0
    0.6911   -3.7614    0.3575 C   0  0  2  0  0  0  0  0  0  0  0  0
   -0.1686   -2.4818    0.2628 C   0  0  0  0  0  0  0  0  0  0  0  0
   -1.3841   -2.5639    0.4022 O   0  0  0  0  0  0  0  0  0  0  0  0
    1.4176   -4.0241   -0.9655 C   0  0  0  0  0  0  0  0  0  0  0  0
   -1.1347   -4.8277    0.4952 H   0  0  0  0  0  0  0  0  0  0  0  0
    1.4274   -3.6015    1.1518 H   0  0  0  0  0  0  0  0  0  0  0  0
    0.6947   -4.1663   -1.7763 H   0  0  0  0  0  0  0  0  0  0  0  0
    2.0670   -3.1827   -1.2239 H   0  0  0  0  0  0  0  0  0  0  0  0
    2.0353   -4.9241   -0.8872 H   0  0  0  0  0  0  0  0  0  0  0  0
    0.4476   -1.2475    0.1525 N   0  0  0  0  0  0  0  0  0  0  0  0
   -0.1399   -0.0058   -0.4001 C   0  0  2  0  0  0  0  0  0  0  0  0
   -0.5199    0.9965    0.7173 C   0  0  0  0  0  0  0  0  0  0  0  0
    0.0569    0.9563    1.8012 O   0  0  0  0  0  0  0  0  0  0  0  0
   -1.2054   -0.2032   -1.5074 C   0  0  0  0  0  0  0  0  0  0  0  0
   -0.5514   -0.7945   -2.7724 C   0  0  0  0  0  0  0  0  0  0  0  0
   -1.5659   -1.0316   -3.8906 C   0  0  0  0  0  0  0  0  0  0  0  0
   -2.2820   -0.0601   -4.2393 O   0  5  0  0  0  0  0  0  0  0  0  0
   -1.5763   -2.1633   -4.4348 O   0  0  0  0  0  0  0  0  0  0  0  0
    1.4604   -1.2778    0.1824 H   0  0  0  0  0  0  0  0  0  0  0  0
    0.6835    0.5024   -0.9098 H   0  0  0  0  0  0  0  0  0  0  0  0
   -1.6391    0.7632   -1.7818 H   0  0  0  0  0  0  0  0  0  0  0  0
   -2.0338   -0.8317   -1.1712 H   0  0  0  0  0  0  0  0  0  0  0  0
    0.2172   -0.1104   -3.1432 H   0  0  0  0  0  0  0  0  0  0  0  0
   -0.0666   -1.7437   -2.5296 H   0  0  0  0  0  0  0  0  0  0  0  0
   -1.3518    2.0770    0.4774 N   0  0  0  0  0  0  0  0  0  0  0  0
   -1.7330    3.0687    1.4925 C   0  0  2  0  0  0  0  0  0  0  0  0
   -3.1916    3.5406    1.3321 C   0  0  0  0  0  0  0  0  0  0  0  0
   -3.6827    3.6759    0.2184 O   0  0  0  0  0  0  0  0  0  0  0  0
   -0.7751    4.2581    1.3868 C   0  0  0  0  0  0  0  0  0  0  0  0
   -1.8734    2.0795   -0.3999 H   0  0  0  0  0  0  0  0  0  0  0  0
   -1.6451    2.6282    2.4909 H   0  0  0  0  0  0  0  0  0  0  0  0
   -0.8455    4.7176    0.3956 H   0  0  0  0  0  0  0  0  0  0  0  0
   -1.0183    5.0132    2.1402 H   0  0  0  0  0  0  0  0  0  0  0  0
    0.2564    3.9289    1.5469 H   0  0  0  0  0  0  0  0  0  0  0  0
   -3.9491    3.8452    2.4492 N   0  0  0  0  0  0  0  0  0  0  0  0
   -5.3558    4.2188    2.3781 C   0  0  0  0  0  0  0  0  0  0  0  0
   -3.5413    3.6385    3.3560 H   0  0  0  0  0  0  0  0  0  0  0  0
   -5.4862    5.1053    1.7487 H   0  0  0  0  0  0  0  0  0  0  0  0
   -5.9485    3.3986    1.9598 H   0  0  0  0  0  0  0  0  0  0  0  0
   -5.7363    4.4472    3.3781 H   0  0  0  0  0  0  0  0  0  0  0  0
  1  2  2  0  0  0  0
  1  3  1  0  0  0  0
  1  7  1  0  0  0  0
  3  4  1  0  0  0  0
  3  5  1  0  0  0  0
  3  6  1  0  0  0  0
  7  8  1  0  0  0  0
  7 12  1  0  0  0  0
  8  9  1  0  0  0  0
  8 11  1  0  0  0  0
  8 13  1  0  0  0  0
  9 10  2  0  0  0  0
  9 17  1  0  0  0  0
 11 14  1  0  0  0  0
 11 15  1  0  0  0  0
 11 16  1  0  0  0  0
 17 18  1  0  0  0  0
 17 26  1  0  0  0  0
 18 19  1  0  0  0  0
 18 21  1  0  0  0  0
 18 27  1  0  0  0  0
 19 20  2  0  0  0  0
 19 32  1  0  0  0  0
 21 22  1  0  0  0  0
 21 28  1  0  0  0  0
 21 29  1  0  0  0  0
 22 23  1  0  0  0  0
 22 30  1  0  0  0  0
 22 31  1  0  0  0  0
 23 24  1  0  0  0  0
 23 25  2  0  0  0  0
 32 33  1  0  0  0  0
 32 37  1  0  0  0  0
 33 34  1  0  0  0  0
 33 36  1  0  0  0  0
 33 38  1  0  0  0  0
 34 35  2  0  0  0  0
 34 42  1  0  0  0  0
 36 39  1  0  0  0  0
 36 40  1  0  0  0  0
 36 41  1  0  0  0  0
 42 43  1  0  0  0  0
 42 44  1  0  0  0  0
 43 45  1  0  0  0  0
 43 46  1  0  0  0  0
 43 47  1  0  0  0  0
M  CHG  1  24  -1
M  END
$$$$

  -OEChem-05262216243D

 47 46  0     1  0  0  0  0  0999 V2000
    0.2653   -5.9321    1.5184 C   0  0  0  0  0  0  0  0  0  0  0  0
    1.4089   -5.9829    1.9472 O   0  0  0  0  0  0  0  0  0  0  0  0
   -0.7555   -6.9659    1.9569 C   0  0  0  0  0  0  0  0  0  0  0  0
   -1.1673   -7.4767    1.0830 H   0  0  0  0  0  0  0  0  0  0  0  0
   -0.2869   -7.7064    2.6107 H   0  0  0  0  0  0  0  0  0  0  0  0
   -1.5682   -6.4779    2.5007 H   0  0  0  0  0  0  0  0  0  0  0  0
   -0.1133   -4.9347    0.6475 N   0  0  0  0  0  0  0  0  0  0  0  0
    0.7000   -3.7564    0.3242 C   0  0  2  0  0  0  0  0  0  0  0  0
   -0.1724   -2.4871    0.2200 C   0  0  0  0  0  0  0  0  0  0  0  0
   -1.3891   -2.5823    0.3383 O   0  0  0  0  0  0  0  0  0  0  0  0
    1.4230   -4.0260   -0.9986 C   0  0  0  0  0  0  0  0  0  0  0  0
   -1.1106   -4.8481    0.4495 H   0  0  0  0  0  0  0  0  0  0  0  0
    1.4392   -3.5810    1.1125 H   0  0  0  0  0  0  0  0  0  0  0  0
    0.6989   -4.1840   -1.8053 H   0  0  0  0  0  0  0  0  0  0  0  0
    2.0629   -3.1808   -1.2685 H   0  0  0  0  0  0  0  0  0  0  0  0
    2.0489   -4.9197   -0.9122 H   0  0  0  0  0  0  0  0  0  0  0  0
    0.4296   -1.2449    0.1298 N   0  0  0  0  0  0  0  0  0  0  0  0
   -0.1621   -0.0120   -0.4351 C   0  0  2  0  0  0  0  0  0  0  0  0
   -0.5806    0.9698    0.6847 C   0  0  0  0  0  0  0  0  0  0  0  0
    0.1235    1.0814    1.6854 O   0  0  0  0  0  0  0  0  0  0  0  0
   -1.1975   -0.2186   -1.5681 C   0  0  0  0  0  0  0  0  0  0  0  0
   -0.5062   -0.7970   -2.8190 C   0  0  0  0  0  0  0  0  0  0  0  0
   -1.4912   -1.0421   -3.9612 C   0  0  0  0  0  0  0  0  0  0  0  0
   -2.1978   -0.0728   -4.3340 O   0  5  0  0  0  0  0  0  0  0  0  0
   -1.4896   -2.1777   -4.4971 O   0  0  0  0  0  0  0  0  0  0  0  0
    1.4417   -1.2598    0.1855 H   0  0  0  0  0  0  0  0  0  0  0  0
    0.6645    0.5128   -0.9228 H   0  0  0  0  0  0  0  0  0  0  0  0
   -1.6332    0.7455   -1.8491 H   0  0  0  0  0  0  0  0  0  0  0  0
   -2.0259   -0.8587   -1.2543 H   0  0  0  0  0  0  0  0  0  0  0  0
    0.2632   -0.1031   -3.1695 H   0  0  0  0  0  0  0  0  0  0  0  0
   -0.0164   -1.7414   -2.5681 H   0  0  0  0  0  0  0  0  0  0  0  0
   -1.6404    1.8485    0.5396 N   0  0  0  0  0  0  0  0  0  0  0  0
   -2.0962    2.7723    1.5876 C   0  0  2  0  0  0  0  0  0  0  0  0
   -3.6312    2.9164    1.6221 C   0  0  0  0  0  0  0  0  0  0  0  0
   -4.2903    2.8265    0.5939 O   0  0  0  0  0  0  0  0  0  0  0  0
   -1.4404    4.1339    1.3448 C   0  0  0  0  0  0  0  0  0  0  0  0
   -2.2653    1.6942   -0.2528 H   0  0  0  0  0  0  0  0  0  0  0  0
   -1.7884    2.3965    2.5687 H   0  0  0  0  0  0  0  0  0  0  0  0
   -1.7423    4.5346    0.3718 H   0  0  0  0  0  0  0  0  0  0  0  0
   -1.7347    4.8452    2.1222 H   0  0  0  0  0  0  0  0  0  0  0  0
   -0.3504    4.0365    1.3592 H   0  0  0  0  0  0  0  0  0  0  0  0
   -4.2775    3.1724    2.8188 N   0  0  0  0  0  0  0  0  0  0  0  0
   -5.7284    3.2349    2.9410 C   0  0  0  0  0  0  0  0  0  0  0  0
   -3.7130    3.1621    3.6628 H   0  0  0  0  0  0  0  0  0  0  0  0
   -6.1354    4.0155    2.2895 H   0  0  0  0  0  0  0  0  0  0  0  0
   -6.1768    2.2750    2.6638 H   0  0  0  0  0  0  0  0  0  0  0  0
   -6.0109    3.4650    3.9727 H   0  0  0  0  0  0  0  0  0  0  0  0
  1  2  2  0  0  0  0
  1  3  1  0  0  0  0
  1  7  1  0  0  0  0
  3  4  1  0  0  0  0
  3  5  1  0  0  0  0
  3  6  1  0  0  0  0
  7  8  1  0  0  0  0
  7 12  1  0  0  0  0
  8  9  1  0  0  0  0
  8 11  1  0  0  0  0
  8 13  1  0  0  0  0
  9 10  2  0  0  0  0
  9 17  1  0  0  0  0
 11 14  1  0  0  0  0
 11 15  1  0  0  0  0
 11 16  1  0  0  0  0
 17 18  1  0  0  0  0
 17 26  1  0  0  0  0
 18 19  1  0  0  0  0
 18 21  1  0  0  0  0
 18 27  1  0  0  0  0
 19 20  2  0  0  0  0
 19 32  1  0  0  0  0
 21 22  1  0  0  0  0
 21 28  1  0  0  0  0
 21 29  1  0  0  0  0
 22 23  1  0  0  0  0
 22 30  1  0  0  0  0
 22 31  1  0  0  0  0
 23 24  1  0  0  0  0
 23 25  2  0  0  0  0
 32 33  1  0  0  0  0
 32 37  1  0  0  0  0
 33 34  1  0  0  0  0
 33 36  1  0  0  0  0
 33 38  1  0  0  0  0
 34 35  2  0  0  0  0
 34 42  1  0  0  0  0
 36 39  1  0  0  0  0
 36 40  1  0  0  0  0
 36 41  1  0  0  0  0
 42 43  1  0  0  0  0
 42 44  1  0  0  0  0
 43 45  1  0  0  0  0
 43 46  1  0  0  0  0
 43 47  1  0  0  0  0
M  CHG  1  24  -1
M  END
$$$$

  -OEChem-05262216243D

 47 46  0     1  0  0  0  0  0999 V2000
    0.2852   -5.9193    1.5075 C   0  0  0  0  0  0  0  0  0  0  0  0
    1.4322   -5.9633    1.9277 O   0  0  0  0  0  0  0  0  0  0  0  0
   -0.7315   -6.9470    1.9699 C   0  0  0  0  0  0  0  0  0  0  0  0
   -1.1337   -7.4865    1.1089 H   0  0  0  0  0  0  0  0  0  0  0  0
   -0.2636   -7.6648    2.6493 H   0  0  0  0  0  0  0  0  0  0  0  0
   -1.5519   -6.4491    2.4928 H   0  0  0  0  0  0  0  0  0  0  0  0
   -0.1023   -4.9362    0.6241 N   0  0  0  0  0  0  0  0  0  0  0  0
    0.7049   -3.7597    0.2779 C   0  0  2  0  0  0  0  0  0  0  0  0
   -0.1652   -2.4855    0.2111 C   0  0  0  0  0  0  0  0  0  0  0  0
   -1.3805   -2.5768    0.3474 O   0  0  0  0  0  0  0  0  0  0  0  0
    1.3774   -4.0257   -1.0722 C   0  0  0  0  0  0  0  0  0  0  0  0
   -1.1024   -4.8519    0.4403 H   0  0  0  0  0  0  0  0  0  0  0  0
    1.4735   -3.5920    1.0395 H   0  0  0  0  0  0  0  0  0  0  0  0
    0.6239   -4.1754   -1.8534 H   0  0  0  0  0  0  0  0  0  0  0  0
    2.0116   -3.1821   -1.3602 H   0  0  0  0  0  0  0  0  0  0  0  0
    2.0016   -4.9227   -1.0137 H   0  0  0  0  0  0  0  0  0  0  0  0
    0.4318   -1.2391    0.1471 N   0  0  0  0  0  0  0  0  0  0  0  0
   -0.1669   -0.0148   -0.4283 C   0  0  2  0  0  0  0  0  0  0  0  0
   -0.6271    0.9500    0.6876 C   0  0  0  0  0  0  0  0  0  0  0  0
    0.1501    1.2310    1.5962 O   0  0  0  0  0  0  0  0  0  0  0  0
   -1.1732   -0.2275   -1.5856 C   0  0  0  0  0  0  0  0  0  0  0  0
   -0.4488   -0.7887   -2.8255 C   0  0  0  0  0  0  0  0  0  0  0  0
   -1.4063   -1.0388   -3.9902 C   0  0  0  0  0  0  0  0  0  0  0  0
   -2.1434   -0.0879   -4.3514 O   0  5  0  0  0  0  0  0  0  0  0  0
   -1.3534   -2.1600   -4.5529 O   0  0  0  0  0  0  0  0  0  0  0  0
    1.4455   -1.2556    0.1730 H   0  0  0  0  0  0  0  0  0  0  0  0
    0.6617    0.5269   -0.8939 H   0  0  0  0  0  0  0  0  0  0  0  0
   -1.6126    0.7359   -1.8659 H   0  0  0  0  0  0  0  0  0  0  0  0
   -2.0009   -0.8800   -1.2956 H   0  0  0  0  0  0  0  0  0  0  0  0
    0.3176   -0.0819   -3.1553 H   0  0  0  0  0  0  0  0  0  0  0  0
    0.0483   -1.7282   -2.5707 H   0  0  0  0  0  0  0  0  0  0  0  0
   -1.8564    1.5847    0.6547 N   0  0  0  0  0  0  0  0  0  0  0  0
   -2.3738    2.4398    1.7311 C   0  0  2  0  0  0  0  0  0  0  0  0
   -3.8822    2.2332    1.9779 C   0  0  0  0  0  0  0  0  0  0  0  0
   -4.6307    1.9225    1.0597 O   0  0  0  0  0  0  0  0  0  0  0  0
   -2.0902    3.8972    1.3600 C   0  0  0  0  0  0  0  0  0  0  0  0
   -2.5246    1.2549   -0.0432 H   0  0  0  0  0  0  0  0  0  0  0  0
   -1.8608    2.2042    2.6689 H   0  0  0  0  0  0  0  0  0  0  0  0
   -2.6022    4.1603    0.4284 H   0  0  0  0  0  0  0  0  0  0  0  0
   -2.4371    4.5684    2.1514 H   0  0  0  0  0  0  0  0  0  0  0  0
   -1.0148    4.0491    1.2227 H   0  0  0  0  0  0  0  0  0  0  0  0
   -4.4101    2.4308    3.2418 N   0  0  0  0  0  0  0  0  0  0  0  0
   -5.8122    2.2004    3.5661 C   0  0  0  0  0  0  0  0  0  0  0  0
   -3.7553    2.6182    3.9948 H   0  0  0  0  0  0  0  0  0  0  0  0
   -6.4594    2.8166    2.9332 H   0  0  0  0  0  0  0  0  0  0  0  0
   -6.0718    1.1472    3.4159 H   0  0  0  0  0  0  0  0  0  0  0  0
   -6.0049    2.4599    4.6113 H   0  0  0  0  0  0  0  0  0  0  0  0
  1  2  2  0  0  0  0
  1  3  1  0  0  0  0
  1  7  1  0  0  0  0
  3  4  1  0  0  0  0
  3  5  1  0  0  0  0
  3  6  1  0  0  0  0
  7  8  1  0  0  0  0
  7 12  1  0  0  0  0
  8  9  1  0  0  0  0
  8 11  1  0  0  0  0
  8 13  1  0  0  0  0
  9 10  2  0  0  0  0
  9 17  1  0  0  0  0
 11 14  1  0  0  0  0
 11 15  1  0  0  0  0
 11 16  1  0  0  0  0
 17 18  1  0  0  0  0
 17 26  1  0  0  0  0
 18 19  1  0  0  0  0
 18 21  1  0  0  0  0
 18 27  1  0  0  0  0
 19 20  2  0  0  0  0
 19 32  1  0  0  0  0
 21 22  1  0  0  0  0
 21 28  1  0  0  0  0
 21 29  1  0  0  0  0
 22 23  1  0  0  0  0
 22 30  1  0  0  0  0
 22 31  1  0  0  0  0
 23 24  1  0  0  0  0
 23 25  2  0  0  0  0
 32 33  1  0  0  0  0
 32 37  1  0  0  0  0
 33 34  1  0  0  0  0
 33 36  1  0  0  0  0
 33 38  1  0  0  0  0
 34 35  2  0  0  0  0
 34 42  1  0  0  0  0
 36 39  1  0  0  0  0
 36 40  1  0  0  0  0
 36 41  1  0  0  0  0
 42 43  1  0  0  0  0
 42 44  1  0  0  0  0
 43 45  1  0  0  0  0
 43 46  1  0  0  0  0
 43 47  1  0  0  0  0
M  CHG  1  24  -1
M  END
$$$$

  -OEChem-05262216243D

 47 46  0     1  0  0  0  0  0999 V2000
    0.3243   -5.9049    1.4828 C   0  0  0  0  0  0  0  0  0  0  0  0
    1.4653   -5.9242    1.9208 O   0  0  0  0  0  0  0  0  0  0  0  0
   -0.6911   -6.9229    1.9684 C   0  0  0  0  0  0  0  0  0  0  0  0
   -1.0690   -7.5039    1.1235 H   0  0  0  0  0  0  0  0  0  0  0  0
   -0.2303   -7.6042    2.6888 H   0  0  0  0  0  0  0  0  0  0  0  0
   -1.5270   -6.4112    2.4518 H   0  0  0  0  0  0  0  0  0  0  0  0
   -0.0595   -4.9569    0.5602 N   0  0  0  0  0  0  0  0  0  0  0  0
    0.7322   -3.7718    0.2062 C   0  0  2  0  0  0  0  0  0  0  0  0
   -0.1435   -2.5001    0.1970 C   0  0  0  0  0  0  0  0  0  0  0  0
   -1.3552   -2.6000    0.3565 O   0  0  0  0  0  0  0  0  0  0  0  0
    1.3484   -4.0133   -1.1741 C   0  0  0  0  0  0  0  0  0  0  0  0
   -1.0595   -4.8869    0.3700 H   0  0  0  0  0  0  0  0  0  0  0  0
    1.5321   -3.6146    0.9369 H   0  0  0  0  0  0  0  0  0  0  0  0
    0.5624   -4.1468   -1.9256 H   0  0  0  0  0  0  0  0  0  0  0  0
    1.9720   -3.1653   -1.4725 H   0  0  0  0  0  0  0  0  0  0  0  0
    1.9716   -4.9130   -1.1582 H   0  0  0  0  0  0  0  0  0  0  0  0
    0.4413   -1.2469    0.1642 N   0  0  0  0  0  0  0  0  0  0  0  0
   -0.1739   -0.0274   -0.4023 C   0  0  2  0  0  0  0  0  0  0  0  0
   -0.6674    0.9112    0.7179 C   0  0  0  0  0  0  0  0  0  0  0  0
    0.1427    1.3740    1.5163 O   0  0  0  0  0  0  0  0  0  0  0  0
   -1.1700   -0.2418   -1.5670 C   0  0  0  0  0  0  0  0  0  0  0  0
   -0.4311   -0.7768   -2.8088 C   0  0  0  0  0  0  0  0  0  0  0  0
   -1.3787   -1.0277   -3.9811 C   0  0  0  0  0  0  0  0  0  0  0  0
   -2.1053   -0.0746   -4.3573 O   0  5  0  0  0  0  0  0  0  0  0  0
   -1.3331   -2.1562   -4.5300 O   0  0  0  0  0  0  0  0  0  0  0  0
    1.4555   -1.2595    0.1595 H   0  0  0  0  0  0  0  0  0  0  0  0
    0.6490    0.5351   -0.8536 H   0  0  0  0  0  0  0  0  0  0  0  0
   -1.6255    0.7187   -1.8320 H   0  0  0  0  0  0  0  0  0  0  0  0
   -1.9869   -0.9132   -1.2902 H   0  0  0  0  0  0  0  0  0  0  0  0
    0.3269   -0.0550   -3.1252 H   0  0  0  0  0  0  0  0  0  0  0  0
    0.0784   -1.7111   -2.5627 H   0  0  0  0  0  0  0  0  0  0  0  0
   -1.9973    1.2734    0.8321 N   0  0  0  0  0  0  0  0  0  0  0  0
   -2.5481    2.0637    1.9402 C   0  0  2  0  0  0  0  0  0  0  0  0
   -3.9454    1.5762    2.3758 C   0  0  0  0  0  0  0  0  0  0  0  0
   -4.7188    1.0830    1.5641 O   0  0  0  0  0  0  0  0  0  0  0  0
   -2.6098    3.5275    1.4977 C   0  0  0  0  0  0  0  0  0  0  0  0
   -2.6599    0.7716    0.2389 H   0  0  0  0  0  0  0  0  0  0  0  0
   -1.8923    1.9818    2.8129 H   0  0  0  0  0  0  0  0  0  0  0  0
   -3.2673    3.6360    0.6287 H   0  0  0  0  0  0  0  0  0  0  0  0
   -2.9932    4.1560    2.3070 H   0  0  0  0  0  0  0  0  0  0  0  0
   -1.6108    3.8830    1.2259 H   0  0  0  0  0  0  0  0  0  0  0  0
   -4.3526    1.7241    3.6904 N   0  0  0  0  0  0  0  0  0  0  0  0
   -5.6330    1.2362    4.1874 C   0  0  0  0  0  0  0  0  0  0  0  0
   -3.6654    2.0690    4.3536 H   0  0  0  0  0  0  0  0  0  0  0  0
   -6.4584    1.6652    3.6094 H   0  0  0  0  0  0  0  0  0  0  0  0
   -5.6806    0.1447    4.1132 H   0  0  0  0  0  0  0  0  0  0  0  0
   -5.7642    1.5200    5.2358 H   0  0  0  0  0  0  0  0  0  0  0  0
  1  2  2  0  0  0  0
  1  3  1  0  0  0  0
  1  7  1  0  0  0  0
  3  4  1  0  0  0  0
  3  5  1  0  0  0  0
  3  6  1  0  0  0  0
  7  8  1  0  0  0  0
  7 12  1  0  0  0  0
  8  9  1  0  0  0  0
  8 11  1  0  0  0  0
  8 13  1  0  0  0  0
  9 10  2  0  0  0  0
  9 17  1  0  0  0  0
 11 14  1  0  0  0  0
 11 15  1  0  0  0  0
 11 16  1  0  0  0  0
 17 18  1  0  0  0  0
 17 26  1  0  0  0  0
 18 19  1  0  0  0  0
 18 21  1  0  0  0  0
 18 27  1  0  0  0  0
 19 20  2  0  0  0  0
 19 32  1  0  0  0  0
 21 22  1  0  0  0  0
 21 28  1  0  0  0  0
 21 29  1  0  0  0  0
 22 23  1  0  0  0  0
 22 30  1  0  0  0  0
 22 31  1  0  0  0  0
 23 24  1  0  0  0  0
 23 25  2  0  0  0  0
 32 33  1  0  0  0  0
 32 37  1  0  0  0  0
 33 34  1  0  0  0  0
 33 36  1  0  0  0  0
 33 38  1  0  0  0  0
 34 35  2  0  0  0  0
 34 42  1  0  0  0  0
 36 39  1  0  0  0  0
 36 40  1  0  0  0  0
 36 41  1  0  0  0  0
 42 43  1  0  0  0  0
 42 44  1  0  0  0  0
 43 45  1  0  0  0  0
 43 46  1  0  0  0  0
 43 47  1  0  0  0  0
M  CHG  1  24  -1
M  END
$$$$

  -OEChem-05262216243D

 47 46  0     1  0  0  0  0  0999 V2000
    0.3639   -5.8881    1.4873 C   0  0  0  0  0  0  0  0  0  0  0  0
    1.4771   -5.8486    1.9906 O   0  0  0  0  0  0  0  0  0  0  0  0
   -0.6419   -6.9222    1.9584 C   0  0  0  0  0  0  0  0  0  0  0  0
   -0.9495   -7.5508    1.1191 H   0  0  0  0  0  0  0  0  0  0  0  0
   -0.1994   -7.5565    2.7313 H   0  0  0  0  0  0  0  0  0  0  0  0
   -1.5219   -6.4235    2.3725 H   0  0  0  0  0  0  0  0  0  0  0  0
    0.0052   -5.0000    0.4967 N   0  0  0  0  0  0  0  0  0  0  0  0
    0.7699   -3.7954    0.1480 C   0  0  2  0  0  0  0  0  0  0  0  0
   -0.1298   -2.5410    0.1542 C   0  0  0  0  0  0  0  0  0  0  0  0
   -1.3413   -2.6627    0.2977 O   0  0  0  0  0  0  0  0  0  0  0  0
    1.3813   -4.0091   -1.2391 C   0  0  0  0  0  0  0  0  0  0  0  0
   -0.9869   -4.9682    0.2614 H   0  0  0  0  0  0  0  0  0  0  0  0
    1.5730   -3.6277    0.8727 H   0  0  0  0  0  0  0  0  0  0  0  0
    0.5931   -4.1553   -1.9858 H   0  0  0  0  0  0  0  0  0  0  0  0
    1.9804   -3.1424   -1.5343 H   0  0  0  0  0  0  0  0  0  0  0  0
    2.0279   -4.8920   -1.2368 H   0  0  0  0  0  0  0  0  0  0  0  0
    0.4356   -1.2791    0.1560 N   0  0  0  0  0  0  0  0  0  0  0  0
   -0.1941   -0.0571   -0.3866 C   0  0  2  0  0  0  0  0  0  0  0  0
   -0.7092    0.8421    0.7530 C   0  0  0  0  0  0  0  0  0  0  0  0
    0.0921    1.4789    1.4311 O   0  0  0  0  0  0  0  0  0  0  0  0
   -1.1889   -0.2489   -1.5556 C   0  0  0  0  0  0  0  0  0  0  0  0
   -0.4516   -0.7464   -2.8141 C   0  0  0  0  0  0  0  0  0  0  0  0
   -1.4033   -0.9725   -3.9887 C   0  0  0  0  0  0  0  0  0  0  0  0
   -2.1597   -0.0251   -4.3176 O   0  5  0  0  0  0  0  0  0  0  0  0
   -1.3316   -2.0747   -4.5862 O   0  0  0  0  0  0  0  0  0  0  0  0
    1.4500   -1.2794    0.1456 H   0  0  0  0  0  0  0  0  0  0  0  0
    0.6219    0.5266   -0.8237 H   0  0  0  0  0  0  0  0  0  0  0  0
   -1.6543    0.7152   -1.7895 H   0  0  0  0  0  0  0  0  0  0  0  0
   -1.9996   -0.9343   -1.2963 H   0  0  0  0  0  0  0  0  0  0  0  0
    0.2992   -0.0101   -3.1145 H   0  0  0  0  0  0  0  0  0  0  0  0
    0.0667   -1.6830   -2.5946 H   0  0  0  0  0  0  0  0  0  0  0  0
   -2.0577    0.9288    1.0450 N   0  0  0  0  0  0  0  0  0  0  0  0
   -2.6131    1.6738    2.1814 C   0  0  2  0  0  0  0  0  0  0  0  0
   -3.8350    0.9725    2.8094 C   0  0  0  0  0  0  0  0  0  0  0  0
   -4.6196    0.3363    2.1168 O   0  0  0  0  0  0  0  0  0  0  0  0
   -2.9947    3.0738    1.6934 C   0  0  0  0  0  0  0  0  0  0  0  0
   -2.6719    0.2697    0.5636 H   0  0  0  0  0  0  0  0  0  0  0  0
   -1.8554    1.7639    2.9662 H   0  0  0  0  0  0  0  0  0  0  0  0
   -3.7537    3.0101    0.9068 H   0  0  0  0  0  0  0  0  0  0  0  0
   -3.3952    3.6709    2.5182 H   0  0  0  0  0  0  0  0  0  0  0  0
   -2.1160    3.5864    1.2887 H   0  0  0  0  0  0  0  0  0  0  0  0
   -4.0749    1.0838    4.1679 N   0  0  0  0  0  0  0  0  0  0  0  0
   -5.1767    0.4076    4.8409 C   0  0  0  0  0  0  0  0  0  0  0  0
   -3.3743    1.5613    4.7265 H   0  0  0  0  0  0  0  0  0  0  0  0
   -6.1364    0.7310    4.4242 H   0  0  0  0  0  0  0  0  0  0  0  0
   -5.0891   -0.6776    4.7233 H   0  0  0  0  0  0  0  0  0  0  0  0
   -5.1673    0.6419    5.9095 H   0  0  0  0  0  0  0  0  0  0  0  0
  1  2  2  0  0  0  0
  1  3  1  0  0  0  0
  1  7  1  0  0  0  0
  3  4  1  0  0  0  0
  3  5  1  0  0  0  0
  3  6  1  0  0  0  0
  7  8  1  0  0  0  0
  7 12  1  0  0  0  0
  8  9  1  0  0  0  0
  8 11  1  0  0  0  0
  8 13  1  0  0  0  0
  9 10  2  0  0  0  0
  9 17  1  0  0  0  0
 11 14  1  0  0  0  0
 11 15  1  0  0  0  0
 11 16  1  0  0  0  0
 17 18  1  0  0  0  0
 17 26  1  0  0  0  0
 18 19  1  0  0  0  0
 18 21  1  0  0  0  0
 18 27  1  0  0  0  0
 19 20  2  0  0  0  0
 19 32  1  0  0  0  0
 21 22  1  0  0  0  0
 21 28  1  0  0  0  0
 21 29  1  0  0  0  0
 22 23  1  0  0  0  0
 22 30  1  0  0  0  0
 22 31  1  0  0  0  0
 23 24  1  0  0  0  0
 23 25  2  0  0  0  0
 32 33  1  0  0  0  0
 32 37  1  0  0  0  0
 33 34  1  0  0  0  0
 33 36  1  0  0  0  0
 33 38  1  0  0  0  0
 34 35  2  0  0  0  0
 34 42  1  0  0  0  0
 36 39  1  0  0  0  0
 36 40  1  0  0  0  0
 36 41  1  0  0  0  0
 42 43  1  0  0  0  0
 42 44  1  0  0  0  0
 43 45  1  0  0  0  0
 43 46  1  0  0  0  0
 43 47  1  0  0  0  0
M  CHG  1  24  -1
M  END
$$$$

  -OEChem-05262216243D

 47 46  0     1  0  0  0  0  0999 V2000
   -0.1090   -6.0816    1.1137 C   0  0  0  0  0  0  0  0  0  0  0  0
    0.8863   -6.2043    1.8124 O   0  0  0  0  0  0  0  0  0  0  0  0
   -1.1007   -7.2242    0.9962 C   0  0  0  0  0  0  0  0  0  0  0  0
   -1.2684   -7.4655   -0.0566 H   0  0  0  0  0  0  0  0  0  0  0  0
   -0.7166   -8.1126    1.5049 H   0  0  0  0  0  0  0  0  0  0  0  0
   -2.0521   -6.9393    1.4521 H   0  0  0  0  0  0  0  0  0  0  0  0
   -0.3482   -4.9046    0.4396 N   0  0  0  0  0  0  0  0  0  0  0  0
    0.4429   -3.6775    0.5883 C   0  0  2  0  0  0  0  0  0  0  0  0
   -0.4365   -2.4179    0.4305 C   0  0  0  0  0  0  0  0  0  0  0  0
   -1.6441   -2.5297    0.2407 O   0  0  0  0  0  0  0  0  0  0  0  0
    1.5595   -3.6986   -0.4604 C   0  0  0  0  0  0  0  0  0  0  0  0
   -1.2536   -4.8040   -0.0194 H   0  0  0  0  0  0  0  0  0  0  0  0
    0.8863   -3.6408    1.5888 H   0  0  0  0  0  0  0  0  0  0  0  0
    1.1355   -3.7444   -1.4693 H   0  0  0  0  0  0  0  0  0  0  0  0
    2.1798   -2.8007   -0.3850 H   0  0  0  0  0  0  0  0  0  0  0  0
    2.2005   -4.5733   -0.3131 H   0  0  0  0  0  0  0  0  0  0  0  0
    0.0760   -1.1619    0.7007 N   0  0  0  0  0  0  0  0  0  0  0  0
   -0.3828    0.0807    0.0464 C   0  0  2  0  0  0  0  0  0  0  0  0
   -1.2641    0.8843    1.0148 C   0  0  0  0  0  0  0  0  0  0  0  0
   -0.7634    1.6449    1.8375 O   0  0  0  0  0  0  0  0  0  0  0  0
   -0.9782   -0.0497   -1.3749 C   0  0  0  0  0  0  0  0  0  0  0  0
    0.1027   -0.4816   -2.3814 C   0  0  0  0  0  0  0  0  0  0  0  0
   -0.4705   -0.6406   -3.7891 C   0  0  0  0  0  0  0  0  0  0  0  0
   -1.0702    0.3435   -4.2886 O   0  5  0  0  0  0  0  0  0  0  0  0
   -0.2854   -1.7389   -4.3679 O   0  0  0  0  0  0  0  0  0  0  0  0
    1.0581   -1.1697    0.9565 H   0  0  0  0  0  0  0  0  0  0  0  0
    0.5098    0.7008   -0.0842 H   0  0  0  0  0  0  0  0  0  0  0  0
   -1.3669    0.9264   -1.6866 H   0  0  0  0  0  0  0  0  0  0  0  0
   -1.8206   -0.7452   -1.4069 H   0  0  0  0  0  0  0  0  0  0  0  0
    0.8984    0.2680   -2.4114 H   0  0  0  0  0  0  0  0  0  0  0  0
    0.5469   -1.4295   -2.0695 H   0  0  0  0  0  0  0  0  0  0  0  0
   -2.6274    0.6644    1.0360 N   0  0  0  0  0  0  0  0  0  0  0  0
   -3.5706    1.3225    1.9519 C   0  0  2  0  0  0  0  0  0  0  0  0
   -3.5539    0.7192    3.3796 C   0  0  0  0  0  0  0  0  0  0  0  0
   -4.5847    0.3867    3.9561 O   0  0  0  0  0  0  0  0  0  0  0  0
   -4.9531    1.2529    1.2919 C   0  0  0  0  0  0  0  0  0  0  0  0
   -2.9509   -0.1343    0.4896 H   0  0  0  0  0  0  0  0  0  0  0  0
   -3.2972    2.3784    2.0480 H   0  0  0  0  0  0  0  0  0  0  0  0
   -5.2741    0.2119    1.1839 H   0  0  0  0  0  0  0  0  0  0  0  0
   -5.6929    1.7836    1.8992 H   0  0  0  0  0  0  0  0  0  0  0  0
   -4.9258    1.7154    0.3003 H   0  0  0  0  0  0  0  0  0  0  0  0
   -2.3497    0.5894    4.0437 N   0  0  0  0  0  0  0  0  0  0  0  0
   -2.2008    0.0052    5.3682 C   0  0  0  0  0  0  0  0  0  0  0  0
   -1.5206    0.9003    3.5305 H   0  0  0  0  0  0  0  0  0  0  0  0
   -2.7908    0.5636    6.1021 H   0  0  0  0  0  0  0  0  0  0  0  0
   -2.5346   -1.0376    5.3649 H   0  0  0  0  0  0  0  0  0  0  0  0
   -1.1509    0.0325    5.6751 H   0  0  0  0  0  0  0  0  0  0  0  0
  1  2  2  0  0  0  0
  1  3  1  0  0  0  0
  1  7  1  0  0  0  0
  3  4  1  0  0  0  0
  3  5  1  0  0  0  0
  3  6  1  0  0  0  0
  7  8  1  0  0  0  0
  7 12  1  0  0  0  0
  8  9  1  0  0  0  0
  8 11  1  0  0  0  0
  8 13  1  0  0  0  0
  9 10  2  0  0  0  0
  9 17  1  0  0  0  0
 11 14  1  0  0  0  0
 11 15  1  0  0  0  0
 11 16  1  0  0  0  0
 17 18  1  0  0  0  0
 17 26  1  0  0  0  0
 18 19  1  0  0  0  0
 18 21  1  0  0  0  0
 18 27  1  0  0  0  0
 19 20  2  0  0  0  0
 19 32  1  0  0  0  0
 21 22  1  0  0  0  0
 21 28  1  0  0  0  0
 21 29  1  0  0  0  0
 22 23  1  0  0  0  0
 22 30  1  0  0  0  0
 22 31  1  0  0  0  0
 23 24  1  0  0  0  0
 23 25  2  0  0  0  0
 32 33  1  0  0  0  0
 32 37  1  0  0  0  0
 33 34  1  0  0  0  0
 33 36  1  0  0  0  0
 33 38  1  0  0  0  0
 34 35  2  0  0  0  0
 34 42  1  0  0  0  0
 36 39  1  0  0  0  0
 36 40  1  0  0  0  0
 36 41  1  0  0  0  0
 42 43  1  0  0  0  0
 42 44  1  0  0  0  0
 43 45  1  0  0  0  0
 43 46  1  0  0  0  0
 43 47  1  0  0  0  0
M  CHG  1  24  -1
M  END
$$$$

  -OEChem-05262216243D

 47 46  0     1  0  0  0  0  0999 V2000
   -0.0274   -6.2882    0.7098 C   0  0  0  0  0  0  0  0  0  0  0  0
    0.9849   -6.4734    1.3691 O   0  0  0  0  0  0  0  0  0  0  0  0
   -1.0143   -7.4210    0.4968 C   0  0  0  0  0  0  0  0  0  0  0  0
   -1.0870   -7.6550   -0.5684 H   0  0  0  0  0  0  0  0  0  0  0  0
   -0.6861   -8.3152    1.0338 H   0  0  0  0  0  0  0  0  0  0  0  0
   -2.0008   -7.1299    0.8659 H   0  0  0  0  0  0  0  0  0  0  0  0
   -0.2861   -5.0522    0.1602 N   0  0  0  0  0  0  0  0  0  0  0  0
    0.5081   -3.8429    0.4067 C   0  0  2  0  0  0  0  0  0  0  0  0
   -0.3805   -2.5796    0.4180 C   0  0  0  0  0  0  0  0  0  0  0  0
   -1.6027   -2.6822    0.3505 O   0  0  0  0  0  0  0  0  0  0  0  0
    1.5848   -3.7560   -0.6796 C   0  0  0  0  0  0  0  0  0  0  0  0
   -1.2039   -4.9126   -0.2622 H   0  0  0  0  0  0  0  0  0  0  0  0
    0.9904   -3.9071    1.3877 H   0  0  0  0  0  0  0  0  0  0  0  0
    1.1241   -3.7099   -1.6723 H   0  0  0  0  0  0  0  0  0  0  0  0
    2.2056   -2.8661   -0.5414 H   0  0  0  0  0  0  0  0  0  0  0  0
    2.2327   -4.6372   -0.6399 H   0  0  0  0  0  0  0  0  0  0  0  0
    0.1429   -1.3393    0.7355 N   0  0  0  0  0  0  0  0  0  0  0  0
   -0.3690   -0.0730    0.1700 C   0  0  2  0  0  0  0  0  0  0  0  0
   -1.2046    0.6564    1.2302 C   0  0  0  0  0  0  0  0  0  0  0  0
   -0.7599    1.6146    1.8541 O   0  0  0  0  0  0  0  0  0  0  0  0
   -1.0554   -0.1392   -1.2134 C   0  0  0  0  0  0  0  0  0  0  0  0
   -0.0377   -0.5098   -2.3061 C   0  0  0  0  0  0  0  0  0  0  0  0
   -0.6969   -0.6065   -3.6807 C   0  0  0  0  0  0  0  0  0  0  0  0
   -1.2837    0.4130   -4.1198 O   0  5  0  0  0  0  0  0  0  0  0  0
   -0.5927   -1.6968   -4.2944 O   0  0  0  0  0  0  0  0  0  0  0  0
    1.1449   -1.3549    0.8970 H   0  0  0  0  0  0  0  0  0  0  0  0
    0.5051    0.5681    0.0169 H   0  0  0  0  0  0  0  0  0  0  0  0
   -1.4695    0.8475   -1.4494 H   0  0  0  0  0  0  0  0  0  0  0  0
   -1.8945   -0.8395   -1.2250 H   0  0  0  0  0  0  0  0  0  0  0  0
    0.7489    0.2489   -2.3496 H   0  0  0  0  0  0  0  0  0  0  0  0
    0.4333   -1.4657   -2.0699 H   0  0  0  0  0  0  0  0  0  0  0  0
   -2.4673    0.1758    1.5124 N   0  0  0  0  0  0  0  0  0  0  0  0
   -3.4204    0.7858    2.4500 C   0  0  2  0  0  0  0  0  0  0  0  0
   -3.0847    0.5199    3.9401 C   0  0  0  0  0  0  0  0  0  0  0  0
   -3.9274    0.1124    4.7336 O   0  0  0  0  0  0  0  0  0  0  0  0
   -4.8116    0.2766    2.0541 C   0  0  0  0  0  0  0  0  0  0  0  0
   -2.7020   -0.7191    1.0762 H   0  0  0  0  0  0  0  0  0  0  0  0
   -3.4071    1.8714    2.3096 H   0  0  0  0  0  0  0  0  0  0  0  0
   -4.8792   -0.8067    2.1983 H   0  0  0  0  0  0  0  0  0  0  0  0
   -5.5820    0.7578    2.6644 H   0  0  0  0  0  0  0  0  0  0  0  0
   -5.0148    0.5024    1.0025 H   0  0  0  0  0  0  0  0  0  0  0  0
   -1.8184    0.8099    4.4095 N   0  0  0  0  0  0  0  0  0  0  0  0
   -1.3970    0.6564    5.7936 C   0  0  0  0  0  0  0  0  0  0  0  0
   -1.1627    1.1886    3.7200 H   0  0  0  0  0  0  0  0  0  0  0  0
   -2.0103    1.2800    6.4520 H   0  0  0  0  0  0  0  0  0  0  0  0
   -1.4896   -0.3884    6.1077 H   0  0  0  0  0  0  0  0  0  0  0  0
   -0.3517    0.9612    5.9032 H   0  0  0  0  0  0  0  0  0  0  0  0
  1  2  2  0  0  0  0
  1  3  1  0  0  0  0
  1  7  1  0  0  0  0
  3  4  1  0  0  0  0
  3  5  1  0  0  0  0
  3  6  1  0  0  0  0
  7  8  1  0  0  0  0
  7 12  1  0  0  0  0
  8  9  1  0  0  0  0
  8 11  1  0  0  0  0
  8 13  1  0  0  0  0
  9 10  2  0  0  0  0
  9 17  1  0  0  0  0
 11 14  1  0  0  0  0
 11 15  1  0  0  0  0
 11 16  1  0  0  0  0
 17 18  1  0  0  0  0
 17 26  1  0  0  0  0
 18 19  1  0  0  0  0
 18 21  1  0  0  0  0
 18 27  1  0  0  0  0
 19 20  2  0  0  0  0
 19 32  1  0  0  0  0
 21 22  1  0  0  0  0
 21 28  1  0  0  0  0
 21 29  1  0  0  0  0
 22 23  1  0  0  0  0
 22 30  1  0  0  0  0
 22 31  1  0  0  0  0
 23 24  1  0  0  0  0
 23 25  2  0  0  0  0
 32 33  1  0  0  0  0
 32 37  1  0  0  0  0
 33 34  1  0  0  0  0
 33 36  1  0  0  0  0
 33 38  1  0  0  0  0
 34 35  2  0  0  0  0
 34 42  1  0  0  0  0
 36 39  1  0  0  0  0
 36 40  1  0  0  0  0
 36 41  1  0  0  0  0
 42 43  1  0  0  0  0
 42 44  1  0  0  0  0
 43 45  1  0  0  0  0
 43 46  1  0  0  0  0
 43 47  1  0  0  0  0
M  CHG  1  24  -1
M  END
$$$$

  -OEChem-05262216243D

 47 46  0     1  0  0  0  0  0999 V2000
    0.0126   -6.2635    0.7943 C   0  0  0  0  0  0  0  0  0  0  0  0
    1.0303   -6.3846    1.4603 O   0  0  0  0  0  0  0  0  0  0  0  0
   -1.0279   -7.3686    0.7935 C   0  0  0  0  0  0  0  0  0  0  0  0
   -1.1501   -7.7648   -0.2176 H   0  0  0  0  0  0  0  0  0  0  0  0
   -0.7170   -8.1813    1.4558 H   0  0  0  0  0  0  0  0  0  0  0  0
   -1.9871   -6.9773    1.1416 H   0  0  0  0  0  0  0  0  0  0  0  0
   -0.2056   -5.1268    0.0462 N   0  0  0  0  0  0  0  0  0  0  0  0
    0.5976   -3.9013    0.1471 C   0  0  2  0  0  0  0  0  0  0  0  0
   -0.2961   -2.6503    0.2916 C   0  0  0  0  0  0  0  0  0  0  0  0
   -1.5199   -2.7578    0.3079 O   0  0  0  0  0  0  0  0  0  0  0  0
    1.4750   -3.8125   -1.1041 C   0  0  0  0  0  0  0  0  0  0  0  0
   -1.1403   -5.0148   -0.3454 H   0  0  0  0  0  0  0  0  0  0  0  0
    1.2412   -3.9406    1.0317 H   0  0  0  0  0  0  0  0  0  0  0  0
    0.8546   -3.7615   -2.0057 H   0  0  0  0  0  0  0  0  0  0  0  0
    2.1104   -2.9226   -1.0688 H   0  0  0  0  0  0  0  0  0  0  0  0
    2.1201   -4.6938   -1.1761 H   0  0  0  0  0  0  0  0  0  0  0  0
    0.2349   -1.4332    0.6765 N   0  0  0  0  0  0  0  0  0  0  0  0
   -0.2956   -0.1303    0.2170 C   0  0  2  0  0  0  0  0  0  0  0  0
   -1.0983    0.5218    1.3508 C   0  0  0  0  0  0  0  0  0  0  0  0
   -0.7463    1.5748    1.8723 O   0  0  0  0  0  0  0  0  0  0  0  0
   -1.0388   -0.1155   -1.1370 C   0  0  0  0  0  0  0  0  0  0  0  0
   -0.0690   -0.4187   -2.2924 C   0  0  0  0  0  0  0  0  0  0  0  0
   -0.7867   -0.4349   -3.6406 C   0  0  0  0  0  0  0  0  0  0  0  0
   -1.3695    0.6155   -4.0058 O   0  5  0  0  0  0  0  0  0  0  0  0
   -0.7317   -1.4969   -4.3081 O   0  0  0  0  0  0  0  0  0  0  0  0
    1.2436   -1.4578    0.7891 H   0  0  0  0  0  0  0  0  0  0  0  0
    0.5713    0.5228    0.0742 H   0  0  0  0  0  0  0  0  0  0  0  0
   -1.4636    0.8819   -1.2967 H   0  0  0  0  0  0  0  0  0  0  0  0
   -1.8768   -0.8173   -1.1516 H   0  0  0  0  0  0  0  0  0  0  0  0
    0.7150    0.3433   -2.3243 H   0  0  0  0  0  0  0  0  0  0  0  0
    0.4123   -1.3850   -2.1351 H   0  0  0  0  0  0  0  0  0  0  0  0
   -2.1930   -0.1592    1.8443 N   0  0  0  0  0  0  0  0  0  0  0  0
   -3.1031    0.3351    2.8863 C   0  0  2  0  0  0  0  0  0  0  0  0
   -2.5238    0.2065    4.3181 C   0  0  0  0  0  0  0  0  0  0  0  0
   -3.1593   -0.3055    5.2346 O   0  0  0  0  0  0  0  0  0  0  0  0
   -4.4281   -0.4157    2.7091 C   0  0  0  0  0  0  0  0  0  0  0  0
   -2.3591   -1.0811    1.4295 H   0  0  0  0  0  0  0  0  0  0  0  0
   -3.2938    1.3993    2.7138 H   0  0  0  0  0  0  0  0  0  0  0  0
   -4.2893   -1.4868    2.8884 H   0  0  0  0  0  0  0  0  0  0  0  0
   -5.1767   -0.0386    3.4127 H   0  0  0  0  0  0  0  0  0  0  0  0
   -4.8098   -0.2780    1.6926 H   0  0  0  0  0  0  0  0  0  0  0  0
   -1.2746    0.7304    4.5880 N   0  0  0  0  0  0  0  0  0  0  0  0
   -0.6312    0.6995    5.8926 C   0  0  0  0  0  0  0  0  0  0  0  0
   -0.7987    1.1770    3.7990 H   0  0  0  0  0  0  0  0  0  0  0  0
   -1.2536    1.2039    6.6387 H   0  0  0  0  0  0  0  0  0  0  0  0
   -0.4624   -0.3340    6.2115 H   0  0  0  0  0  0  0  0  0  0  0  0
    0.3353    1.2101    5.8459 H   0  0  0  0  0  0  0  0  0  0  0  0
  1  2  2  0  0  0  0
  1  3  1  0  0  0  0
  1  7  1  0  0  0  0
  3  4  1  0  0  0  0
  3  5  1  0  0  0  0
  3  6  1  0  0  0  0
  7  8  1  0  0  0  0
  7 12  1  0  0  0  0
  8  9  1  0  0  0  0
  8 11  1  0  0  0  0
  8 13  1  0  0  0  0
  9 10  2  0  0  0  0
  9 17  1  0  0  0  0
 11 14  1  0  0  0  0
 11 15  1  0  0  0  0
 11 16  1  0  0  0  0
 17 18  1  0  0  0  0
 17 26  1  0  0  0  0
 18 19  1  0  0  0  0
 18 21  1  0  0  0  0
 18 27  1  0  0  0  0
 19 20  2  0  0  0  0
 19 32  1  0  0  0  0
 21 22  1  0  0  0  0
 21 28  1  0  0  0  0
 21 29  1  0  0  0  0
 22 23  1  0  0  0  0
 22 30  1  0  0  0  0
 22 31  1  0  0  0  0
 23 24  1  0  0  0  0
 23 25  2  0  0  0  0
 32 33  1  0  0  0  0
 32 37  1  0  0  0  0
 33 34  1  0  0  0  0
 33 36  1  0  0  0  0
 33 38  1  0  0  0  0
 34 35  2  0  0  0  0
 34 42  1  0  0  0  0
 36 39  1  0  0  0  0
 36 40  1  0  0  0  0
 36 41  1  0  0  0  0
 42 43  1  0  0  0  0
 42 44  1  0  0  0  0
 43 45  1  0  0  0  0
 43 46  1  0  0  0  0
 43 47  1  0  0  0  0
M  CHG  1  24  -1
M  END
$$$$

  -OEChem-05262216243D

 47 46  0     1  0  0  0  0  0999 V2000
    0.0191   -6.4371    0.4897 C   0  0  0  0  0  0  0  0  0  0  0  0
    1.0936   -6.6489    1.0322 O   0  0  0  0  0  0  0  0  0  0  0  0
   -1.0525   -7.5116    0.4822 C   0  0  0  0  0  0  0  0  0  0  0  0
   -1.2971   -7.7866   -0.5469 H   0  0  0  0  0  0  0  0  0  0  0  0
   -0.7003   -8.4013    1.0115 H   0  0  0  0  0  0  0  0  0  0  0  0
   -1.9545   -7.1414    0.9762 H   0  0  0  0  0  0  0  0  0  0  0  0
   -0.2373   -5.2221   -0.1069 N   0  0  0  0  0  0  0  0  0  0  0  0
    0.6163   -4.0348    0.0243 C   0  0  2  0  0  0  0  0  0  0  0  0
   -0.2260   -2.7677    0.2906 C   0  0  0  0  0  0  0  0  0  0  0  0
   -1.4442   -2.8489    0.4266 O   0  0  0  0  0  0  0  0  0  0  0  0
    1.4349   -3.9012   -1.2625 C   0  0  0  0  0  0  0  0  0  0  0  0
   -1.2006   -5.0488   -0.3934 H   0  0  0  0  0  0  0  0  0  0  0  0
    1.2995   -4.1512    0.8719 H   0  0  0  0  0  0  0  0  0  0  0  0
    0.7733   -3.7935   -2.1291 H   0  0  0  0  0  0  0  0  0  0  0  0
    2.0917   -3.0276   -1.2155 H   0  0  0  0  0  0  0  0  0  0  0  0
    2.0553   -4.7907   -1.4095 H   0  0  0  0  0  0  0  0  0  0  0  0
    0.3628   -1.5829    0.6905 N   0  0  0  0  0  0  0  0  0  0  0  0
   -0.1537   -0.2450    0.3166 C   0  0  2  0  0  0  0  0  0  0  0  0
   -0.8708    0.3904    1.5179 C   0  0  0  0  0  0  0  0  0  0  0  0
   -0.6296    1.5349    1.8863 O   0  0  0  0  0  0  0  0  0  0  0  0
   -0.9845   -0.1659   -0.9830 C   0  0  0  0  0  0  0  0  0  0  0  0
   -0.1045   -0.4584   -2.2113 C   0  0  0  0  0  0  0  0  0  0  0  0
   -0.9102   -0.4115   -3.5078 C   0  0  0  0  0  0  0  0  0  0  0  0
   -1.4555    0.6752   -3.8201 O   0  5  0  0  0  0  0  0  0  0  0  0
   -0.9600   -1.4643   -4.1904 O   0  0  0  0  0  0  0  0  0  0  0  0
    1.3759   -1.6405    0.7218 H   0  0  0  0  0  0  0  0  0  0  0  0
    0.7211    0.3891    0.1417 H   0  0  0  0  0  0  0  0  0  0  0  0
   -1.3893    0.8475   -1.0833 H   0  0  0  0  0  0  0  0  0  0  0  0
   -1.8418   -0.8441   -0.9596 H   0  0  0  0  0  0  0  0  0  0  0  0
    0.6983    0.2817   -2.2733 H   0  0  0  0  0  0  0  0  0  0  0  0
    0.3574   -1.4419   -2.1183 H   0  0  0  0  0  0  0  0  0  0  0  0
   -1.7425   -0.3956    2.2452 N   0  0  0  0  0  0  0  0  0  0  0  0
   -2.6229    0.0862    3.3175 C   0  0  2  0  0  0  0  0  0  0  0  0
   -1.8945    0.2649    4.6736 C   0  0  0  0  0  0  0  0  0  0  0  0
   -2.3266   -0.2208    5.7146 O   0  0  0  0  0  0  0  0  0  0  0  0
   -3.7964   -0.8978    3.3967 C   0  0  0  0  0  0  0  0  0  0  0  0
   -1.9042   -1.3290    1.8551 H   0  0  0  0  0  0  0  0  0  0  0  0
   -3.0226    1.0664    3.0374 H   0  0  0  0  0  0  0  0  0  0  0  0
   -3.4440   -1.8926    3.6881 H   0  0  0  0  0  0  0  0  0  0  0  0
   -4.5295   -0.5584    4.1349 H   0  0  0  0  0  0  0  0  0  0  0  0
   -4.2952   -0.9746    2.4253 H   0  0  0  0  0  0  0  0  0  0  0  0
   -0.7483    1.0337    4.7247 N   0  0  0  0  0  0  0  0  0  0  0  0
    0.0112    1.3029    5.9361 C   0  0  0  0  0  0  0  0  0  0  0  0
   -0.4436    1.4391    3.8347 H   0  0  0  0  0  0  0  0  0  0  0  0
   -0.6103    1.8283    6.6681 H   0  0  0  0  0  0  0  0  0  0  0  0
    0.3674    0.3677    6.3798 H   0  0  0  0  0  0  0  0  0  0  0  0
    0.8782    1.9288    5.7040 H   0  0  0  0  0  0  0  0  0  0  0  0
  1  2  2  0  0  0  0
  1  3  1  0  0  0  0
  1  7  1  0  0  0  0
  3  4  1  0  0  0  0
  3  5  1  0  0  0  0
  3  6  1  0  0  0  0
  7  8  1  0  0  0  0
  7 12  1  0  0  0  0
  8  9  1  0  0  0  0
  8 11  1  0  0  0  0
  8 13  1  0  0  0  0
  9 10  2  0  0  0  0
  9 17  1  0  0  0  0
 11 14  1  0  0  0  0
 11 15  1  0  0  0  0
 11 16  1  0  0  0  0
 17 18  1  0  0  0  0
 17 26  1  0  0  0  0
 18 19  1  0  0  0  0
 18 21  1  0  0  0  0
 18 27  1  0  0  0  0
 19 20  2  0  0  0  0
 19 32  1  0  0  0  0
 21 22  1  0  0  0  0
 21 28  1  0  0  0  0
 21 29  1  0  0  0  0
 22 23  1  0  0  0  0
 22 30  1  0  0  0  0
 22 31  1  0  0  0  0
 23 24  1  0  0  0  0
 23 25  2  0  0  0  0
 32 33  1  0  0  0  0
 32 37  1  0  0  0  0
 33 34  1  0  0  0  0
 33 36  1  0  0  0  0
 33 38  1  0  0  0  0
 34 35  2  0  0  0  0
 34 42  1  0  0  0  0
 36 39  1  0  0  0  0
 36 40  1  0  0  0  0
 36 41  1  0  0  0  0
 42 43  1  0  0  0  0
 42 44  1  0  0  0  0
 43 45  1  0  0  0  0
 43 46  1  0  0  0  0
 43 47  1  0  0  0  0
M  CHG  1  24  -1
M  END
$$$$

  -OEChem-05262216243D

 47 46  0     1  0  0  0  0  0999 V2000
    0.4684   -6.2514    0.9171 C   0  0  0  0  0  0  0  0  0  0  0  0
    1.6731   -6.3593    1.0937 O   0  0  0  0  0  0  0  0  0  0  0  0
   -0.4772   -7.2893    1.4931 C   0  0  0  0  0  0  0  0  0  0  0  0
   -1.0042   -7.8008    0.6842 H   0  0  0  0  0  0  0  0  0  0  0  0
    0.0803   -8.0282    2.0750 H   0  0  0  0  0  0  0  0  0  0  0  0
   -1.2084   -6.8062    2.1460 H   0  0  0  0  0  0  0  0  0  0  0  0
   -0.0445   -5.1892    0.2048 N   0  0  0  0  0  0  0  0  0  0  0  0
    0.7273   -4.0031   -0.1863 C   0  0  2  0  0  0  0  0  0  0  0  0
   -0.0743   -2.7072    0.0650 C   0  0  0  0  0  0  0  0  0  0  0  0
   -1.2401   -2.7682    0.4427 O   0  0  0  0  0  0  0  0  0  0  0  0
    1.0953   -4.1427   -1.6654 C   0  0  0  0  0  0  0  0  0  0  0  0
   -1.0572   -5.0690    0.2269 H   0  0  0  0  0  0  0  0  0  0  0  0
    1.6448   -3.9383    0.4076 H   0  0  0  0  0  0  0  0  0  0  0  0
    0.1914   -4.1748   -2.2840 H   0  0  0  0  0  0  0  0  0  0  0  0
    1.7093   -3.2976   -1.9907 H   0  0  0  0  0  0  0  0  0  0  0  0
    1.6622   -5.0645   -1.8293 H   0  0  0  0  0  0  0  0  0  0  0  0
    0.5631   -1.4843    0.1611 N   0  0  0  0  0  0  0  0  0  0  0  0
   -0.0368   -0.1916   -0.2506 C   0  0  2  0  0  0  0  0  0  0  0  0
   -0.4751    0.6244    0.9796 C   0  0  0  0  0  0  0  0  0  0  0  0
   -0.3972    1.8474    0.9894 O   0  0  0  0  0  0  0  0  0  0  0  0
   -1.1292   -0.2654   -1.3410 C   0  0  0  0  0  0  0  0  0  0  0  0
   -0.5273   -0.7201   -2.6841 C   0  0  0  0  0  0  0  0  0  0  0  0
   -1.5856   -0.8291   -3.7807 C   0  0  0  0  0  0  0  0  0  0  0  0
   -2.2203    0.2089   -4.0913 O   0  5  0  0  0  0  0  0  0  0  0  0
   -1.7273   -1.9496   -4.3305 O   0  0  0  0  0  0  0  0  0  0  0  0
    1.5631   -1.5483   -0.0010 H   0  0  0  0  0  0  0  0  0  0  0  0
    0.7742    0.3947   -0.6938 H   0  0  0  0  0  0  0  0  0  0  0  0
   -1.5617    0.7323   -1.4781 H   0  0  0  0  0  0  0  0  0  0  0  0
   -1.9504   -0.9249   -1.0480 H   0  0  0  0  0  0  0  0  0  0  0  0
    0.2301    0.0000   -3.0062 H   0  0  0  0  0  0  0  0  0  0  0  0
   -0.0383   -1.6887   -2.5692 H   0  0  0  0  0  0  0  0  0  0  0  0
   -0.8745   -0.0413    2.1219 N   0  0  0  0  0  0  0  0  0  0  0  0
   -1.3024    0.5949    3.3720 C   0  0  2  0  0  0  0  0  0  0  0  0
   -0.7636   -0.1156    4.6320 C   0  0  0  0  0  0  0  0  0  0  0  0
   -0.4032   -1.2871    4.6032 O   0  0  0  0  0  0  0  0  0  0  0  0
   -2.8323    0.6151    3.3806 C   0  0  0  0  0  0  0  0  0  0  0  0
   -0.9378   -1.0592    2.0435 H   0  0  0  0  0  0  0  0  0  0  0  0
   -0.9341    1.6250    3.4047 H   0  0  0  0  0  0  0  0  0  0  0  0
   -3.2280   -0.4055    3.3554 H   0  0  0  0  0  0  0  0  0  0  0  0
   -3.2054    1.1132    4.2801 H   0  0  0  0  0  0  0  0  0  0  0  0
   -3.2072    1.1554    2.5054 H   0  0  0  0  0  0  0  0  0  0  0  0
   -0.7015    0.5732    5.8308 N   0  0  0  0  0  0  0  0  0  0  0  0
   -0.2037   -0.0120    7.0687 C   0  0  0  0  0  0  0  0  0  0  0  0
   -0.9885    1.5473    5.8245 H   0  0  0  0  0  0  0  0  0  0  0  0
   -0.8247   -0.8633    7.3660 H   0  0  0  0  0  0  0  0  0  0  0  0
    0.8286   -0.3548    6.9424 H   0  0  0  0  0  0  0  0  0  0  0  0
   -0.2261    0.7299    7.8725 H   0  0  0  0  0  0  0  0  0  0  0  0
  1  2  2  0  0  0  0
  1  3  1  0  0  0  0
  1  7  1  0  0  0  0
  3  4  1  0  0  0  0
  3  5  1  0  0  0  0
  3  6  1  0  0  0  0
  7  8  1  0  0  0  0
  7 12  1  0  0  0  0
  8  9  1  0  0  0  0
  8 11  1  0  0  0  0
  8 13  1  0  0  0  0
  9 10  2  0  0  0  0
  9 17  1  0  0  0  0
 11 14  1  0  0  0  0
 11 15  1  0  0  0  0
 11 16  1  0  0  0  0
 17 18  1  0  0  0  0
 17 26  1  0  0  0  0
 18 19  1  0  0  0  0
 18 21  1  0  0  0  0
 18 27  1  0  0  0  0
 19 20  2  0  0  0  0
 19 32  1  0  0  0  0
 21 22  1  0  0  0  0
 21 28  1  0  0  0  0
 21 29  1  0  0  0  0
 22 23  1  0  0  0  0
 22 30  1  0  0  0  0
 22 31  1  0  0  0  0
 23 24  1  0  0  0  0
 23 25  2  0  0  0  0
 32 33  1  0  0  0  0
 32 37  1  0  0  0  0
 33 34  1  0  0  0  0
 33 36  1  0  0  0  0
 33 38  1  0  0  0  0
 34 35  2  0  0  0  0
 34 42  1  0  0  0  0
 36 39  1  0  0  0  0
 36 40  1  0  0  0  0
 36 41  1  0  0  0  0
 42 43  1  0  0  0  0
 42 44  1  0  0  0  0
 43 45  1  0  0  0  0
 43 46  1  0  0  0  0
 43 47  1  0  0  0  0
M  CHG  1  24  -1
M  END
$$$$

  -OEChem-05262216243D

 47 46  0     1  0  0  0  0  0999 V2000
    0.4668   -6.3149    0.8470 C   0  0  0  0  0  0  0  0  0  0  0  0
    1.6764   -6.4616    0.9437 O   0  0  0  0  0  0  0  0  0  0  0  0
   -0.4722   -7.3444    1.4480 C   0  0  0  0  0  0  0  0  0  0  0  0
   -1.0970   -7.7807    0.6647 H   0  0  0  0  0  0  0  0  0  0  0  0
    0.0995   -8.1419    1.9304 H   0  0  0  0  0  0  0  0  0  0  0  0
   -1.1149   -6.8704    2.1941 H   0  0  0  0  0  0  0  0  0  0  0  0
   -0.0567   -5.2129    0.2080 N   0  0  0  0  0  0  0  0  0  0  0  0
    0.7253   -4.0400   -0.2001 C   0  0  2  0  0  0  0  0  0  0  0  0
   -0.0451   -2.7323    0.0868 C   0  0  0  0  0  0  0  0  0  0  0  0
   -1.1815   -2.7794    0.5451 O   0  0  0  0  0  0  0  0  0  0  0  0
    1.0465   -4.1773   -1.6905 C   0  0  0  0  0  0  0  0  0  0  0  0
   -1.0625   -5.0656    0.2934 H   0  0  0  0  0  0  0  0  0  0  0  0
    1.6611   -3.9976    0.3667 H   0  0  0  0  0  0  0  0  0  0  0  0
    0.1241   -4.2018   -2.2811 H   0  0  0  0  0  0  0  0  0  0  0  0
    1.6560   -3.3361   -2.0331 H   0  0  0  0  0  0  0  0  0  0  0  0
    1.6016   -5.1023   -1.8745 H   0  0  0  0  0  0  0  0  0  0  0  0
    0.6096   -1.5150    0.1192 N   0  0  0  0  0  0  0  0  0  0  0  0
   -0.0057   -0.2211   -0.2687 C   0  0  2  0  0  0  0  0  0  0  0  0
   -0.3551    0.6332    0.9665 C   0  0  0  0  0  0  0  0  0  0  0  0
   -0.5085    1.8455    0.8753 O   0  0  0  0  0  0  0  0  0  0  0  0
   -1.1603   -0.3072   -1.2931 C   0  0  0  0  0  0  0  0  0  0  0  0
   -0.6360   -0.7813   -2.6613 C   0  0  0  0  0  0  0  0  0  0  0  0
   -1.7568   -0.9022   -3.6924 C   0  0  0  0  0  0  0  0  0  0  0  0
   -2.3431    0.1495   -4.0478 O   0  5  0  0  0  0  0  0  0  0  0  0
   -1.9957   -2.0474   -4.1496 O   0  0  0  0  0  0  0  0  0  0  0  0
    1.5912   -1.5952   -0.1262 H   0  0  0  0  0  0  0  0  0  0  0  0
    0.7812    0.3490   -0.7713 H   0  0  0  0  0  0  0  0  0  0  0  0
   -1.6012    0.6879   -1.4203 H   0  0  0  0  0  0  0  0  0  0  0  0
   -1.9630   -0.9626   -0.9442 H   0  0  0  0  0  0  0  0  0  0  0  0
    0.1061   -0.0705   -3.0357 H   0  0  0  0  0  0  0  0  0  0  0  0
   -0.1452   -1.7503   -2.5607 H   0  0  0  0  0  0  0  0  0  0  0  0
   -0.3823    0.0509    2.2186 N   0  0  0  0  0  0  0  0  0  0  0  0
   -0.7234    0.7443    3.4647 C   0  0  2  0  0  0  0  0  0  0  0  0
   -0.0272    0.1324    4.6985 C   0  0  0  0  0  0  0  0  0  0  0  0
    0.4310   -1.0049    4.6748 O   0  0  0  0  0  0  0  0  0  0  0  0
   -2.2456    0.7013    3.6325 C   0  0  0  0  0  0  0  0  0  0  0  0
   -0.3062   -0.9670    2.2374 H   0  0  0  0  0  0  0  0  0  0  0  0
   -0.4009    1.7887    3.3982 H   0  0  0  0  0  0  0  0  0  0  0  0
   -2.5942   -0.3346    3.6964 H   0  0  0  0  0  0  0  0  0  0  0  0
   -2.5478    1.2289    4.5419 H   0  0  0  0  0  0  0  0  0  0  0  0
   -2.7347    1.1799    2.7777 H   0  0  0  0  0  0  0  0  0  0  0  0
    0.0833    0.8750    5.8607 N   0  0  0  0  0  0  0  0  0  0  0  0
    0.7317    0.3829    7.0690 C   0  0  0  0  0  0  0  0  0  0  0  0
   -0.2843    1.8216    5.8460 H   0  0  0  0  0  0  0  0  0  0  0  0
    0.2308   -0.5210    7.4312 H   0  0  0  0  0  0  0  0  0  0  0  0
    1.7830    0.1488    6.8713 H   0  0  0  0  0  0  0  0  0  0  0  0
    0.6878    1.1416    7.8561 H   0  0  0  0  0  0  0  0  0  0  0  0
  1  2  2  0  0  0  0
  1  3  1  0  0  0  0
  1  7  1  0  0  0  0
  3  4  1  0  0  0  0
  3  5  1  0  0  0  0
  3  6  1  0  0  0  0
  7  8  1  0  0  0  0
  7 12  1  0  0  0  0
  8  9  1  0  0  0  0
  8 11  1  0  0  0  0
  8 13  1  0  0  0  0
  9 10  2  0  0  0  0
  9 17  1  0  0  0  0
 11 14  1  0  0  0  0
 11 15  1  0  0  0  0
 11 16  1  0  0  0  0
 17 18  1  0  0  0  0
 17 26  1  0  0  0  0
 18 19  1  0  0  0  0
 18 21  1  0  0  0  0
 18 27  1  0  0  0  0
 19 20  2  0  0  0  0
 19 32  1  0  0  0  0
 21 22  1  0  0  0  0
 21 28  1  0  0  0  0
 21 29  1  0  0  0  0
 22 23  1  0  0  0  0
 22 30  1  0  0  0  0
 22 31  1  0  0  0  0
 23 24  1  0  0  0  0
 23 25  2  0  0  0  0
 32 33  1  0  0  0  0
 32 37  1  0  0  0  0
 33 34  1  0  0  0  0
 33 36  1  0  0  0  0
 33 38  1  0  0  0  0
 34 35  2  0  0  0  0
 34 42  1  0  0  0  0
 36 39  1  0  0  0  0
 36 40  1  0  0  0  0
 36 41  1  0  0  0  0
 42 43  1  0  0  0  0
 42 44  1  0  0  0  0
 43 45  1  0  0  0  0
 43 46  1  0  0  0  0
 43 47  1  0  0  0  0
M  CHG  1  24  -1
M  END
$$$$

  -OEChem-05262216243D

 47 46  0     1  0  0  0  0  0999 V2000
    0.3849   -6.2925    0.9292 C   0  0  0  0  0  0  0  0  0  0  0  0
    1.5894   -6.4372    1.0781 O   0  0  0  0  0  0  0  0  0  0  0  0
   -0.5787   -7.3017    1.5254 C   0  0  0  0  0  0  0  0  0  0  0  0
   -1.1693   -7.7655    0.7315 H   0  0  0  0  0  0  0  0  0  0  0  0
   -0.0278   -8.0813    2.0584 H   0  0  0  0  0  0  0  0  0  0  0  0
   -1.2524   -6.8036    2.2271 H   0  0  0  0  0  0  0  0  0  0  0  0
   -0.1114   -5.2134    0.2315 N   0  0  0  0  0  0  0  0  0  0  0  0
    0.6874   -4.0542   -0.1855 C   0  0  2  0  0  0  0  0  0  0  0  0
   -0.0562   -2.7308    0.1045 C   0  0  0  0  0  0  0  0  0  0  0  0
   -1.1900   -2.7586    0.5700 O   0  0  0  0  0  0  0  0  0  0  0  0
    0.9876   -4.2035   -1.6792 C   0  0  0  0  0  0  0  0  0  0  0  0
   -1.1186   -5.0602    0.2819 H   0  0  0  0  0  0  0  0  0  0  0  0
    1.6312   -4.0268    0.3692 H   0  0  0  0  0  0  0  0  0  0  0  0
    0.0582   -4.2018   -2.2596 H   0  0  0  0  0  0  0  0  0  0  0  0
    1.6179   -3.3812   -2.0304 H   0  0  0  0  0  0  0  0  0  0  0  0
    1.5122   -5.1453   -1.8678 H   0  0  0  0  0  0  0  0  0  0  0  0
    0.6199   -1.5233    0.0992 N   0  0  0  0  0  0  0  0  0  0  0  0
    0.0162   -0.2222   -0.2876 C   0  0  2  0  0  0  0  0  0  0  0  0
   -0.2803    0.6596    0.9452 C   0  0  0  0  0  0  0  0  0  0  0  0
   -0.6611    1.8180    0.8265 O   0  0  0  0  0  0  0  0  0  0  0  0
   -1.1583   -0.3071   -1.2918 C   0  0  0  0  0  0  0  0  0  0  0  0
   -0.6594   -0.8023   -2.6630 C   0  0  0  0  0  0  0  0  0  0  0  0
   -1.7928   -0.9259   -3.6805 C   0  0  0  0  0  0  0  0  0  0  0  0
   -2.4187    0.1160   -3.9946 O   0  5  0  0  0  0  0  0  0  0  0  0
   -1.9961   -2.0625   -4.1756 O   0  0  0  0  0  0  0  0  0  0  0  0
    1.5918   -1.6248   -0.1758 H   0  0  0  0  0  0  0  0  0  0  0  0
    0.8007    0.3288   -0.8143 H   0  0  0  0  0  0  0  0  0  0  0  0
   -1.5909    0.6909   -1.4254 H   0  0  0  0  0  0  0  0  0  0  0  0
   -1.9628   -0.9483   -0.9216 H   0  0  0  0  0  0  0  0  0  0  0  0
    0.0828   -0.1018   -3.0560 H   0  0  0  0  0  0  0  0  0  0  0  0
   -0.1747   -1.7737   -2.5565 H   0  0  0  0  0  0  0  0  0  0  0  0
    0.0177    0.1937    2.2111 N   0  0  0  0  0  0  0  0  0  0  0  0
   -0.2459    0.9163    3.4595 C   0  0  2  0  0  0  0  0  0  0  0  0
    0.7056    0.4990    4.6006 C   0  0  0  0  0  0  0  0  0  0  0  0
    1.3368   -0.5514    4.5499 O   0  0  0  0  0  0  0  0  0  0  0  0
   -1.7023    0.6597    3.8593 C   0  0  0  0  0  0  0  0  0  0  0  0
    0.2774   -0.7898    2.2730 H   0  0  0  0  0  0  0  0  0  0  0  0
   -0.1025    1.9890    3.2939 H   0  0  0  0  0  0  0  0  0  0  0  0
   -1.8716   -0.4099    4.0202 H   0  0  0  0  0  0  0  0  0  0  0  0
   -1.9489    1.1956    4.7803 H   0  0  0  0  0  0  0  0  0  0  0  0
   -2.3786    1.0028    3.0697 H   0  0  0  0  0  0  0  0  0  0  0  0
    0.8503    1.3161    5.7079 N   0  0  0  0  0  0  0  0  0  0  0  0
    1.7217    0.9990    6.8317 C   0  0  0  0  0  0  0  0  0  0  0  0
    0.3261    2.1860    5.7180 H   0  0  0  0  0  0  0  0  0  0  0  0
    1.4069    0.0646    7.3082 H   0  0  0  0  0  0  0  0  0  0  0  0
    2.7579    0.8918    6.4943 H   0  0  0  0  0  0  0  0  0  0  0  0
    1.6818    1.7983    7.5777 H   0  0  0  0  0  0  0  0  0  0  0  0
  1  2  2  0  0  0  0
  1  3  1  0  0  0  0
  1  7  1  0  0  0  0
  3  4  1  0  0  0  0
  3  5  1  0  0  0  0
  3  6  1  0  0  0  0
  7  8  1  0  0  0  0
  7 12  1  0  0  0  0
  8  9  1  0  0  0  0
  8 11  1  0  0  0  0
  8 13  1  0  0  0  0
  9 10  2  0  0  0  0
  9 17  1  0  0  0  0
 11 14  1  0  0  0  0
 11 15  1  0  0  0  0
 11 16  1  0  0  0  0
 17 18  1  0  0  0  0
 17 26  1  0  0  0  0
 18 19  1  0  0  0  0
 18 21  1  0  0  0  0
 18 27  1  0  0  0  0
 19 20  2  0  0  0  0
 19 32  1  0  0  0  0
 21 22  1  0  0  0  0
 21 28  1  0  0  0  0
 21 29  1  0  0  0  0
 22 23  1  0  0  0  0
 22 30  1  0  0  0  0
 22 31  1  0  0  0  0
 23 24  1  0  0  0  0
 23 25  2  0  0  0  0
 32 33  1  0  0  0  0
 32 37  1  0  0  0  0
 33 34  1  0  0  0  0
 33 36  1  0  0  0  0
 33 38  1  0  0  0  0
 34 35  2  0  0  0  0
 34 42  1  0  0  0  0
 36 39  1  0  0  0  0
 36 40  1  0  0  0  0
 36 41  1  0  0  0  0
 42 43  1  0  0  0  0
 42 44  1  0  0  0  0
 43 45  1  0  0  0  0
 43 46  1  0  0  0  0
 43 47  1  0  0  0  0
M  CHG  1  24  -1
M  END
$$$$

  -OEChem-05262216243D

 47 46  0     1  0  0  0  0  0999 V2000
    0.3380   -6.2234    1.0478 C   0  0  0  0  0  0  0  0  0  0  0  0
    1.5366   -6.3618    1.2431 O   0  0  0  0  0  0  0  0  0  0  0  0
   -0.6469   -7.1921    1.6759 C   0  0  0  0  0  0  0  0  0  0  0  0
   -1.1796   -7.7407    0.8954 H   0  0  0  0  0  0  0  0  0  0  0  0
   -0.1198   -7.9069    2.3138 H   0  0  0  0  0  0  0  0  0  0  0  0
   -1.3710   -6.6440    2.2841 H   0  0  0  0  0  0  0  0  0  0  0  0
   -0.1333   -5.1843    0.2759 N   0  0  0  0  0  0  0  0  0  0  0  0
    0.6758   -4.0340   -0.1467 C   0  0  2  0  0  0  0  0  0  0  0  0
   -0.0625   -2.7046    0.1272 C   0  0  0  0  0  0  0  0  0  0  0  0
   -1.1938   -2.7257    0.5986 O   0  0  0  0  0  0  0  0  0  0  0  0
    0.9854   -4.1987   -1.6364 C   0  0  0  0  0  0  0  0  0  0  0  0
   -1.1406   -5.0251    0.2980 H   0  0  0  0  0  0  0  0  0  0  0  0
    1.6161   -4.0049    0.4131 H   0  0  0  0  0  0  0  0  0  0  0  0
    0.0598   -4.1964   -2.2229 H   0  0  0  0  0  0  0  0  0  0  0  0
    1.6242   -3.3842   -1.9907 H   0  0  0  0  0  0  0  0  0  0  0  0
    1.5054   -5.1454   -1.8116 H   0  0  0  0  0  0  0  0  0  0  0  0
    0.6153   -1.4979    0.0896 N   0  0  0  0  0  0  0  0  0  0  0  0
   -0.0011   -0.2062   -0.3086 C   0  0  2  0  0  0  0  0  0  0  0  0
   -0.2756    0.6938    0.9178 C   0  0  0  0  0  0  0  0  0  0  0  0
   -0.8978    1.7451    0.8260 O   0  0  0  0  0  0  0  0  0  0  0  0
   -1.1744   -0.3144   -1.3140 C   0  0  0  0  0  0  0  0  0  0  0  0
   -0.6602   -0.8174   -2.6769 C   0  0  0  0  0  0  0  0  0  0  0  0
   -1.7851   -0.9665   -3.6992 C   0  0  0  0  0  0  0  0  0  0  0  0
   -2.3403    0.0784   -4.1183 O   0  5  0  0  0  0  0  0  0  0  0  0
   -2.0504   -2.1291   -4.0942 O   0  0  0  0  0  0  0  0  0  0  0  0
    1.5775   -1.6069   -0.2156 H   0  0  0  0  0  0  0  0  0  0  0  0
    0.7776    0.3411   -0.8483 H   0  0  0  0  0  0  0  0  0  0  0  0
   -1.6189    0.6760   -1.4632 H   0  0  0  0  0  0  0  0  0  0  0  0
   -1.9722   -0.9613   -0.9400 H   0  0  0  0  0  0  0  0  0  0  0  0
    0.0756   -0.1118   -3.0727 H   0  0  0  0  0  0  0  0  0  0  0  0
   -0.1630   -1.7811   -2.5589 H   0  0  0  0  0  0  0  0  0  0  0  0
    0.3213    0.3957    2.1281 N   0  0  0  0  0  0  0  0  0  0  0  0
    0.1290    1.1472    3.3726 C   0  0  2  0  0  0  0  0  0  0  0  0
    1.2964    0.9513    4.3632 C   0  0  0  0  0  0  0  0  0  0  0  0
    2.0876    0.0226    4.2326 O   0  0  0  0  0  0  0  0  0  0  0  0
   -1.1897    0.6934    4.0086 C   0  0  0  0  0  0  0  0  0  0  0  0
    0.7951   -0.5038    2.1854 H   0  0  0  0  0  0  0  0  0  0  0  0
    0.0700    2.2166    3.1444 H   0  0  0  0  0  0  0  0  0  0  0  0
   -1.1573   -0.3782    4.2297 H   0  0  0  0  0  0  0  0  0  0  0  0
   -1.3767    1.2375    4.9389 H   0  0  0  0  0  0  0  0  0  0  0  0
   -2.0255    0.8815    3.3270 H   0  0  0  0  0  0  0  0  0  0  0  0
    1.4583    1.8283    5.4212 N   0  0  0  0  0  0  0  0  0  0  0  0
    2.5285    1.7148    6.4034 C   0  0  0  0  0  0  0  0  0  0  0  0
    0.7936    2.5923    5.4999 H   0  0  0  0  0  0  0  0  0  0  0  0
    2.4587    0.7613    6.9371 H   0  0  0  0  0  0  0  0  0  0  0  0
    3.5058    1.7749    5.9134 H   0  0  0  0  0  0  0  0  0  0  0  0
    2.4574    2.5260    7.1340 H   0  0  0  0  0  0  0  0  0  0  0  0
  1  2  2  0  0  0  0
  1  3  1  0  0  0  0
  1  7  1  0  0  0  0
  3  4  1  0  0  0  0
  3  5  1  0  0  0  0
  3  6  1  0  0  0  0
  7  8  1  0  0  0  0
  7 12  1  0  0  0  0
  8  9  1  0  0  0  0
  8 11  1  0  0  0  0
  8 13  1  0  0  0  0
  9 10  2  0  0  0  0
  9 17  1  0  0  0  0
 11 14  1  0  0  0  0
 11 15  1  0  0  0  0
 11 16  1  0  0  0  0
 17 18  1  0  0  0  0
 17 26  1  0  0  0  0
 18 19  1  0  0  0  0
 18 21  1  0  0  0  0
 18 27  1  0  0  0  0
 19 20  2  0  0  0  0
 19 32  1  0  0  0  0
 21 22  1  0  0  0  0
 21 28  1  0  0  0  0
 21 29  1  0  0  0  0
 22 23  1  0  0  0  0
 22 30  1  0  0  0  0
 22 31  1  0  0  0  0
 23 24  1  0  0  0  0
 23 25  2  0  0  0  0
 32 33  1  0  0  0  0
 32 37  1  0  0  0  0
 33 34  1  0  0  0  0
 33 36  1  0  0  0  0
 33 38  1  0  0  0  0
 34 35  2  0  0  0  0
 34 42  1  0  0  0  0
 36 39  1  0  0  0  0
 36 40  1  0  0  0  0
 36 41  1  0  0  0  0
 42 43  1  0  0  0  0
 42 44  1  0  0  0  0
 43 45  1  0  0  0  0
 43 46  1  0  0  0  0
 43 47  1  0  0  0  0
M  CHG  1  24  -1
M  END
$$$$

  -OEChem-05262216243D

 47 46  0     1  0  0  0  0  0999 V2000
    0.3222   -6.1484    1.1813 C   0  0  0  0  0  0  0  0  0  0  0  0
    1.5165   -6.2561    1.4181 O   0  0  0  0  0  0  0  0  0  0  0  0
   -0.6641   -7.1098    1.8188 C   0  0  0  0  0  0  0  0  0  0  0  0
   -1.1894   -7.6724    1.0432 H   0  0  0  0  0  0  0  0  0  0  0  0
   -0.1392   -7.8129    2.4712 H   0  0  0  0  0  0  0  0  0  0  0  0
   -1.3943   -6.5549    2.4134 H   0  0  0  0  0  0  0  0  0  0  0  0
   -0.1434   -5.1544    0.3486 N   0  0  0  0  0  0  0  0  0  0  0  0
    0.6586   -4.0108   -0.1065 C   0  0  2  0  0  0  0  0  0  0  0  0
   -0.0781   -2.6760    0.1465 C   0  0  0  0  0  0  0  0  0  0  0  0
   -1.2161   -2.6908    0.6012 O   0  0  0  0  0  0  0  0  0  0  0  0
    0.9495   -4.2062   -1.5963 C   0  0  0  0  0  0  0  0  0  0  0  0
   -1.1529   -5.0085    0.3424 H   0  0  0  0  0  0  0  0  0  0  0  0
    1.6066   -3.9684    0.4391 H   0  0  0  0  0  0  0  0  0  0  0  0
    0.0169   -4.2124   -2.1715 H   0  0  0  0  0  0  0  0  0  0  0  0
    1.5858   -3.4005   -1.9743 H   0  0  0  0  0  0  0  0  0  0  0  0
    1.4653   -5.1575   -1.7596 H   0  0  0  0  0  0  0  0  0  0  0  0
    0.6055   -1.4726    0.0959 N   0  0  0  0  0  0  0  0  0  0  0  0
   -0.0046   -0.1841   -0.3187 C   0  0  2  0  0  0  0  0  0  0  0  0
   -0.2748    0.7258    0.9021 C   0  0  0  0  0  0  0  0  0  0  0  0
   -1.1012    1.6300    0.8807 O   0  0  0  0  0  0  0  0  0  0  0  0
   -1.1654   -0.2976   -1.3388 C   0  0  0  0  0  0  0  0  0  0  0  0
   -0.6334   -0.8102   -2.6918 C   0  0  0  0  0  0  0  0  0  0  0  0
   -1.7436   -0.9654   -3.7294 C   0  0  0  0  0  0  0  0  0  0  0  0
   -2.2851    0.0777   -4.1708 O   0  5  0  0  0  0  0  0  0  0  0  0
   -2.0067   -2.1311   -4.1171 O   0  0  0  0  0  0  0  0  0  0  0  0
    1.5654   -1.5915   -0.2117 H   0  0  0  0  0  0  0  0  0  0  0  0
    0.7794    0.3562   -0.8569 H   0  0  0  0  0  0  0  0  0  0  0  0
   -1.6065    0.6922   -1.5012 H   0  0  0  0  0  0  0  0  0  0  0  0
   -1.9687   -0.9409   -0.9705 H   0  0  0  0  0  0  0  0  0  0  0  0
    0.1087   -0.1081   -3.0829 H   0  0  0  0  0  0  0  0  0  0  0  0
   -0.1389   -1.7736   -2.5599 H   0  0  0  0  0  0  0  0  0  0  0  0
    0.5456    0.6278    2.0106 N   0  0  0  0  0  0  0  0  0  0  0  0
    0.3966    1.4119    3.2411 C   0  0  2  0  0  0  0  0  0  0  0  0
    1.7098    1.4870    4.0475 C   0  0  0  0  0  0  0  0  0  0  0  0
    2.6196    0.6885    3.8468 O   0  0  0  0  0  0  0  0  0  0  0  0
   -0.7109    0.7759    4.0888 C   0  0  0  0  0  0  0  0  0  0  0  0
    1.2030   -0.1487    2.0227 H   0  0  0  0  0  0  0  0  0  0  0  0
    0.1110    2.4370    2.9836 H   0  0  0  0  0  0  0  0  0  0  0  0
   -0.4520   -0.2569    4.3431 H   0  0  0  0  0  0  0  0  0  0  0  0
   -0.8577    1.3380    5.0155 H   0  0  0  0  0  0  0  0  0  0  0  0
   -1.6564    0.7702    3.5371 H   0  0  0  0  0  0  0  0  0  0  0  0
    1.8690    2.4612    5.0168 N   0  0  0  0  0  0  0  0  0  0  0  0
    3.0717    2.6012    5.8272 C   0  0  0  0  0  0  0  0  0  0  0  0
    1.1051    3.1178    5.1481 H   0  0  0  0  0  0  0  0  0  0  0  0
    3.2287    1.7050    6.4364 H   0  0  0  0  0  0  0  0  0  0  0  0
    3.9493    2.7530    5.1899 H   0  0  0  0  0  0  0  0  0  0  0  0
    2.9777    3.4624    6.4955 H   0  0  0  0  0  0  0  0  0  0  0  0
  1  2  2  0  0  0  0
  1  3  1  0  0  0  0
  1  7  1  0  0  0  0
  3  4  1  0  0  0  0
  3  5  1  0  0  0  0
  3  6  1  0  0  0  0
  7  8  1  0  0  0  0
  7 12  1  0  0  0  0
  8  9  1  0  0  0  0
  8 11  1  0  0  0  0
  8 13  1  0  0  0  0
  9 10  2  0  0  0  0
  9 17  1  0  0  0  0
 11 14  1  0  0  0  0
 11 15  1  0  0  0  0
 11 16  1  0  0  0  0
 17 18  1  0  0  0  0
 17 26  1  0  0  0  0
 18 19  1  0  0  0  0
 18 21  1  0  0  0  0
 18 27  1  0  0  0  0
 19 20  2  0  0  0  0
 19 32  1  0  0  0  0
 21 22  1  0  0  0  0
 21 28  1  0  0  0  0
 21 29  1  0  0  0  0
 22 23  1  0  0  0  0
 22 30  1  0  0  0  0
 22 31  1  0  0  0  0
 23 24  1  0  0  0  0
 23 25  2  0  0  0  0
 32 33  1  0  0  0  0
 32 37  1  0  0  0  0
 33 34  1  0  0  0  0
 33 36  1  0  0  0  0
 33 38  1  0  0  0  0
 34 35  2  0  0  0  0
 34 42  1  0  0  0  0
 36 39  1  0  0  0  0
 36 40  1  0  0  0  0
 36 41  1  0  0  0  0
 42 43  1  0  0  0  0
 42 44  1  0  0  0  0
 43 45  1  0  0  0  0
 43 46  1  0  0  0  0
 43 47  1  0  0  0  0
M  CHG  1  24  -1
M  END
$$$$

  -OEChem-05262216243D

 47 46  0     1  0  0  0  0  0999 V2000
    0.3311   -6.0541    1.3106 C   0  0  0  0  0  0  0  0  0  0  0  0
    1.5097   -6.1085    1.6305 O   0  0  0  0  0  0  0  0  0  0  0  0
   -0.6681   -7.0019    1.9483 C   0  0  0  0  0  0  0  0  0  0  0  0
   -1.1251   -7.6323    1.1815 H   0  0  0  0  0  0  0  0  0  0  0  0
   -0.1687   -7.6419    2.6810 H   0  0  0  0  0  0  0  0  0  0  0  0
   -1.4510   -6.4311    2.4541 H   0  0  0  0  0  0  0  0  0  0  0  0
   -0.1067   -5.1345    0.3828 N   0  0  0  0  0  0  0  0  0  0  0  0
    0.6830   -3.9822   -0.0717 C   0  0  2  0  0  0  0  0  0  0  0  0
   -0.0786   -2.6578    0.1587 C   0  0  0  0  0  0  0  0  0  0  0  0
   -1.2269   -2.6879    0.5855 O   0  0  0  0  0  0  0  0  0  0  0  0
    0.9933   -4.1870   -1.5563 C   0  0  0  0  0  0  0  0  0  0  0  0
   -1.1180   -5.0199    0.3146 H   0  0  0  0  0  0  0  0  0  0  0  0
    1.6243   -3.9180    0.4835 H   0  0  0  0  0  0  0  0  0  0  0  0
    0.0676   -4.2124   -2.1423 H   0  0  0  0  0  0  0  0  0  0  0  0
    1.6222   -3.3762   -1.9352 H   0  0  0  0  0  0  0  0  0  0  0  0
    1.5246   -5.1319   -1.7048 H   0  0  0  0  0  0  0  0  0  0  0  0
    0.5903   -1.4466    0.0999 N   0  0  0  0  0  0  0  0  0  0  0  0
   -0.0288   -0.1677   -0.3264 C   0  0  2  0  0  0  0  0  0  0  0  0
   -0.3084    0.7437    0.8901 C   0  0  0  0  0  0  0  0  0  0  0  0
   -1.3004    1.4575    0.9724 O   0  0  0  0  0  0  0  0  0  0  0  0
   -1.1813   -0.2969   -1.3531 C   0  0  0  0  0  0  0  0  0  0  0  0
   -0.6308   -0.8124   -2.6976 C   0  0  0  0  0  0  0  0  0  0  0  0
   -1.7275   -0.9850   -3.7460 C   0  0  0  0  0  0  0  0  0  0  0  0
   -2.2770    0.0511   -4.1943 O   0  5  0  0  0  0  0  0  0  0  0  0
   -1.9661   -2.1538   -4.1402 O   0  0  0  0  0  0  0  0  0  0  0  0
    1.5547   -1.5584   -0.1952 H   0  0  0  0  0  0  0  0  0  0  0  0
    0.7520    0.3761   -0.8657 H   0  0  0  0  0  0  0  0  0  0  0  0
   -1.6299    0.6881   -1.5233 H   0  0  0  0  0  0  0  0  0  0  0  0
   -1.9817   -0.9453   -0.9874 H   0  0  0  0  0  0  0  0  0  0  0  0
    0.1081   -0.1055   -3.0853 H   0  0  0  0  0  0  0  0  0  0  0  0
   -0.1288   -1.7706   -2.5546 H   0  0  0  0  0  0  0  0  0  0  0  0
    0.6705    0.8873    1.8564 N   0  0  0  0  0  0  0  0  0  0  0  0
    0.5571    1.7280    3.0530 C   0  0  2  0  0  0  0  0  0  0  0  0
    1.9373    2.0772    3.6476 C   0  0  0  0  0  0  0  0  0  0  0  0
    2.9367    1.4381    3.3328 O   0  0  0  0  0  0  0  0  0  0  0  0
   -0.2934    0.9879    4.0918 C   0  0  0  0  0  0  0  0  0  0  0  0
    1.4875    0.2863    1.7805 H   0  0  0  0  0  0  0  0  0  0  0  0
    0.0652    2.6695    2.7868 H   0  0  0  0  0  0  0  0  0  0  0  0
    0.1773    0.0378    4.3640 H   0  0  0  0  0  0  0  0  0  0  0  0
   -0.4098    1.5925    4.9960 H   0  0  0  0  0  0  0  0  0  0  0  0
   -1.2897    0.7784    3.6892 H   0  0  0  0  0  0  0  0  0  0  0  0
    2.0584    3.1161    4.5533 N   0  0  0  0  0  0  0  0  0  0  0  0
    3.3234    3.5082    5.1604 C   0  0  0  0  0  0  0  0  0  0  0  0
    1.2161    3.6344    4.7855 H   0  0  0  0  0  0  0  0  0  0  0  0
    3.7405    2.6807    5.7436 H   0  0  0  0  0  0  0  0  0  0  0  0
    4.0451    3.7957    4.3886 H   0  0  0  0  0  0  0  0  0  0  0  0
    3.1736    4.3614    5.8287 H   0  0  0  0  0  0  0  0  0  0  0  0
  1  2  2  0  0  0  0
  1  3  1  0  0  0  0
  1  7  1  0  0  0  0
  3  4  1  0  0  0  0
  3  5  1  0  0  0  0
  3  6  1  0  0  0  0
  7  8  1  0  0  0  0
  7 12  1  0  0  0  0
  8  9  1  0  0  0  0
  8 11  1  0  0  0  0
  8 13  1  0  0  0  0
  9 10  2  0  0  0  0
  9 17  1  0  0  0  0
 11 14  1  0  0  0  0
 11 15  1  0  0  0  0
 11 16  1  0  0  0  0
 17 18  1  0  0  0  0
 17 26  1  0  0  0  0
 18 19  1  0  0  0  0
 18 21  1  0  0  0  0
 18 27  1  0  0  0  0
 19 20  2  0  0  0  0
 19 32  1  0  0  0  0
 21 22  1  0  0  0  0
 21 28  1  0  0  0  0
 21 29  1  0  0  0  0
 22 23  1  0  0  0  0
 22 30  1  0  0  0  0
 22 31  1  0  0  0  0
 23 24  1  0  0  0  0
 23 25  2  0  0  0  0
 32 33  1  0  0  0  0
 32 37  1  0  0  0  0
 33 34  1  0  0  0  0
 33 36  1  0  0  0  0
 33 38  1  0  0  0  0
 34 35  2  0  0  0  0
 34 42  1  0  0  0  0
 36 39  1  0  0  0  0
 36 40  1  0  0  0  0
 36 41  1  0  0  0  0
 42 43  1  0  0  0  0
 42 44  1  0  0  0  0
 43 45  1  0  0  0  0
 43 46  1  0  0  0  0
 43 47  1  0  0  0  0
M  CHG  1  24  -1
M  END
$$$$

  -OEChem-05262216243D

 47 46  0     1  0  0  0  0  0999 V2000
    0.3418   -6.0344    1.3672 C   0  0  0  0  0  0  0  0  0  0  0  0
    1.5178   -6.0774    1.6989 O   0  0  0  0  0  0  0  0  0  0  0  0
   -0.6581   -6.9826    2.0028 C   0  0  0  0  0  0  0  0  0  0  0  0
   -1.1271   -7.5995    1.2323 H   0  0  0  0  0  0  0  0  0  0  0  0
   -0.1565   -7.6356    2.7223 H   0  0  0  0  0  0  0  0  0  0  0  0
   -1.4319   -6.4124    2.5233 H   0  0  0  0  0  0  0  0  0  0  0  0
   -0.0951   -5.1240    0.4298 N   0  0  0  0  0  0  0  0  0  0  0  0
    0.6895   -3.9688   -0.0256 C   0  0  2  0  0  0  0  0  0  0  0  0
   -0.0921   -2.6502    0.1703 C   0  0  0  0  0  0  0  0  0  0  0  0
   -1.2577   -2.6932    0.5448 O   0  0  0  0  0  0  0  0  0  0  0  0
    1.0306   -4.1883   -1.5012 C   0  0  0  0  0  0  0  0  0  0  0  0
   -1.1066   -5.0149    0.3543 H   0  0  0  0  0  0  0  0  0  0  0  0
    1.6190   -3.8867    0.5467 H   0  0  0  0  0  0  0  0  0  0  0  0
    0.1164   -4.2379   -2.1030 H   0  0  0  0  0  0  0  0  0  0  0  0
    1.6506   -3.3700   -1.8791 H   0  0  0  0  0  0  0  0  0  0  0  0
    1.5815   -5.1255   -1.6272 H   0  0  0  0  0  0  0  0  0  0  0  0
    0.5713   -1.4352    0.1198 N   0  0  0  0  0  0  0  0  0  0  0  0
   -0.0357   -0.1539   -0.3132 C   0  0  2  0  0  0  0  0  0  0  0  0
   -0.3296    0.7567    0.9002 C   0  0  0  0  0  0  0  0  0  0  0  0
   -1.4262    1.2624    1.1052 O   0  0  0  0  0  0  0  0  0  0  0  0
   -1.1746   -0.2718   -1.3555 C   0  0  0  0  0  0  0  0  0  0  0  0
   -0.6097   -0.7869   -2.6952 C   0  0  0  0  0  0  0  0  0  0  0  0
   -1.6920   -0.9486   -3.7612 C   0  0  0  0  0  0  0  0  0  0  0  0
   -2.2579    0.0908   -4.1809 O   0  5  0  0  0  0  0  0  0  0  0  0
   -1.8981   -2.1071   -4.2016 O   0  0  0  0  0  0  0  0  0  0  0  0
    1.5482   -1.5411   -0.1310 H   0  0  0  0  0  0  0  0  0  0  0  0
    0.7536    0.3863   -0.8433 H   0  0  0  0  0  0  0  0  0  0  0  0
   -1.6153    0.7171   -1.5253 H   0  0  0  0  0  0  0  0  0  0  0  0
   -1.9836   -0.9169   -1.0024 H   0  0  0  0  0  0  0  0  0  0  0  0
    0.1406   -0.0846   -3.0700 H   0  0  0  0  0  0  0  0  0  0  0  0
   -0.1172   -1.7497   -2.5469 H   0  0  0  0  0  0  0  0  0  0  0  0
    0.7214    1.1472    1.7111 N   0  0  0  0  0  0  0  0  0  0  0  0
    0.6088    2.0525    2.8601 C   0  0  2  0  0  0  0  0  0  0  0  0
    1.9634    2.6980    3.2193 C   0  0  0  0  0  0  0  0  0  0  0  0
    3.0141    2.2205    2.8015 O   0  0  0  0  0  0  0  0  0  0  0  0
    0.0665    1.2599    4.0548 C   0  0  0  0  0  0  0  0  0  0  0  0
    1.6397    0.7583    1.5107 H   0  0  0  0  0  0  0  0  0  0  0  0
   -0.0878    2.8615    2.6159 H   0  0  0  0  0  0  0  0  0  0  0  0
    0.7436    0.4375    4.3063 H   0  0  0  0  0  0  0  0  0  0  0  0
   -0.0389    1.9070    4.9303 H   0  0  0  0  0  0  0  0  0  0  0  0
   -0.9166    0.8400    3.8186 H   0  0  0  0  0  0  0  0  0  0  0  0
    2.0054    3.8230    4.0232 N   0  0  0  0  0  0  0  0  0  0  0  0
    3.2422    4.4963    4.3985 C   0  0  0  0  0  0  0  0  0  0  0  0
    1.1187    4.2057    4.3388 H   0  0  0  0  0  0  0  0  0  0  0  0
    3.8828    3.8240    4.9789 H   0  0  0  0  0  0  0  0  0  0  0  0
    3.7884    4.8215    3.5068 H   0  0  0  0  0  0  0  0  0  0  0  0
    3.0227    5.3775    5.0089 H   0  0  0  0  0  0  0  0  0  0  0  0
  1  2  2  0  0  0  0
  1  3  1  0  0  0  0
  1  7  1  0  0  0  0
  3  4  1  0  0  0  0
  3  5  1  0  0  0  0
  3  6  1  0  0  0  0
  7  8  1  0  0  0  0
  7 12  1  0  0  0  0
  8  9  1  0  0  0  0
  8 11  1  0  0  0  0
  8 13  1  0  0  0  0
  9 10  2  0  0  0  0
  9 17  1  0  0  0  0
 11 14  1  0  0  0  0
 11 15  1  0  0  0  0
 11 16  1  0  0  0  0
 17 18  1  0  0  0  0
 17 26  1  0  0  0  0
 18 19  1  0  0  0  0
 18 21  1  0  0  0  0
 18 27  1  0  0  0  0
 19 20  2  0  0  0  0
 19 32  1  0  0  0  0
 21 22  1  0  0  0  0
 21 28  1  0  0  0  0
 21 29  1  0  0  0  0
 22 23  1  0  0  0  0
 22 30  1  0  0  0  0
 22 31  1  0  0  0  0
 23 24  1  0  0  0  0
 23 25  2  0  0  0  0
 32 33  1  0  0  0  0
 32 37  1  0  0  0  0
 33 34  1  0  0  0  0
 33 36  1  0  0  0  0
 33 38  1  0  0  0  0
 34 35  2  0  0  0  0
 34 42  1  0  0  0  0
 36 39  1  0  0  0  0
 36 40  1  0  0  0  0
 36 41  1  0  0  0  0
 42 43  1  0  0  0  0
 42 44  1  0  0  0  0
 43 45  1  0  0  0  0
 43 46  1  0  0  0  0
 43 47  1  0  0  0  0
M  CHG  1  24  -1
M  END
$$$$

  -OEChem-05262216243D

 47 46  0     1  0  0  0  0  0999 V2000
    0.3497   -6.0442    1.3839 C   0  0  0  0  0  0  0  0  0  0  0  0
    1.5284   -6.0941    1.7050 O   0  0  0  0  0  0  0  0  0  0  0  0
   -0.6467   -6.9980    2.0164 C   0  0  0  0  0  0  0  0  0  0  0  0
   -1.1477   -7.5813    1.2402 H   0  0  0  0  0  0  0  0  0  0  0  0
   -0.1353   -7.6832    2.6978 H   0  0  0  0  0  0  0  0  0  0  0  0
   -1.3955   -6.4342    2.5786 H   0  0  0  0  0  0  0  0  0  0  0  0
   -0.0919   -5.1209    0.4617 N   0  0  0  0  0  0  0  0  0  0  0  0
    0.6946   -3.9665    0.0085 C   0  0  2  0  0  0  0  0  0  0  0  0
   -0.0951   -2.6505    0.1839 C   0  0  0  0  0  0  0  0  0  0  0  0
   -1.2737   -2.6994    0.5125 O   0  0  0  0  0  0  0  0  0  0  0  0
    1.0580   -4.1923   -1.4612 C   0  0  0  0  0  0  0  0  0  0  0  0
   -1.1037   -5.0083    0.3910 H   0  0  0  0  0  0  0  0  0  0  0  0
    1.6147   -3.8769    0.5945 H   0  0  0  0  0  0  0  0  0  0  0  0
    0.1524   -4.2523   -2.0749 H   0  0  0  0  0  0  0  0  0  0  0  0
    1.6766   -3.3718   -1.8368 H   0  0  0  0  0  0  0  0  0  0  0  0
    1.6174   -5.1261   -1.5737 H   0  0  0  0  0  0  0  0  0  0  0  0
    0.5714   -1.4370    0.1459 N   0  0  0  0  0  0  0  0  0  0  0  0
   -0.0182   -0.1488   -0.2872 C   0  0  2  0  0  0  0  0  0  0  0  0
   -0.3221    0.7643    0.9216 C   0  0  0  0  0  0  0  0  0  0  0  0
   -1.4612    1.0456    1.2725 O   0  0  0  0  0  0  0  0  0  0  0  0
   -1.1525   -0.2412   -1.3350 C   0  0  0  0  0  0  0  0  0  0  0  0
   -0.5916   -0.7563   -2.6757 C   0  0  0  0  0  0  0  0  0  0  0  0
   -1.6734   -0.8916   -3.7460 C   0  0  0  0  0  0  0  0  0  0  0  0
   -2.2451    0.1585   -4.1313 O   0  5  0  0  0  0  0  0  0  0  0  0
   -1.8685   -2.0349   -4.2289 O   0  0  0  0  0  0  0  0  0  0  0  0
    1.5572   -1.5428   -0.0660 H   0  0  0  0  0  0  0  0  0  0  0  0
    0.7813    0.3805   -0.8132 H   0  0  0  0  0  0  0  0  0  0  0  0
   -1.5752    0.7567   -1.4976 H   0  0  0  0  0  0  0  0  0  0  0  0
   -1.9733   -0.8757   -0.9898 H   0  0  0  0  0  0  0  0  0  0  0  0
    0.1728   -0.0658   -3.0432 H   0  0  0  0  0  0  0  0  0  0  0  0
   -0.1186   -1.7299   -2.5308 H   0  0  0  0  0  0  0  0  0  0  0  0
    0.7256    1.4024    1.5623 N   0  0  0  0  0  0  0  0  0  0  0  0
    0.5741    2.3749    2.6505 C   0  0  2  0  0  0  0  0  0  0  0  0
    1.7998    3.3041    2.7658 C   0  0  0  0  0  0  0  0  0  0  0  0
    2.8673    2.9970    2.2439 O   0  0  0  0  0  0  0  0  0  0  0  0
    0.3630    1.6131    3.9637 C   0  0  0  0  0  0  0  0  0  0  0  0
    1.6666    1.2382    1.2116 H   0  0  0  0  0  0  0  0  0  0  0  0
   -0.2995    3.0051    2.4528 H   0  0  0  0  0  0  0  0  0  0  0  0
    1.2242    0.9717    4.1757 H   0  0  0  0  0  0  0  0  0  0  0  0
    0.2329    2.3105    4.7964 H   0  0  0  0  0  0  0  0  0  0  0  0
   -0.5310    0.9844    3.8997 H   0  0  0  0  0  0  0  0  0  0  0  0
    1.7057    4.4923    3.4675 N   0  0  0  0  0  0  0  0  0  0  0  0
    2.8115    5.4300    3.6106 C   0  0  0  0  0  0  0  0  0  0  0  0
    0.8018    4.7286    3.8668 H   0  0  0  0  0  0  0  0  0  0  0  0
    3.6459    4.9587    4.1404 H   0  0  0  0  0  0  0  0  0  0  0  0
    3.1603    5.7640    2.6279 H   0  0  0  0  0  0  0  0  0  0  0  0
    2.4911    6.3075    4.1801 H   0  0  0  0  0  0  0  0  0  0  0  0
  1  2  2  0  0  0  0
  1  3  1  0  0  0  0
  1  7  1  0  0  0  0
  3  4  1  0  0  0  0
  3  5  1  0  0  0  0
  3  6  1  0  0  0  0
  7  8  1  0  0  0  0
  7 12  1  0  0  0  0
  8  9  1  0  0  0  0
  8 11  1  0  0  0  0
  8 13  1  0  0  0  0
  9 10  2  0  0  0  0
  9 17  1  0  0  0  0
 11 14  1  0  0  0  0
 11 15  1  0  0  0  0
 11 16  1  0  0  0  0
 17 18  1  0  0  0  0
 17 26  1  0  0  0  0
 18 19  1  0  0  0  0
 18 21  1  0  0  0  0
 18 27  1  0  0  0  0
 19 20  2  0  0  0  0
 19 32  1  0  0  0  0
 21 22  1  0  0  0  0
 21 28  1  0  0  0  0
 21 29  1  0  0  0  0
 22 23  1  0  0  0  0
 22 30  1  0  0  0  0
 22 31  1  0  0  0  0
 23 24  1  0  0  0  0
 23 25  2  0  0  0  0
 32 33  1  0  0  0  0
 32 37  1  0  0  0  0
 33 34  1  0  0  0  0
 33 36  1  0  0  0  0
 33 38  1  0  0  0  0
 34 35  2  0  0  0  0
 34 42  1  0  0  0  0
 36 39  1  0  0  0  0
 36 40  1  0  0  0  0
 36 41  1  0  0  0  0
 42 43  1  0  0  0  0
 42 44  1  0  0  0  0
 43 45  1  0  0  0  0
 43 46  1  0  0  0  0
 43 47  1  0  0  0  0
M  CHG  1  24  -1
M  END
$$$$

  -OEChem-05262216243D

 47 46  0     1  0  0  0  0  0999 V2000
    0.3430   -6.0767    1.3660 C   0  0  0  0  0  0  0  0  0  0  0  0
    1.5259   -6.1510    1.6661 O   0  0  0  0  0  0  0  0  0  0  0  0
   -0.6548   -7.0438    1.9760 C   0  0  0  0  0  0  0  0  0  0  0  0
   -1.1821   -7.5832    1.1852 H   0  0  0  0  0  0  0  0  0  0  0  0
   -0.1403   -7.7671    2.6144 H   0  0  0  0  0  0  0  0  0  0  0  0
   -1.3824   -6.4950    2.5793 H   0  0  0  0  0  0  0  0  0  0  0  0
   -0.1016   -5.1156    0.4851 N   0  0  0  0  0  0  0  0  0  0  0  0
    0.6947   -3.9635    0.0442 C   0  0  2  0  0  0  0  0  0  0  0  0
   -0.0876   -2.6434    0.2204 C   0  0  0  0  0  0  0  0  0  0  0  0
   -1.2739   -2.6910    0.5196 O   0  0  0  0  0  0  0  0  0  0  0  0
    1.0622   -4.1804   -1.4258 C   0  0  0  0  0  0  0  0  0  0  0  0
   -1.1126   -4.9889    0.4296 H   0  0  0  0  0  0  0  0  0  0  0  0
    1.6113   -3.8840    0.6369 H   0  0  0  0  0  0  0  0  0  0  0  0
    0.1584   -4.2292   -2.0435 H   0  0  0  0  0  0  0  0  0  0  0  0
    1.6875   -3.3608   -1.7924 H   0  0  0  0  0  0  0  0  0  0  0  0
    1.6152   -5.1174   -1.5432 H   0  0  0  0  0  0  0  0  0  0  0  0
    0.5880   -1.4340    0.1864 N   0  0  0  0  0  0  0  0  0  0  0  0
    0.0146   -0.1388   -0.2470 C   0  0  2  0  0  0  0  0  0  0  0  0
   -0.2905    0.7867    0.9520 C   0  0  0  0  0  0  0  0  0  0  0  0
   -1.3965    0.8458    1.4739 O   0  0  0  0  0  0  0  0  0  0  0  0
   -1.1210   -0.2114   -1.2932 C   0  0  0  0  0  0  0  0  0  0  0  0
   -0.5723   -0.7318   -2.6371 C   0  0  0  0  0  0  0  0  0  0  0  0
   -1.6597   -0.8462   -3.7042 C   0  0  0  0  0  0  0  0  0  0  0  0
   -2.2371    0.2115   -4.0590 O   0  5  0  0  0  0  0  0  0  0  0  0
   -1.8521   -1.9767   -4.2170 O   0  0  0  0  0  0  0  0  0  0  0  0
    1.5783   -1.5441   -0.0013 H   0  0  0  0  0  0  0  0  0  0  0  0
    0.8228    0.3743   -0.7755 H   0  0  0  0  0  0  0  0  0  0  0  0
   -1.5303    0.7925   -1.4501 H   0  0  0  0  0  0  0  0  0  0  0  0
   -1.9499   -0.8348   -0.9467 H   0  0  0  0  0  0  0  0  0  0  0  0
    0.2018   -0.0528   -3.0055 H   0  0  0  0  0  0  0  0  0  0  0  0
   -0.1151   -1.7136   -2.4958 H   0  0  0  0  0  0  0  0  0  0  0  0
    0.6830    1.6599    1.4066 N   0  0  0  0  0  0  0  0  0  0  0  0
    0.4688    2.6758    2.4444 C   0  0  2  0  0  0  0  0  0  0  0  0
    1.4631    3.8478    2.3175 C   0  0  0  0  0  0  0  0  0  0  0  0
    2.5153    3.7091    1.7013 O   0  0  0  0  0  0  0  0  0  0  0  0
    0.6058    2.0146    3.8206 C   0  0  0  0  0  0  0  0  0  0  0  0
    1.5691    1.6864    0.9065 H   0  0  0  0  0  0  0  0  0  0  0  0
   -0.5404    3.0891    2.3416 H   0  0  0  0  0  0  0  0  0  0  0  0
    1.6118    1.6028    3.9495 H   0  0  0  0  0  0  0  0  0  0  0  0
    0.4212    2.7431    4.6155 H   0  0  0  0  0  0  0  0  0  0  0  0
   -0.1192    1.2013    3.9263 H   0  0  0  0  0  0  0  0  0  0  0  0
    1.1803    5.0638    2.9128 N   0  0  0  0  0  0  0  0  0  0  0  0
    2.0575    6.2240    2.8257 C   0  0  0  0  0  0  0  0  0  0  0  0
    0.2784    5.1599    3.3707 H   0  0  0  0  0  0  0  0  0  0  0  0
    3.0450    5.9895    3.2369 H   0  0  0  0  0  0  0  0  0  0  0  0
    2.1742    6.5391    1.7835 H   0  0  0  0  0  0  0  0  0  0  0  0
    1.6368    7.0583    3.3951 H   0  0  0  0  0  0  0  0  0  0  0  0
  1  2  2  0  0  0  0
  1  3  1  0  0  0  0
  1  7  1  0  0  0  0
  3  4  1  0  0  0  0
  3  5  1  0  0  0  0
  3  6  1  0  0  0  0
  7  8  1  0  0  0  0
  7 12  1  0  0  0  0
  8  9  1  0  0  0  0
  8 11  1  0  0  0  0
  8 13  1  0  0  0  0
  9 10  2  0  0  0  0
  9 17  1  0  0  0  0
 11 14  1  0  0  0  0
 11 15  1  0  0  0  0
 11 16  1  0  0  0  0
 17 18  1  0  0  0  0
 17 26  1  0  0  0  0
 18 19  1  0  0  0  0
 18 21  1  0  0  0  0
 18 27  1  0  0  0  0
 19 20  2  0  0  0  0
 19 32  1  0  0  0  0
 21 22  1  0  0  0  0
 21 28  1  0  0  0  0
 21 29  1  0  0  0  0
 22 23  1  0  0  0  0
 22 30  1  0  0  0  0
 22 31  1  0  0  0  0
 23 24  1  0  0  0  0
 23 25  2  0  0  0  0
 32 33  1  0  0  0  0
 32 37  1  0  0  0  0
 33 34  1  0  0  0  0
 33 36  1  0  0  0  0
 33 38  1  0  0  0  0
 34 35  2  0  0  0  0
 34 42  1  0  0  0  0
 36 39  1  0  0  0  0
 36 40  1  0  0  0  0
 36 41  1  0  0  0  0
 42 43  1  0  0  0  0
 42 44  1  0  0  0  0
 43 45  1  0  0  0  0
 43 46  1  0  0  0  0
 43 47  1  0  0  0  0
M  CHG  1  24  -1
M  END
$$$$

  -OEChem-05262216243D

 47 46  0     1  0  0  0  0  0999 V2000
    0.3169   -6.0638    1.3981 C   0  0  0  0  0  0  0  0  0  0  0  0
    1.4941   -6.1524    1.7162 O   0  0  0  0  0  0  0  0  0  0  0  0
   -0.6960   -7.0415    1.9641 C   0  0  0  0  0  0  0  0  0  0  0  0
   -1.2291   -7.5387    1.1498 H   0  0  0  0  0  0  0  0  0  0  0  0
   -0.1927   -7.7992    2.5710 H   0  0  0  0  0  0  0  0  0  0  0  0
   -1.4163   -6.5081    2.5897 H   0  0  0  0  0  0  0  0  0  0  0  0
   -0.1058   -5.0772    0.5354 N   0  0  0  0  0  0  0  0  0  0  0  0
    0.7079   -3.9259    0.1273 C   0  0  2  0  0  0  0  0  0  0  0  0
   -0.0971   -2.6123    0.2288 C   0  0  0  0  0  0  0  0  0  0  0  0
   -1.3001   -2.6733    0.4477 O   0  0  0  0  0  0  0  0  0  0  0  0
    1.1718   -4.1629   -1.3125 C   0  0  0  0  0  0  0  0  0  0  0  0
   -1.1147   -4.9454    0.4531 H   0  0  0  0  0  0  0  0  0  0  0  0
    1.5819   -3.8272    0.7787 H   0  0  0  0  0  0  0  0  0  0  0  0
    0.3094   -4.2387   -1.9843 H   0  0  0  0  0  0  0  0  0  0  0  0
    1.8055   -3.3395   -1.6552 H   0  0  0  0  0  0  0  0  0  0  0  0
    1.7467   -5.0920   -1.3766 H   0  0  0  0  0  0  0  0  0  0  0  0
    0.5717   -1.3993    0.1791 N   0  0  0  0  0  0  0  0  0  0  0  0
    0.0061   -0.1048   -0.2648 C   0  0  2  0  0  0  0  0  0  0  0  0
   -0.2956    0.8395    0.9207 C   0  0  0  0  0  0  0  0  0  0  0  0
   -1.2463    0.6664    1.6721 O   0  0  0  0  0  0  0  0  0  0  0  0
   -1.1385   -0.1727   -1.3002 C   0  0  0  0  0  0  0  0  0  0  0  0
   -0.6086   -0.7120   -2.6449 C   0  0  0  0  0  0  0  0  0  0  0  0
   -1.7060   -0.8225   -3.7026 C   0  0  0  0  0  0  0  0  0  0  0  0
   -2.3356    0.2244   -3.9962 O   0  5  0  0  0  0  0  0  0  0  0  0
   -1.8526   -1.9319   -4.2730 O   0  0  0  0  0  0  0  0  0  0  0  0
    1.5714   -1.5008    0.0470 H   0  0  0  0  0  0  0  0  0  0  0  0
    0.8193    0.3909   -0.8021 H   0  0  0  0  0  0  0  0  0  0  0  0
   -1.5365    0.8349   -1.4623 H   0  0  0  0  0  0  0  0  0  0  0  0
   -1.9728   -0.7814   -0.9411 H   0  0  0  0  0  0  0  0  0  0  0  0
    0.1705   -0.0463   -3.0263 H   0  0  0  0  0  0  0  0  0  0  0  0
   -0.1629   -1.6989   -2.4974 H   0  0  0  0  0  0  0  0  0  0  0  0
    0.5366    1.9173    1.1723 N   0  0  0  0  0  0  0  0  0  0  0  0
    0.3061    2.9139    2.2259 C   0  0  2  0  0  0  0  0  0  0  0  0
    0.9465    4.2745    1.8834 C   0  0  0  0  0  0  0  0  0  0  0  0
    1.8719    4.3413    1.0805 O   0  0  0  0  0  0  0  0  0  0  0  0
    0.8799    2.3796    3.5427 C   0  0  0  0  0  0  0  0  0  0  0  0
    1.2616    2.1260    0.4882 H   0  0  0  0  0  0  0  0  0  0  0  0
   -0.7709    3.0770    2.3412 H   0  0  0  0  0  0  0  0  0  0  0  0
    1.9569    2.2085    3.4482 H   0  0  0  0  0  0  0  0  0  0  0  0
    0.7092    3.0940    4.3535 H   0  0  0  0  0  0  0  0  0  0  0  0
    0.3992    1.4334    3.8116 H   0  0  0  0  0  0  0  0  0  0  0  0
    0.4928    5.4290    2.4959 N   0  0  0  0  0  0  0  0  0  0  0  0
    1.0222    6.7542    2.2020 C   0  0  0  0  0  0  0  0  0  0  0  0
   -0.3135    5.3452    3.1083 H   0  0  0  0  0  0  0  0  0  0  0  0
    2.0958    6.7941    2.4136 H   0  0  0  0  0  0  0  0  0  0  0  0
    0.8600    7.0063    1.1489 H   0  0  0  0  0  0  0  0  0  0  0  0
    0.5213    7.5057    2.8197 H   0  0  0  0  0  0  0  0  0  0  0  0
  1  2  2  0  0  0  0
  1  3  1  0  0  0  0
  1  7  1  0  0  0  0
  3  4  1  0  0  0  0
  3  5  1  0  0  0  0
  3  6  1  0  0  0  0
  7  8  1  0  0  0  0
  7 12  1  0  0  0  0
  8  9  1  0  0  0  0
  8 11  1  0  0  0  0
  8 13  1  0  0  0  0
  9 10  2  0  0  0  0
  9 17  1  0  0  0  0
 11 14  1  0  0  0  0
 11 15  1  0  0  0  0
 11 16  1  0  0  0  0
 17 18  1  0  0  0  0
 17 26  1  0  0  0  0
 18 19  1  0  0  0  0
 18 21  1  0  0  0  0
 18 27  1  0  0  0  0
 19 20  2  0  0  0  0
 19 32  1  0  0  0  0
 21 22  1  0  0  0  0
 21 28  1  0  0  0  0
 21 29  1  0  0  0  0
 22 23  1  0  0  0  0
 22 30  1  0  0  0  0
 22 31  1  0  0  0  0
 23 24  1  0  0  0  0
 23 25  2  0  0  0  0
 32 33  1  0  0  0  0
 32 37  1  0  0  0  0
 33 34  1  0  0  0  0
 33 36  1  0  0  0  0
 33 38  1  0  0  0  0
 34 35  2  0  0  0  0
 34 42  1  0  0  0  0
 36 39  1  0  0  0  0
 36 40  1  0  0  0  0
 36 41  1  0  0  0  0
 42 43  1  0  0  0  0
 42 44  1  0  0  0  0
 43 45  1  0  0  0  0
 43 46  1  0  0  0  0
 43 47  1  0  0  0  0
M  CHG  1  24  -1
M  END
$$$$

  -OEChem-05262216243D

 47 46  0     1  0  0  0  0  0999 V2000
    0.2895   -6.1005    1.3660 C   0  0  0  0  0  0  0  0  0  0  0  0
    1.4694   -6.2290    1.6597 O   0  0  0  0  0  0  0  0  0  0  0  0
   -0.7336   -7.0949    1.8828 C   0  0  0  0  0  0  0  0  0  0  0  0
   -1.2747   -7.5410    1.0447 H   0  0  0  0  0  0  0  0  0  0  0  0
   -0.2384   -7.8901    2.4466 H   0  0  0  0  0  0  0  0  0  0  0  0
   -1.4469   -6.5881    2.5379 H   0  0  0  0  0  0  0  0  0  0  0  0
   -0.1266   -5.0507    0.5783 N   0  0  0  0  0  0  0  0  0  0  0  0
    0.7074   -3.8993    0.2145 C   0  0  2  0  0  0  0  0  0  0  0  0
   -0.1054   -2.5870    0.2599 C   0  0  0  0  0  0  0  0  0  0  0  0
   -1.3168   -2.6512    0.4286 O   0  0  0  0  0  0  0  0  0  0  0  0
    1.2624   -4.1388   -1.1929 C   0  0  0  0  0  0  0  0  0  0  0  0
   -1.1337   -4.9013    0.5019 H   0  0  0  0  0  0  0  0  0  0  0  0
    1.5363   -3.7972    0.9222 H   0  0  0  0  0  0  0  0  0  0  0  0
    0.4438   -4.2261   -1.9157 H   0  0  0  0  0  0  0  0  0  0  0  0
    1.9082   -3.3109   -1.5001 H   0  0  0  0  0  0  0  0  0  0  0  0
    1.8487   -5.0626   -1.2167 H   0  0  0  0  0  0  0  0  0  0  0  0
    0.5618   -1.3735    0.1985 N   0  0  0  0  0  0  0  0  0  0  0  0
   -0.0012   -0.0773   -0.2434 C   0  0  2  0  0  0  0  0  0  0  0  0
   -0.2919    0.8819    0.9330 C   0  0  0  0  0  0  0  0  0  0  0  0
   -0.9844    0.5541    1.8884 O   0  0  0  0  0  0  0  0  0  0  0  0
   -1.1545   -0.1303   -1.2683 C   0  0  0  0  0  0  0  0  0  0  0  0
   -0.6436   -0.6711   -2.6194 C   0  0  0  0  0  0  0  0  0  0  0  0
   -1.7526   -0.7668   -3.6675 C   0  0  0  0  0  0  0  0  0  0  0  0
   -2.4246    0.2696   -3.8983 O   0  5  0  0  0  0  0  0  0  0  0  0
   -1.8674   -1.8497   -4.2931 O   0  0  0  0  0  0  0  0  0  0  0  0
    1.5670   -1.4668    0.1097 H   0  0  0  0  0  0  0  0  0  0  0  0
    0.8161    0.4066   -0.7854 H   0  0  0  0  0  0  0  0  0  0  0  0
   -1.5410    0.8826   -1.4254 H   0  0  0  0  0  0  0  0  0  0  0  0
   -1.9932   -0.7289   -0.9034 H   0  0  0  0  0  0  0  0  0  0  0  0
    0.1386   -0.0122   -3.0061 H   0  0  0  0  0  0  0  0  0  0  0  0
   -0.2076   -1.6639   -2.4773 H   0  0  0  0  0  0  0  0  0  0  0  0
    0.3381    2.1134    0.9884 N   0  0  0  0  0  0  0  0  0  0  0  0
    0.0988    3.1165    2.0339 C   0  0  2  0  0  0  0  0  0  0  0  0
    0.3236    4.5508    1.5150 C   0  0  0  0  0  0  0  0  0  0  0  0
    1.0862    4.7584    0.5770 O   0  0  0  0  0  0  0  0  0  0  0  0
    1.0333    2.8302    3.2134 C   0  0  0  0  0  0  0  0  0  0  0  0
    0.8346    2.4249    0.1548 H   0  0  0  0  0  0  0  0  0  0  0  0
   -0.9407    3.0487    2.3722 H   0  0  0  0  0  0  0  0  0  0  0  0
    2.0788    2.8815    2.8930 H   0  0  0  0  0  0  0  0  0  0  0  0
    0.8759    3.5605    4.0126 H   0  0  0  0  0  0  0  0  0  0  0  0
    0.8406    1.8311    3.6169 H   0  0  0  0  0  0  0  0  0  0  0  0
   -0.3230    5.6162    2.1151 N   0  0  0  0  0  0  0  0  0  0  0  0
   -0.2122    6.9892    1.6399 C   0  0  0  0  0  0  0  0  0  0  0  0
   -0.9998    5.4005    2.8413 H   0  0  0  0  0  0  0  0  0  0  0  0
    0.8299    7.3239    1.6747 H   0  0  0  0  0  0  0  0  0  0  0  0
   -0.5747    7.0682    0.6095 H   0  0  0  0  0  0  0  0  0  0  0  0
   -0.8098    7.6557    2.2692 H   0  0  0  0  0  0  0  0  0  0  0  0
  1  2  2  0  0  0  0
  1  3  1  0  0  0  0
  1  7  1  0  0  0  0
  3  4  1  0  0  0  0
  3  5  1  0  0  0  0
  3  6  1  0  0  0  0
  7  8  1  0  0  0  0
  7 12  1  0  0  0  0
  8  9  1  0  0  0  0
  8 11  1  0  0  0  0
  8 13  1  0  0  0  0
  9 10  2  0  0  0  0
  9 17  1  0  0  0  0
 11 14  1  0  0  0  0
 11 15  1  0  0  0  0
 11 16  1  0  0  0  0
 17 18  1  0  0  0  0
 17 26  1  0  0  0  0
 18 19  1  0  0  0  0
 18 21  1  0  0  0  0
 18 27  1  0  0  0  0
 19 20  2  0  0  0  0
 19 32  1  0  0  0  0
 21 22  1  0  0  0  0
 21 28  1  0  0  0  0
 21 29  1  0  0  0  0
 22 23  1  0  0  0  0
 22 30  1  0  0  0  0
 22 31  1  0  0  0  0
 23 24  1  0  0  0  0
 23 25  2  0  0  0  0
 32 33  1  0  0  0  0
 32 37  1  0  0  0  0
 33 34  1  0  0  0  0
 33 36  1  0  0  0  0
 33 38  1  0  0  0  0
 34 35  2  0  0  0  0
 34 42  1  0  0  0  0
 36 39  1  0  0  0  0
 36 40  1  0  0  0  0
 36 41  1  0  0  0  0
 42 43  1  0  0  0  0
 42 44  1  0  0  0  0
 43 45  1  0  0  0  0
 43 46  1  0  0  0  0
 43 47  1  0  0  0  0
M  CHG  1  24  -1
M  END
$$$$

  -OEChem-05262216243D

 47 46  0     1  0  0  0  0  0999 V2000
    0.2823   -6.1127    1.3542 C   0  0  0  0  0  0  0  0  0  0  0  0
    1.4614   -6.2516    1.6463 O   0  0  0  0  0  0  0  0  0  0  0  0
   -0.7393   -7.1361    1.8144 C   0  0  0  0  0  0  0  0  0  0  0  0
   -1.2320   -7.5856    0.9485 H   0  0  0  0  0  0  0  0  0  0  0  0
   -0.2510   -7.9251    2.3928 H   0  0  0  0  0  0  0  0  0  0  0  0
   -1.4922   -6.6527    2.4420 H   0  0  0  0  0  0  0  0  0  0  0  0
   -0.1333   -5.0249    0.6196 N   0  0  0  0  0  0  0  0  0  0  0  0
    0.7059   -3.8667    0.2930 C   0  0  2  0  0  0  0  0  0  0  0  0
   -0.1201   -2.5621    0.2874 C   0  0  0  0  0  0  0  0  0  0  0  0
   -1.3355   -2.6325    0.4238 O   0  0  0  0  0  0  0  0  0  0  0  0
    1.3386   -4.1041   -1.0817 C   0  0  0  0  0  0  0  0  0  0  0  0
   -1.1397   -4.8755    0.5349 H   0  0  0  0  0  0  0  0  0  0  0  0
    1.4939   -3.7542    1.0446 H   0  0  0  0  0  0  0  0  0  0  0  0
    0.5610   -4.1994   -1.8473 H   0  0  0  0  0  0  0  0  0  0  0  0
    1.9935   -3.2717   -1.3550 H   0  0  0  0  0  0  0  0  0  0  0  0
    1.9333   -5.0226   -1.0723 H   0  0  0  0  0  0  0  0  0  0  0  0
    0.5394   -1.3461    0.2081 N   0  0  0  0  0  0  0  0  0  0  0  0
   -0.0275   -0.0518   -0.2329 C   0  0  2  0  0  0  0  0  0  0  0  0
   -0.3057    0.9219    0.9340 C   0  0  0  0  0  0  0  0  0  0  0  0
   -0.6920    0.5349    2.0310 O   0  0  0  0  0  0  0  0  0  0  0  0
   -1.1897   -0.1005   -1.2473 C   0  0  0  0  0  0  0  0  0  0  0  0
   -0.6956   -0.6423   -2.6035 C   0  0  0  0  0  0  0  0  0  0  0  0
   -1.8185   -0.7311   -3.6375 C   0  0  0  0  0  0  0  0  0  0  0  0
   -2.5202    0.2952   -3.8214 O   0  5  0  0  0  0  0  0  0  0  0  0
   -1.9177   -1.7951   -4.2972 O   0  0  0  0  0  0  0  0  0  0  0  0
    1.5481   -1.4266    0.1584 H   0  0  0  0  0  0  0  0  0  0  0  0
    0.7884    0.4259   -0.7822 H   0  0  0  0  0  0  0  0  0  0  0  0
   -1.5745    0.9136   -1.4020 H   0  0  0  0  0  0  0  0  0  0  0  0
   -2.0267   -0.6970   -0.8755 H   0  0  0  0  0  0  0  0  0  0  0  0
    0.0857    0.0130   -2.9981 H   0  0  0  0  0  0  0  0  0  0  0  0
   -0.2631   -1.6373   -2.4668 H   0  0  0  0  0  0  0  0  0  0  0  0
    0.0668    2.2494    0.8153 N   0  0  0  0  0  0  0  0  0  0  0  0
   -0.1714    3.2670    1.8463 C   0  0  2  0  0  0  0  0  0  0  0  0
   -0.3703    4.6665    1.2316 C   0  0  0  0  0  0  0  0  0  0  0  0
    0.1846    4.9653    0.1798 O   0  0  0  0  0  0  0  0  0  0  0  0
    1.0176    3.2756    2.8120 C   0  0  0  0  0  0  0  0  0  0  0  0
    0.3062    2.5848   -0.1174 H   0  0  0  0  0  0  0  0  0  0  0  0
   -1.0835    3.0188    2.3995 H   0  0  0  0  0  0  0  0  0  0  0  0
    1.9428    3.5114    2.2765 H   0  0  0  0  0  0  0  0  0  0  0  0
    0.8676    4.0224    3.5973 H   0  0  0  0  0  0  0  0  0  0  0  0
    1.1290    2.2950    3.2854 H   0  0  0  0  0  0  0  0  0  0  0  0
   -1.1704    5.5983    1.8677 N   0  0  0  0  0  0  0  0  0  0  0  0
   -1.4842    6.9005    1.2943 C   0  0  0  0  0  0  0  0  0  0  0  0
   -1.6837    5.2867    2.6871 H   0  0  0  0  0  0  0  0  0  0  0  0
   -0.5681    7.4764    1.1256 H   0  0  0  0  0  0  0  0  0  0  0  0
   -2.0076    6.7824    0.3395 H   0  0  0  0  0  0  0  0  0  0  0  0
   -2.1274    7.4669    1.9745 H   0  0  0  0  0  0  0  0  0  0  0  0
  1  2  2  0  0  0  0
  1  3  1  0  0  0  0
  1  7  1  0  0  0  0
  3  4  1  0  0  0  0
  3  5  1  0  0  0  0
  3  6  1  0  0  0  0
  7  8  1  0  0  0  0
  7 12  1  0  0  0  0
  8  9  1  0  0  0  0
  8 11  1  0  0  0  0
  8 13  1  0  0  0  0
  9 10  2  0  0  0  0
  9 17  1  0  0  0  0
 11 14  1  0  0  0  0
 11 15  1  0  0  0  0
 11 16  1  0  0  0  0
 17 18  1  0  0  0  0
 17 26  1  0  0  0  0
 18 19  1  0  0  0  0
 18 21  1  0  0  0  0
 18 27  1  0  0  0  0
 19 20  2  0  0  0  0
 19 32  1  0  0  0  0
 21 22  1  0  0  0  0
 21 28  1  0  0  0  0
 21 29  1  0  0  0  0
 22 23  1  0  0  0  0
 22 30  1  0  0  0  0
 22 31  1  0  0  0  0
 23 24  1  0  0  0  0
 23 25  2  0  0  0  0
 32 33  1  0  0  0  0
 32 37  1  0  0  0  0
 33 34  1  0  0  0  0
 33 36  1  0  0  0  0
 33 38  1  0  0  0  0
 34 35  2  0  0  0  0
 34 42  1  0  0  0  0
 36 39  1  0  0  0  0
 36 40  1  0  0  0  0
 36 41  1  0  0  0  0
 42 43  1  0  0  0  0
 42 44  1  0  0  0  0
 43 45  1  0  0  0  0
 43 46  1  0  0  0  0
 43 47  1  0  0  0  0
M  CHG  1  24  -1
M  END
$$$$

  -OEChem-05262216243D

 47 46  0     1  0  0  0  0  0999 V2000
    0.2820   -6.0805    1.3874 C   0  0  0  0  0  0  0  0  0  0  0  0
    1.4549   -6.2139    1.7056 O   0  0  0  0  0  0  0  0  0  0  0  0
   -0.7456   -7.1065    1.8277 C   0  0  0  0  0  0  0  0  0  0  0  0
   -1.2693   -7.5067    0.9561 H   0  0  0  0  0  0  0  0  0  0  0  0
   -0.2562   -7.9300    2.3549 H   0  0  0  0  0  0  0  0  0  0  0  0
   -1.4729   -6.6400    2.4969 H   0  0  0  0  0  0  0  0  0  0  0  0
   -0.1221   -4.9941    0.6441 N   0  0  0  0  0  0  0  0  0  0  0  0
    0.7166   -3.8292    0.3399 C   0  0  2  0  0  0  0  0  0  0  0  0
   -0.1281   -2.5379    0.2766 C   0  0  0  0  0  0  0  0  0  0  0  0
   -1.3449   -2.6205    0.3956 O   0  0  0  0  0  0  0  0  0  0  0  0
    1.4216   -4.0770   -0.9978 C   0  0  0  0  0  0  0  0  0  0  0  0
   -1.1269   -4.8525    0.5317 H   0  0  0  0  0  0  0  0  0  0  0  0
    1.4646   -3.6942    1.1278 H   0  0  0  0  0  0  0  0  0  0  0  0
    0.6861   -4.1869   -1.8020 H   0  0  0  0  0  0  0  0  0  0  0  0
    2.0837   -3.2423   -1.2455 H   0  0  0  0  0  0  0  0  0  0  0  0
    2.0224   -4.9904   -0.9468 H   0  0  0  0  0  0  0  0  0  0  0  0
    0.5135   -1.3143    0.1775 N   0  0  0  0  0  0  0  0  0  0  0  0
   -0.0640   -0.0305   -0.2816 C   0  0  2  0  0  0  0  0  0  0  0  0
   -0.3495    0.9551    0.8747 C   0  0  0  0  0  0  0  0  0  0  0  0
   -0.4364    0.5815    2.0398 O   0  0  0  0  0  0  0  0  0  0  0  0
   -1.2280   -0.1119   -1.2935 C   0  0  0  0  0  0  0  0  0  0  0  0
   -0.7305   -0.6736   -2.6410 C   0  0  0  0  0  0  0  0  0  0  0  0
   -1.8545   -0.7951   -3.6711 C   0  0  0  0  0  0  0  0  0  0  0  0
   -2.5769    0.2150   -3.8641 O   0  5  0  0  0  0  0  0  0  0  0  0
   -1.9380   -1.8696   -4.3158 O   0  0  0  0  0  0  0  0  0  0  0  0
    1.5249   -1.3714    0.1819 H   0  0  0  0  0  0  0  0  0  0  0  0
    0.7455    0.4515   -0.8372 H   0  0  0  0  0  0  0  0  0  0  0  0
   -1.6252    0.8937   -1.4674 H   0  0  0  0  0  0  0  0  0  0  0  0
   -2.0590   -0.7090   -0.9098 H   0  0  0  0  0  0  0  0  0  0  0  0
    0.0423   -0.0168   -3.0500 H   0  0  0  0  0  0  0  0  0  0  0  0
   -0.2854   -1.6607   -2.4871 H   0  0  0  0  0  0  0  0  0  0  0  0
   -0.2846    2.3183    0.6441 N   0  0  0  0  0  0  0  0  0  0  0  0
   -0.5290    3.3394    1.6713 C   0  0  2  0  0  0  0  0  0  0  0  0
   -1.1208    4.6306    1.0734 C   0  0  0  0  0  0  0  0  0  0  0  0
   -0.7804    5.0095   -0.0414 O   0  0  0  0  0  0  0  0  0  0  0  0
    0.7913    3.6481    2.3837 C   0  0  0  0  0  0  0  0  0  0  0  0
   -0.2730    2.6280   -0.3278 H   0  0  0  0  0  0  0  0  0  0  0  0
   -1.2505    2.9561    2.4006 H   0  0  0  0  0  0  0  0  0  0  0  0
    1.5296    4.0279    1.6704 H   0  0  0  0  0  0  0  0  0  0  0  0
    0.6385    4.4010    3.1627 H   0  0  0  0  0  0  0  0  0  0  0  0
    1.1912    2.7432    2.8515 H   0  0  0  0  0  0  0  0  0  0  0  0
   -2.0214    5.3845    1.8042 N   0  0  0  0  0  0  0  0  0  0  0  0
   -2.6809    6.5706    1.2742 C   0  0  0  0  0  0  0  0  0  0  0  0
   -2.3466    4.9940    2.6837 H   0  0  0  0  0  0  0  0  0  0  0  0
   -1.9409    7.3250    0.9875 H   0  0  0  0  0  0  0  0  0  0  0  0
   -3.2823    6.3134    0.3960 H   0  0  0  0  0  0  0  0  0  0  0  0
   -3.3403    7.0046    2.0316 H   0  0  0  0  0  0  0  0  0  0  0  0
  1  2  2  0  0  0  0
  1  3  1  0  0  0  0
  1  7  1  0  0  0  0
  3  4  1  0  0  0  0
  3  5  1  0  0  0  0
  3  6  1  0  0  0  0
  7  8  1  0  0  0  0
  7 12  1  0  0  0  0
  8  9  1  0  0  0  0
  8 11  1  0  0  0  0
  8 13  1  0  0  0  0
  9 10  2  0  0  0  0
  9 17  1  0  0  0  0
 11 14  1  0  0  0  0
 11 15  1  0  0  0  0
 11 16  1  0  0  0  0
 17 18  1  0  0  0  0
 17 26  1  0  0  0  0
 18 19  1  0  0  0  0
 18 21  1  0  0  0  0
 18 27  1  0  0  0  0
 19 20  2  0  0  0  0
 19 32  1  0  0  0  0
 21 22  1  0  0  0  0
 21 28  1  0  0  0  0
 21 29  1  0  0  0  0
 22 23  1  0  0  0  0
 22 30  1  0  0  0  0
 22 31  1  0  0  0  0
 23 24  1  0  0  0  0
 23 25  2  0  0  0  0
 32 33  1  0  0  0  0
 32 37  1  0  0  0  0
 33 34  1  0  0  0  0
 33 36  1  0  0  0  0
 33 38  1  0  0  0  0
 34 35  2  0  0  0  0
 34 42  1  0  0  0  0
 36 39  1  0  0  0  0
 36 40  1  0  0  0  0
 36 41  1  0  0  0  0
 42 43  1  0  0  0  0
 42 44  1  0  0  0  0
 43 45  1  0  0  0  0
 43 46  1  0  0  0  0
 43 47  1  0  0  0  0
M  CHG  1  24  -1
M  END
$$$$

  -OEChem-05262216243D

 47 46  0     1  0  0  0  0  0999 V2000
    0.2773   -6.0428    1.4110 C   0  0  0  0  0  0  0  0  0  0  0  0
    1.4398   -6.1599    1.7707 O   0  0  0  0  0  0  0  0  0  0  0  0
   -0.7544   -7.0749    1.8288 C   0  0  0  0  0  0  0  0  0  0  0  0
   -1.1926   -7.5427    0.9436 H   0  0  0  0  0  0  0  0  0  0  0  0
   -0.2884   -7.8498    2.4437 H   0  0  0  0  0  0  0  0  0  0  0  0
   -1.5474   -6.5943    2.4075 H   0  0  0  0  0  0  0  0  0  0  0  0
   -0.1113   -4.9733    0.6357 N   0  0  0  0  0  0  0  0  0  0  0  0
    0.7244   -3.8014    0.3491 C   0  0  2  0  0  0  0  0  0  0  0  0
   -0.1234   -2.5109    0.3026 C   0  0  0  0  0  0  0  0  0  0  0  0
   -1.3368   -2.5925    0.4567 O   0  0  0  0  0  0  0  0  0  0  0  0
    1.4285   -4.0334   -0.9917 C   0  0  0  0  0  0  0  0  0  0  0  0
   -1.1139   -4.8411    0.4974 H   0  0  0  0  0  0  0  0  0  0  0  0
    1.4725   -3.6733    1.1382 H   0  0  0  0  0  0  0  0  0  0  0  0
    0.6917   -4.1405   -1.7951 H   0  0  0  0  0  0  0  0  0  0  0  0
    2.0864   -3.1939   -1.2348 H   0  0  0  0  0  0  0  0  0  0  0  0
    2.0331   -4.9445   -0.9491 H   0  0  0  0  0  0  0  0  0  0  0  0
    0.5090   -1.2845    0.1804 N   0  0  0  0  0  0  0  0  0  0  0  0
   -0.0795   -0.0150   -0.3064 C   0  0  2  0  0  0  0  0  0  0  0  0
   -0.3754    0.9887    0.8334 C   0  0  0  0  0  0  0  0  0  0  0  0
   -0.1961    0.6943    2.0114 O   0  0  0  0  0  0  0  0  0  0  0  0
   -1.2395   -0.1457   -1.3211 C   0  0  0  0  0  0  0  0  0  0  0  0
   -0.7261   -0.7349   -2.6503 C   0  0  0  0  0  0  0  0  0  0  0  0
   -1.8443   -0.9049   -3.6792 C   0  0  0  0  0  0  0  0  0  0  0  0
   -2.5724    0.0916   -3.9150 O   0  5  0  0  0  0  0  0  0  0  0  0
   -1.9220   -2.0071   -4.2758 O   0  0  0  0  0  0  0  0  0  0  0  0
    1.5211   -1.3329    0.1798 H   0  0  0  0  0  0  0  0  0  0  0  0
    0.7232    0.4699   -0.8687 H   0  0  0  0  0  0  0  0  0  0  0  0
   -1.6566    0.8448   -1.5286 H   0  0  0  0  0  0  0  0  0  0  0  0
   -2.0610   -0.7474   -0.9253 H   0  0  0  0  0  0  0  0  0  0  0  0
    0.0363   -0.0760   -3.0748 H   0  0  0  0  0  0  0  0  0  0  0  0
   -0.2643   -1.7092   -2.4683 H   0  0  0  0  0  0  0  0  0  0  0  0
   -0.6314    2.3175    0.5407 N   0  0  0  0  0  0  0  0  0  0  0  0
   -0.9121    3.3441    1.5540 C   0  0  2  0  0  0  0  0  0  0  0  0
   -1.8638    4.4372    1.0289 C   0  0  0  0  0  0  0  0  0  0  0  0
   -1.7668    4.8414   -0.1236 O   0  0  0  0  0  0  0  0  0  0  0  0
    0.4123    3.9712    2.0002 C   0  0  0  0  0  0  0  0  0  0  0  0
   -0.8207    2.5547   -0.4336 H   0  0  0  0  0  0  0  0  0  0  0  0
   -1.3964    2.8784    2.4188 H   0  0  0  0  0  0  0  0  0  0  0  0
    0.9191    4.4392    1.1504 H   0  0  0  0  0  0  0  0  0  0  0  0
    0.2350    4.7343    2.7640 H   0  0  0  0  0  0  0  0  0  0  0  0
    1.0718    3.2064    2.4220 H   0  0  0  0  0  0  0  0  0  0  0  0
   -2.8116    4.9955    1.8681 N   0  0  0  0  0  0  0  0  0  0  0  0
   -3.7894    5.9787    1.4203 C   0  0  0  0  0  0  0  0  0  0  0  0
   -2.9239    4.5746    2.7858 H   0  0  0  0  0  0  0  0  0  0  0  0
   -3.2861    6.8713    1.0345 H   0  0  0  0  0  0  0  0  0  0  0  0
   -4.4196    5.5587    0.6293 H   0  0  0  0  0  0  0  0  0  0  0  0
   -4.4318    6.2788    2.2535 H   0  0  0  0  0  0  0  0  0  0  0  0
  1  2  2  0  0  0  0
  1  3  1  0  0  0  0
  1  7  1  0  0  0  0
  3  4  1  0  0  0  0
  3  5  1  0  0  0  0
  3  6  1  0  0  0  0
  7  8  1  0  0  0  0
  7 12  1  0  0  0  0
  8  9  1  0  0  0  0
  8 11  1  0  0  0  0
  8 13  1  0  0  0  0
  9 10  2  0  0  0  0
  9 17  1  0  0  0  0
 11 14  1  0  0  0  0
 11 15  1  0  0  0  0
 11 16  1  0  0  0  0
 17 18  1  0  0  0  0
 17 26  1  0  0  0  0
 18 19  1  0  0  0  0
 18 21  1  0  0  0  0
 18 27  1  0  0  0  0
 19 20  2  0  0  0  0
 19 32  1  0  0  0  0
 21 22  1  0  0  0  0
 21 28  1  0  0  0  0
 21 29  1  0  0  0  0
 22 23  1  0  0  0  0
 22 30  1  0  0  0  0
 22 31  1  0  0  0  0
 23 24  1  0  0  0  0
 23 25  2  0  0  0  0
 32 33  1  0  0  0  0
 32 37  1  0  0  0  0
 33 34  1  0  0  0  0
 33 36  1  0  0  0  0
 33 38  1  0  0  0  0
 34 35  2  0  0  0  0
 34 42  1  0  0  0  0
 36 39  1  0  0  0  0
 36 40  1  0  0  0  0
 36 41  1  0  0  0  0
 42 43  1  0  0  0  0
 42 44  1  0  0  0  0
 43 45  1  0  0  0  0
 43 46  1  0  0  0  0
 43 47  1  0  0  0  0
M  CHG  1  24  -1
M  END
$$$$

  -OEChem-05262216243D

 47 46  0     1  0  0  0  0  0999 V2000
    0.3104   -5.8896    1.6929 C   0  0  0  0  0  0  0  0  0  0  0  0
    1.4149   -5.8708    2.2165 O   0  0  0  0  0  0  0  0  0  0  0  0
   -0.6994   -6.9512    2.0877 C   0  0  0  0  0  0  0  0  0  0  0  0
   -0.9904   -7.5327    1.2095 H   0  0  0  0  0  0  0  0  0  0  0  0
   -0.2678   -7.6261    2.8319 H   0  0  0  0  0  0  0  0  0  0  0  0
   -1.5887   -6.4790    2.5127 H   0  0  0  0  0  0  0  0  0  0  0  0
   -0.0320   -4.9478    0.7487 N   0  0  0  0  0  0  0  0  0  0  0  0
    0.7537   -3.7453    0.4475 C   0  0  2  0  0  0  0  0  0  0  0  0
   -0.1648   -2.5537    0.0994 C   0  0  0  0  0  0  0  0  0  0  0  0
   -1.3725   -2.7450    0.0417 O   0  0  0  0  0  0  0  0  0  0  0  0
    1.6926   -4.0623   -0.7205 C   0  0  0  0  0  0  0  0  0  0  0  0
   -1.0115   -4.9137    0.4617 H   0  0  0  0  0  0  0  0  0  0  0  0
    1.3452   -3.4576    1.3229 H   0  0  0  0  0  0  0  0  0  0  0  0
    1.1153   -4.3332   -1.6109 H   0  0  0  0  0  0  0  0  0  0  0  0
    2.3161   -3.1961   -0.9610 H   0  0  0  0  0  0  0  0  0  0  0  0
    2.3494   -4.8988   -0.4621 H   0  0  0  0  0  0  0  0  0  0  0  0
    0.3915   -1.2907   -0.0178 N   0  0  0  0  0  0  0  0  0  0  0  0
   -0.1993   -0.0259   -0.5175 C   0  0  2  0  0  0  0  0  0  0  0  0
   -0.1847    1.0586    0.5867 C   0  0  0  0  0  0  0  0  0  0  0  0
    0.4311    0.8690    1.6334 O   0  0  0  0  0  0  0  0  0  0  0  0
   -1.5413   -0.1029   -1.2841 C   0  0  0  0  0  0  0  0  0  0  0  0
   -1.3729   -0.8309   -2.6364 C   0  0  0  0  0  0  0  0  0  0  0  0
   -2.6844   -0.9497   -3.4185 C   0  0  0  0  0  0  0  0  0  0  0  0
   -3.5193   -0.0143   -3.3182 O   0  5  0  0  0  0  0  0  0  0  0  0
   -2.8025   -1.9315   -4.1933 O   0  0  0  0  0  0  0  0  0  0  0  0
    1.3541   -1.2236    0.2964 H   0  0  0  0  0  0  0  0  0  0  0  0
    0.5116    0.3461   -1.2609 H   0  0  0  0  0  0  0  0  0  0  0  0
   -1.9044    0.9077   -1.4948 H   0  0  0  0  0  0  0  0  0  0  0  0
   -2.3107   -0.5904   -0.6782 H   0  0  0  0  0  0  0  0  0  0  0  0
   -0.6567   -0.2814   -3.2534 H   0  0  0  0  0  0  0  0  0  0  0  0
   -0.9733   -1.8349   -2.4745 H   0  0  0  0  0  0  0  0  0  0  0  0
   -0.6853    2.3287    0.3600 N   0  0  0  0  0  0  0  0  0  0  0  0
   -0.6830    3.4077    1.3570 C   0  0  2  0  0  0  0  0  0  0  0  0
   -1.8600    4.3839    1.1631 C   0  0  0  0  0  0  0  0  0  0  0  0
   -2.2328    4.6896    0.0373 O   0  0  0  0  0  0  0  0  0  0  0  0
    0.6468    4.1623    1.2615 C   0  0  0  0  0  0  0  0  0  0  0  0
   -1.2249    2.4762   -0.4941 H   0  0  0  0  0  0  0  0  0  0  0  0
   -0.7791    2.9759    2.3585 H   0  0  0  0  0  0  0  0  0  0  0  0
    0.7747    4.5845    0.2595 H   0  0  0  0  0  0  0  0  0  0  0  0
    0.6768    4.9776    1.9905 H   0  0  0  0  0  0  0  0  0  0  0  0
    1.4836    3.4867    1.4646 H   0  0  0  0  0  0  0  0  0  0  0  0
   -2.4819    4.9504    2.2614 N   0  0  0  0  0  0  0  0  0  0  0  0
   -3.6441    5.8227    2.1537 C   0  0  0  0  0  0  0  0  0  0  0  0
   -2.2021    4.6158    3.1783 H   0  0  0  0  0  0  0  0  0  0  0  0
   -3.4040    6.7097    1.5582 H   0  0  0  0  0  0  0  0  0  0  0  0
   -4.4767    5.2932    1.6786 H   0  0  0  0  0  0  0  0  0  0  0  0
   -3.9636    6.1508    3.1473 H   0  0  0  0  0  0  0  0  0  0  0  0
  1  2  2  0  0  0  0
  1  3  1  0  0  0  0
  1  7  1  0  0  0  0
  3  4  1  0  0  0  0
  3  5  1  0  0  0  0
  3  6  1  0  0  0  0
  7  8  1  0  0  0  0
  7 12  1  0  0  0  0
  8  9  1  0  0  0  0
  8 11  1  0  0  0  0
  8 13  1  0  0  0  0
  9 10  2  0  0  0  0
  9 17  1  0  0  0  0
 11 14  1  0  0  0  0
 11 15  1  0  0  0  0
 11 16  1  0  0  0  0
 17 18  1  0  0  0  0
 17 26  1  0  0  0  0
 18 19  1  0  0  0  0
 18 21  1  0  0  0  0
 18 27  1  0  0  0  0
 19 20  2  0  0  0  0
 19 32  1  0  0  0  0
 21 22  1  0  0  0  0
 21 28  1  0  0  0  0
 21 29  1  0  0  0  0
 22 23  1  0  0  0  0
 22 30  1  0  0  0  0
 22 31  1  0  0  0  0
 23 24  1  0  0  0  0
 23 25  2  0  0  0  0
 32 33  1  0  0  0  0
 32 37  1  0  0  0  0
 33 34  1  0  0  0  0
 33 36  1  0  0  0  0
 33 38  1  0  0  0  0
 34 35  2  0  0  0  0
 34 42  1  0  0  0  0
 36 39  1  0  0  0  0
 36 40  1  0  0  0  0
 36 41  1  0  0  0  0
 42 43  1  0  0  0  0
 42 44  1  0  0  0  0
 43 45  1  0  0  0  0
 43 46  1  0  0  0  0
 43 47  1  0  0  0  0
M  CHG  1  24  -1
M  END
$$$$

  -OEChem-05262216243D

 47 46  0     1  0  0  0  0  0999 V2000
    0.3083   -5.8836    1.6987 C   0  0  0  0  0  0  0  0  0  0  0  0
    1.4107   -5.8552    2.2261 O   0  0  0  0  0  0  0  0  0  0  0  0
   -0.6959   -6.9492    2.0976 C   0  0  0  0  0  0  0  0  0  0  0  0
   -0.9779   -7.5412    1.2232 H   0  0  0  0  0  0  0  0  0  0  0  0
   -0.2635   -7.6142    2.8504 H   0  0  0  0  0  0  0  0  0  0  0  0
   -1.5908   -6.4796    2.5139 H   0  0  0  0  0  0  0  0  0  0  0  0
   -0.0371   -4.9480    0.7491 N   0  0  0  0  0  0  0  0  0  0  0  0
    0.7415   -3.7403    0.4491 C   0  0  2  0  0  0  0  0  0  0  0  0
   -0.1836   -2.5494    0.1147 C   0  0  0  0  0  0  0  0  0  0  0  0
   -1.3926   -2.7391    0.0765 O   0  0  0  0  0  0  0  0  0  0  0  0
    1.6731   -4.0484   -0.7265 C   0  0  0  0  0  0  0  0  0  0  0  0
   -1.0168   -4.9195    0.4621 H   0  0  0  0  0  0  0  0  0  0  0  0
    1.3393   -3.4550    1.3211 H   0  0  0  0  0  0  0  0  0  0  0  0
    1.0911   -4.3192   -1.6138 H   0  0  0  0  0  0  0  0  0  0  0  0
    2.2902   -3.1780   -0.9676 H   0  0  0  0  0  0  0  0  0  0  0  0
    2.3358   -4.8822   -0.4748 H   0  0  0  0  0  0  0  0  0  0  0  0
    0.3642   -1.2826   -0.0006 N   0  0  0  0  0  0  0  0  0  0  0  0
   -0.2265   -0.0311   -0.5324 C   0  0  2  0  0  0  0  0  0  0  0  0
   -0.2503    1.0577    0.5682 C   0  0  0  0  0  0  0  0  0  0  0  0
    0.5318    0.9810    1.5137 O   0  0  0  0  0  0  0  0  0  0  0  0
   -1.5382   -0.1381   -1.3474 C   0  0  0  0  0  0  0  0  0  0  0  0
   -1.3040   -0.8764   -2.6838 C   0  0  0  0  0  0  0  0  0  0  0  0
   -2.5825   -1.0252   -3.5135 C   0  0  0  0  0  0  0  0  0  0  0  0
   -3.4072   -0.0759   -3.4993 O   0  5  0  0  0  0  0  0  0  0  0  0
   -2.6826   -2.0466   -4.2376 O   0  0  0  0  0  0  0  0  0  0  0  0
    1.3361   -1.2135    0.2842 H   0  0  0  0  0  0  0  0  0  0  0  0
    0.5022    0.3466   -1.2551 H   0  0  0  0  0  0  0  0  0  0  0  0
   -1.9042    0.8642   -1.5893 H   0  0  0  0  0  0  0  0  0  0  0  0
   -2.3250   -0.6278   -0.7662 H   0  0  0  0  0  0  0  0  0  0  0  0
   -0.5731   -0.3225   -3.2789 H   0  0  0  0  0  0  0  0  0  0  0  0
   -0.8949   -1.8716   -2.4933 H   0  0  0  0  0  0  0  0  0  0  0  0
   -1.0096    2.2098    0.4565 N   0  0  0  0  0  0  0  0  0  0  0  0
   -1.0679    3.2623    1.4806 C   0  0  2  0  0  0  0  0  0  0  0  0
   -2.4427    3.9575    1.5348 C   0  0  0  0  0  0  0  0  0  0  0  0
   -3.0731    4.1689    0.5067 O   0  0  0  0  0  0  0  0  0  0  0  0
    0.0286    4.2899    1.1869 C   0  0  0  0  0  0  0  0  0  0  0  0
   -1.6896    2.2533   -0.3042 H   0  0  0  0  0  0  0  0  0  0  0  0
   -0.8896    2.8215    2.4668 H   0  0  0  0  0  0  0  0  0  0  0  0
   -0.1265    4.7422    0.2020 H   0  0  0  0  0  0  0  0  0  0  0  0
    0.0206    5.0828    1.9407 H   0  0  0  0  0  0  0  0  0  0  0  0
    1.0121    3.8100    1.1999 H   0  0  0  0  0  0  0  0  0  0  0  0
   -2.9564    4.3881    2.7452 N   0  0  0  0  0  0  0  0  0  0  0  0
   -4.2653    5.0153    2.8755 C   0  0  0  0  0  0  0  0  0  0  0  0
   -2.4453    4.1350    3.5854 H   0  0  0  0  0  0  0  0  0  0  0  0
   -4.3178    5.9223    2.2640 H   0  0  0  0  0  0  0  0  0  0  0  0
   -5.0532    4.3264    2.5534 H   0  0  0  0  0  0  0  0  0  0  0  0
   -4.4501    5.2914    3.9179 H   0  0  0  0  0  0  0  0  0  0  0  0
  1  2  2  0  0  0  0
  1  3  1  0  0  0  0
  1  7  1  0  0  0  0
  3  4  1  0  0  0  0
  3  5  1  0  0  0  0
  3  6  1  0  0  0  0
  7  8  1  0  0  0  0
  7 12  1  0  0  0  0
  8  9  1  0  0  0  0
  8 11  1  0  0  0  0
  8 13  1  0  0  0  0
  9 10  2  0  0  0  0
  9 17  1  0  0  0  0
 11 14  1  0  0  0  0
 11 15  1  0  0  0  0
 11 16  1  0  0  0  0
 17 18  1  0  0  0  0
 17 26  1  0  0  0  0
 18 19  1  0  0  0  0
 18 21  1  0  0  0  0
 18 27  1  0  0  0  0
 19 20  2  0  0  0  0
 19 32  1  0  0  0  0
 21 22  1  0  0  0  0
 21 28  1  0  0  0  0
 21 29  1  0  0  0  0
 22 23  1  0  0  0  0
 22 30  1  0  0  0  0
 22 31  1  0  0  0  0
 23 24  1  0  0  0  0
 23 25  2  0  0  0  0
 32 33  1  0  0  0  0
 32 37  1  0  0  0  0
 33 34  1  0  0  0  0
 33 36  1  0  0  0  0
 33 38  1  0  0  0  0
 34 35  2  0  0  0  0
 34 42  1  0  0  0  0
 36 39  1  0  0  0  0
 36 40  1  0  0  0  0
 36 41  1  0  0  0  0
 42 43  1  0  0  0  0
 42 44  1  0  0  0  0
 43 45  1  0  0  0  0
 43 46  1  0  0  0  0
 43 47  1  0  0  0  0
M  CHG  1  24  -1
M  END
$$$$

  -OEChem-05262216243D

 47 46  0     1  0  0  0  0  0999 V2000
    0.3018   -5.9115    1.6633 C   0  0  0  0  0  0  0  0  0  0  0  0
    1.4167   -5.9004    2.1648 O   0  0  0  0  0  0  0  0  0  0  0  0
   -0.7005   -6.9785    2.0636 C   0  0  0  0  0  0  0  0  0  0  0  0
   -1.0381   -7.5234    1.1786 H   0  0  0  0  0  0  0  0  0  0  0  0
   -0.2430   -7.6862    2.7602 H   0  0  0  0  0  0  0  0  0  0  0  0
   -1.5640   -6.5146    2.5470 H   0  0  0  0  0  0  0  0  0  0  0  0
   -0.0608   -4.9535    0.7429 N   0  0  0  0  0  0  0  0  0  0  0  0
    0.7205   -3.7484    0.4404 C   0  0  2  0  0  0  0  0  0  0  0  0
   -0.2014   -2.5407    0.1652 C   0  0  0  0  0  0  0  0  0  0  0  0
   -1.4137   -2.7120    0.1611 O   0  0  0  0  0  0  0  0  0  0  0  0
    1.6032   -4.0406   -0.7767 C   0  0  0  0  0  0  0  0  0  0  0  0
   -1.0456   -4.9166    0.4756 H   0  0  0  0  0  0  0  0  0  0  0  0
    1.3533   -3.4891    1.2953 H   0  0  0  0  0  0  0  0  0  0  0  0
    0.9843   -4.2777   -1.6488 H   0  0  0  0  0  0  0  0  0  0  0  0
    2.2266   -3.1746   -1.0182 H   0  0  0  0  0  0  0  0  0  0  0  0
    2.2597   -4.8921   -0.5724 H   0  0  0  0  0  0  0  0  0  0  0  0
    0.3503   -1.2749    0.0673 N   0  0  0  0  0  0  0  0  0  0  0  0
   -0.2313   -0.0356   -0.4983 C   0  0  2  0  0  0  0  0  0  0  0  0
   -0.3062    1.0539    0.5968 C   0  0  0  0  0  0  0  0  0  0  0  0
    0.5923    1.1210    1.4330 O   0  0  0  0  0  0  0  0  0  0  0  0
   -1.5005   -0.1621   -1.3756 C   0  0  0  0  0  0  0  0  0  0  0  0
   -1.1858   -0.9029   -2.6934 C   0  0  0  0  0  0  0  0  0  0  0  0
   -2.4182   -1.0718   -3.5848 C   0  0  0  0  0  0  0  0  0  0  0  0
   -3.2020   -0.0942   -3.6885 O   0  5  0  0  0  0  0  0  0  0  0  0
   -2.5203   -2.1419   -4.2344 O   0  0  0  0  0  0  0  0  0  0  0  0
    1.3360   -1.2198    0.3032 H   0  0  0  0  0  0  0  0  0  0  0  0
    0.5243    0.3478   -1.1902 H   0  0  0  0  0  0  0  0  0  0  0  0
   -1.8623    0.8360   -1.6417 H   0  0  0  0  0  0  0  0  0  0  0  0
   -2.3112   -0.6586   -0.8348 H   0  0  0  0  0  0  0  0  0  0  0  0
   -0.4321   -0.3428   -3.2537 H   0  0  0  0  0  0  0  0  0  0  0  0
   -0.7758   -1.8924   -2.4755 H   0  0  0  0  0  0  0  0  0  0  0  0
   -1.2788    2.0384    0.6083 N   0  0  0  0  0  0  0  0  0  0  0  0
   -1.4027    3.0640    1.6530 C   0  0  2  0  0  0  0  0  0  0  0  0
   -2.8701    3.4008    1.9857 C   0  0  0  0  0  0  0  0  0  0  0  0
   -3.7388    3.3283    1.1259 O   0  0  0  0  0  0  0  0  0  0  0  0
   -0.6651    4.3185    1.1799 C   0  0  0  0  0  0  0  0  0  0  0  0
   -2.0627    1.9272   -0.0369 H   0  0  0  0  0  0  0  0  0  0  0  0
   -0.9403    2.7045    2.5778 H   0  0  0  0  0  0  0  0  0  0  0  0
   -1.1181    4.7027    0.2601 H   0  0  0  0  0  0  0  0  0  0  0  0
   -0.7089    5.1001    1.9441 H   0  0  0  0  0  0  0  0  0  0  0  0
    0.3859    4.0864    0.9813 H   0  0  0  0  0  0  0  0  0  0  0  0
   -3.2137    3.8153    3.2605 N   0  0  0  0  0  0  0  0  0  0  0  0
   -4.5864    4.0888    3.6655 C   0  0  0  0  0  0  0  0  0  0  0  0
   -2.4847    3.8019    3.9671 H   0  0  0  0  0  0  0  0  0  0  0  0
   -5.0173    4.8817    3.0453 H   0  0  0  0  0  0  0  0  0  0  0  0
   -5.2011    3.1881    3.5650 H   0  0  0  0  0  0  0  0  0  0  0  0
   -4.6147    4.4134    4.7098 H   0  0  0  0  0  0  0  0  0  0  0  0
  1  2  2  0  0  0  0
  1  3  1  0  0  0  0
  1  7  1  0  0  0  0
  3  4  1  0  0  0  0
  3  5  1  0  0  0  0
  3  6  1  0  0  0  0
  7  8  1  0  0  0  0
  7 12  1  0  0  0  0
  8  9  1  0  0  0  0
  8 11  1  0  0  0  0
  8 13  1  0  0  0  0
  9 10  2  0  0  0  0
  9 17  1  0  0  0  0
 11 14  1  0  0  0  0
 11 15  1  0  0  0  0
 11 16  1  0  0  0  0
 17 18  1  0  0  0  0
 17 26  1  0  0  0  0
 18 19  1  0  0  0  0
 18 21  1  0  0  0  0
 18 27  1  0  0  0  0
 19 20  2  0  0  0  0
 19 32  1  0  0  0  0
 21 22  1  0  0  0  0
 21 28  1  0  0  0  0
 21 29  1  0  0  0  0
 22 23  1  0  0  0  0
 22 30  1  0  0  0  0
 22 31  1  0  0  0  0
 23 24  1  0  0  0  0
 23 25  2  0  0  0  0
 32 33  1  0  0  0  0
 32 37  1  0  0  0  0
 33 34  1  0  0  0  0
 33 36  1  0  0  0  0
 33 38  1  0  0  0  0
 34 35  2  0  0  0  0
 34 42  1  0  0  0  0
 36 39  1  0  0  0  0
 36 40  1  0  0  0  0
 36 41  1  0  0  0  0
 42 43  1  0  0  0  0
 42 44  1  0  0  0  0
 43 45  1  0  0  0  0
 43 46  1  0  0  0  0
 43 47  1  0  0  0  0
M  CHG  1  24  -1
M  END
$$$$

  -OEChem-05262216243D

 47 46  0     1  0  0  0  0  0999 V2000
    0.3169   -6.0062    1.5155 C   0  0  0  0  0  0  0  0  0  0  0  0
    1.4551   -6.0450    1.9602 O   0  0  0  0  0  0  0  0  0  0  0  0
   -0.6841   -7.0816    1.8954 C   0  0  0  0  0  0  0  0  0  0  0  0
   -1.0656   -7.5701    0.9952 H   0  0  0  0  0  0  0  0  0  0  0  0
   -0.2092   -7.8334    2.5314 H   0  0  0  0  0  0  0  0  0  0  0  0
   -1.5199   -6.6350    2.4398 H   0  0  0  0  0  0  0  0  0  0  0  0
   -0.0734   -4.9841    0.6796 N   0  0  0  0  0  0  0  0  0  0  0  0
    0.7145   -3.7743    0.4162 C   0  0  2  0  0  0  0  0  0  0  0  0
   -0.1956   -2.5335    0.2902 C   0  0  0  0  0  0  0  0  0  0  0  0
   -1.4088   -2.6725    0.3834 O   0  0  0  0  0  0  0  0  0  0  0  0
    1.5087   -3.9924   -0.8752 C   0  0  0  0  0  0  0  0  0  0  0  0
   -1.0692   -4.9157    0.4647 H   0  0  0  0  0  0  0  0  0  0  0  0
    1.4076   -3.5906    1.2435 H   0  0  0  0  0  0  0  0  0  0  0  0
    0.8283   -4.1537   -1.7185 H   0  0  0  0  0  0  0  0  0  0  0  0
    2.1346   -3.1226   -1.0957 H   0  0  0  0  0  0  0  0  0  0  0  0
    2.1576   -4.8681   -0.7768 H   0  0  0  0  0  0  0  0  0  0  0  0
    0.3703   -1.2731    0.2090 N   0  0  0  0  0  0  0  0  0  0  0  0
   -0.2084   -0.0481   -0.3882 C   0  0  2  0  0  0  0  0  0  0  0  0
   -0.3339    1.0578    0.6820 C   0  0  0  0  0  0  0  0  0  0  0  0
    0.6331    1.3048    1.3982 O   0  0  0  0  0  0  0  0  0  0  0  0
   -1.4458   -0.2033   -1.3050 C   0  0  0  0  0  0  0  0  0  0  0  0
   -1.0774   -0.9535   -2.6018 C   0  0  0  0  0  0  0  0  0  0  0  0
   -2.2828   -1.1455   -3.5230 C   0  0  0  0  0  0  0  0  0  0  0  0
   -3.0028   -0.1410   -3.7532 O   0  5  0  0  0  0  0  0  0  0  0  0
   -2.4306   -2.2712   -4.0599 O   0  0  0  0  0  0  0  0  0  0  0  0
    1.3785   -1.2572    0.3226 H   0  0  0  0  0  0  0  0  0  0  0  0
    0.5648    0.3366   -1.0601 H   0  0  0  0  0  0  0  0  0  0  0  0
   -1.8110    0.7883   -1.5917 H   0  0  0  0  0  0  0  0  0  0  0  0
   -2.2679   -0.7059   -0.7875 H   0  0  0  0  0  0  0  0  0  0  0  0
   -0.3147   -0.3888   -3.1453 H   0  0  0  0  0  0  0  0  0  0  0  0
   -0.6602   -1.9346   -2.3613 H   0  0  0  0  0  0  0  0  0  0  0  0
   -1.4725    1.8320    0.8188 N   0  0  0  0  0  0  0  0  0  0  0  0
   -1.6658    2.8463    1.8636 C   0  0  2  0  0  0  0  0  0  0  0  0
   -3.0872    2.8231    2.4617 C   0  0  0  0  0  0  0  0  0  0  0  0
   -4.0447    2.4594    1.7906 O   0  0  0  0  0  0  0  0  0  0  0  0
   -1.3681    4.2170    1.2525 C   0  0  0  0  0  0  0  0  0  0  0  0
   -2.2971    1.5351    0.2945 H   0  0  0  0  0  0  0  0  0  0  0  0
   -0.9707    2.6658    2.6895 H   0  0  0  0  0  0  0  0  0  0  0  0
   -2.0544    4.4226    0.4246 H   0  0  0  0  0  0  0  0  0  0  0  0
   -1.4815    5.0041    2.0038 H   0  0  0  0  0  0  0  0  0  0  0  0
   -0.3424    4.2455    0.8713 H   0  0  0  0  0  0  0  0  0  0  0  0
   -3.2957    3.2440    3.7635 N   0  0  0  0  0  0  0  0  0  0  0  0
   -4.5986    3.2055    4.4154 C   0  0  0  0  0  0  0  0  0  0  0  0
   -2.4753    3.4770    4.3146 H   0  0  0  0  0  0  0  0  0  0  0  0
   -5.3274    3.7986    3.8530 H   0  0  0  0  0  0  0  0  0  0  0  0
   -4.9611    2.1745    4.4838 H   0  0  0  0  0  0  0  0  0  0  0  0
   -4.5269    3.6167    5.4267 H   0  0  0  0  0  0  0  0  0  0  0  0
  1  2  2  0  0  0  0
  1  3  1  0  0  0  0
  1  7  1  0  0  0  0
  3  4  1  0  0  0  0
  3  5  1  0  0  0  0
  3  6  1  0  0  0  0
  7  8  1  0  0  0  0
  7 12  1  0  0  0  0
  8  9  1  0  0  0  0
  8 11  1  0  0  0  0
  8 13  1  0  0  0  0
  9 10  2  0  0  0  0
  9 17  1  0  0  0  0
 11 14  1  0  0  0  0
 11 15  1  0  0  0  0
 11 16  1  0  0  0  0
 17 18  1  0  0  0  0
 17 26  1  0  0  0  0
 18 19  1  0  0  0  0
 18 21  1  0  0  0  0
 18 27  1  0  0  0  0
 19 20  2  0  0  0  0
 19 32  1  0  0  0  0
 21 22  1  0  0  0  0
 21 28  1  0  0  0  0
 21 29  1  0  0  0  0
 22 23  1  0  0  0  0
 22 30  1  0  0  0  0
 22 31  1  0  0  0  0
 23 24  1  0  0  0  0
 23 25  2  0  0  0  0
 32 33  1  0  0  0  0
 32 37  1  0  0  0  0
 33 34  1  0  0  0  0
 33 36  1  0  0  0  0
 33 38  1  0  0  0  0
 34 35  2  0  0  0  0
 34 42  1  0  0  0  0
 36 39  1  0  0  0  0
 36 40  1  0  0  0  0
 36 41  1  0  0  0  0
 42 43  1  0  0  0  0
 42 44  1  0  0  0  0
 43 45  1  0  0  0  0
 43 46  1  0  0  0  0
 43 47  1  0  0  0  0
M  CHG  1  24  -1
M  END
$$$$

  -OEChem-05262216243D

 47 46  0     1  0  0  0  0  0999 V2000
    0.3550   -6.0222    1.4585 C   0  0  0  0  0  0  0  0  0  0  0  0
    1.4995   -6.0544    1.8867 O   0  0  0  0  0  0  0  0  0  0  0  0
   -0.6381   -7.0940    1.8679 C   0  0  0  0  0  0  0  0  0  0  0  0
   -1.0431   -7.5850    0.9795 H   0  0  0  0  0  0  0  0  0  0  0  0
   -0.1485   -7.8449    2.4941 H   0  0  0  0  0  0  0  0  0  0  0  0
   -1.4591   -6.6442    2.4317 H   0  0  0  0  0  0  0  0  0  0  0  0
   -0.0489   -5.0126    0.6136 N   0  0  0  0  0  0  0  0  0  0  0  0
    0.7295   -3.7999    0.3341 C   0  0  2  0  0  0  0  0  0  0  0  0
   -0.1781   -2.5514    0.3026 C   0  0  0  0  0  0  0  0  0  0  0  0
   -1.3875   -2.6862    0.4411 O   0  0  0  0  0  0  0  0  0  0  0  0
    1.4342   -3.9855   -1.0131 C   0  0  0  0  0  0  0  0  0  0  0  0
   -1.0502   -4.9432    0.4266 H   0  0  0  0  0  0  0  0  0  0  0  0
    1.4782   -3.6421    1.1172 H   0  0  0  0  0  0  0  0  0  0  0  0
    0.6987   -4.1287   -1.8121 H   0  0  0  0  0  0  0  0  0  0  0  0
    2.0430   -3.1095   -1.2562 H   0  0  0  0  0  0  0  0  0  0  0  0
    2.0883   -4.8622   -0.9797 H   0  0  0  0  0  0  0  0  0  0  0  0
    0.3866   -1.2889    0.2561 N   0  0  0  0  0  0  0  0  0  0  0  0
   -0.1985   -0.0643   -0.3343 C   0  0  2  0  0  0  0  0  0  0  0  0
   -0.3571    1.0245    0.7463 C   0  0  0  0  0  0  0  0  0  0  0  0
    0.6415    1.4317    1.3336 O   0  0  0  0  0  0  0  0  0  0  0  0
   -1.4254   -0.2217   -1.2650 C   0  0  0  0  0  0  0  0  0  0  0  0
   -1.0372   -0.9546   -2.5666 C   0  0  0  0  0  0  0  0  0  0  0  0
   -2.2278   -1.1519   -3.5064 C   0  0  0  0  0  0  0  0  0  0  0  0
   -2.9744   -0.1629   -3.7174 O   0  5  0  0  0  0  0  0  0  0  0  0
   -2.3387   -2.2672   -4.0734 O   0  0  0  0  0  0  0  0  0  0  0  0
    1.3995   -1.2854    0.3168 H   0  0  0  0  0  0  0  0  0  0  0  0
    0.5775    0.3389   -0.9920 H   0  0  0  0  0  0  0  0  0  0  0  0
   -1.7976    0.7719   -1.5382 H   0  0  0  0  0  0  0  0  0  0  0  0
   -2.2475   -0.7398   -0.7632 H   0  0  0  0  0  0  0  0  0  0  0  0
   -0.2736   -0.3781   -3.0956 H   0  0  0  0  0  0  0  0  0  0  0  0
   -0.6138   -1.9338   -2.3311 H   0  0  0  0  0  0  0  0  0  0  0  0
   -1.5892    1.5630    1.0708 N   0  0  0  0  0  0  0  0  0  0  0  0
   -1.8163    2.5379    2.1456 C   0  0  2  0  0  0  0  0  0  0  0  0
   -3.1042    2.2497    2.9439 C   0  0  0  0  0  0  0  0  0  0  0  0
   -4.0717    1.7261    2.4057 O   0  0  0  0  0  0  0  0  0  0  0  0
   -1.8802    3.9300    1.5133 C   0  0  0  0  0  0  0  0  0  0  0  0
   -2.4094    1.1124    0.6618 H   0  0  0  0  0  0  0  0  0  0  0  0
   -0.9850    2.5080    2.8570 H   0  0  0  0  0  0  0  0  0  0  0  0
   -2.7020    3.9841    0.7918 H   0  0  0  0  0  0  0  0  0  0  0  0
   -2.0385    4.6930    2.2812 H   0  0  0  0  0  0  0  0  0  0  0  0
   -0.9435    4.1520    0.9920 H   0  0  0  0  0  0  0  0  0  0  0  0
   -3.1872    2.6065    4.2784 N   0  0  0  0  0  0  0  0  0  0  0  0
   -4.3491    2.3184    5.1094 C   0  0  0  0  0  0  0  0  0  0  0  0
   -2.3503    2.9815    4.7140 H   0  0  0  0  0  0  0  0  0  0  0  0
   -5.2424    2.8001    4.6981 H   0  0  0  0  0  0  0  0  0  0  0  0
   -4.5232    1.2385    5.1626 H   0  0  0  0  0  0  0  0  0  0  0  0
   -4.1905    2.6941    6.1246 H   0  0  0  0  0  0  0  0  0  0  0  0
  1  2  2  0  0  0  0
  1  3  1  0  0  0  0
  1  7  1  0  0  0  0
  3  4  1  0  0  0  0
  3  5  1  0  0  0  0
  3  6  1  0  0  0  0
  7  8  1  0  0  0  0
  7 12  1  0  0  0  0
  8  9  1  0  0  0  0
  8 11  1  0  0  0  0
  8 13  1  0  0  0  0
  9 10  2  0  0  0  0
  9 17  1  0  0  0  0
 11 14  1  0  0  0  0
 11 15  1  0  0  0  0
 11 16  1  0  0  0  0
 17 18  1  0  0  0  0
 17 26  1  0  0  0  0
 18 19  1  0  0  0  0
 18 21  1  0  0  0  0
 18 27  1  0  0  0  0
 19 20  2  0  0  0  0
 19 32  1  0  0  0  0
 21 22  1  0  0  0  0
 21 28  1  0  0  0  0
 21 29  1  0  0  0  0
 22 23  1  0  0  0  0
 22 30  1  0  0  0  0
 22 31  1  0  0  0  0
 23 24  1  0  0  0  0
 23 25  2  0  0  0  0
 32 33  1  0  0  0  0
 32 37  1  0  0  0  0
 33 34  1  0  0  0  0
 33 36  1  0  0  0  0
 33 38  1  0  0  0  0
 34 35  2  0  0  0  0
 34 42  1  0  0  0  0
 36 39  1  0  0  0  0
 36 40  1  0  0  0  0
 36 41  1  0  0  0  0
 42 43  1  0  0  0  0
 42 44  1  0  0  0  0
 43 45  1  0  0  0  0
 43 46  1  0  0  0  0
 43 47  1  0  0  0  0
M  CHG  1  24  -1
M  END
$$$$

  -OEChem-05262216243D

 47 46  0     1  0  0  0  0  0999 V2000
    0.3946   -6.0362    1.4118 C   0  0  0  0  0  0  0  0  0  0  0  0
    1.5479   -6.0683    1.8161 O   0  0  0  0  0  0  0  0  0  0  0  0
   -0.5977   -7.0906    1.8662 C   0  0  0  0  0  0  0  0  0  0  0  0
   -0.9588   -7.6582    1.0050 H   0  0  0  0  0  0  0  0  0  0  0  0
   -0.1227   -7.7792    2.5703 H   0  0  0  0  0  0  0  0  0  0  0  0
   -1.4476   -6.6126    2.3599 H   0  0  0  0  0  0  0  0  0  0  0  0
   -0.0222   -5.0387    0.5585 N   0  0  0  0  0  0  0  0  0  0  0  0
    0.7499   -3.8281    0.2527 C   0  0  2  0  0  0  0  0  0  0  0  0
   -0.1544   -2.5769    0.2652 C   0  0  0  0  0  0  0  0  0  0  0  0
   -1.3617   -2.7111    0.4211 O   0  0  0  0  0  0  0  0  0  0  0  0
    1.3941   -4.0127   -1.1239 C   0  0  0  0  0  0  0  0  0  0  0  0
   -1.0273   -4.9687    0.3930 H   0  0  0  0  0  0  0  0  0  0  0  0
    1.5322   -3.6764    1.0033 H   0  0  0  0  0  0  0  0  0  0  0  0
    0.6237   -4.1484   -1.8907 H   0  0  0  0  0  0  0  0  0  0  0  0
    1.9966   -3.1391   -1.3894 H   0  0  0  0  0  0  0  0  0  0  0  0
    2.0431   -4.8938   -1.1228 H   0  0  0  0  0  0  0  0  0  0  0  0
    0.4084   -1.3130    0.2572 N   0  0  0  0  0  0  0  0  0  0  0  0
   -0.1838   -0.0816   -0.3107 C   0  0  2  0  0  0  0  0  0  0  0  0
   -0.3621    0.9791    0.7909 C   0  0  0  0  0  0  0  0  0  0  0  0
    0.6259    1.5527    1.2400 O   0  0  0  0  0  0  0  0  0  0  0  0
   -1.4097   -0.2186   -1.2440 C   0  0  0  0  0  0  0  0  0  0  0  0
   -1.0263   -0.9211   -2.5627 C   0  0  0  0  0  0  0  0  0  0  0  0
   -2.2220   -1.0941   -3.5008 C   0  0  0  0  0  0  0  0  0  0  0  0
   -2.9764   -0.1040   -3.6756 O   0  5  0  0  0  0  0  0  0  0  0  0
   -2.3318   -2.1926   -4.0994 O   0  0  0  0  0  0  0  0  0  0  0  0
    1.4226   -1.3144    0.2902 H   0  0  0  0  0  0  0  0  0  0  0  0
    0.5911    0.3403   -0.9581 H   0  0  0  0  0  0  0  0  0  0  0  0
   -1.7828    0.7822   -1.4880 H   0  0  0  0  0  0  0  0  0  0  0  0
   -2.2302   -0.7499   -0.7542 H   0  0  0  0  0  0  0  0  0  0  0  0
   -0.2649   -0.3315   -3.0808 H   0  0  0  0  0  0  0  0  0  0  0  0
   -0.6025   -1.9059   -2.3523 H   0  0  0  0  0  0  0  0  0  0  0  0
   -1.6076    1.2657    1.3185 N   0  0  0  0  0  0  0  0  0  0  0  0
   -1.8457    2.1785    2.4432 C   0  0  2  0  0  0  0  0  0  0  0  0
   -2.9186    1.6546    3.4196 C   0  0  0  0  0  0  0  0  0  0  0  0
   -3.8445    0.9577    3.0233 O   0  0  0  0  0  0  0  0  0  0  0  0
   -2.2660    3.5331    1.8687 C   0  0  0  0  0  0  0  0  0  0  0  0
   -2.3791    0.6646    1.0240 H   0  0  0  0  0  0  0  0  0  0  0  0
   -0.9234    2.3050    3.0190 H   0  0  0  0  0  0  0  0  0  0  0  0
   -3.1986    3.4350    1.3034 H   0  0  0  0  0  0  0  0  0  0  0  0
   -2.4191    4.2591    2.6724 H   0  0  0  0  0  0  0  0  0  0  0  0
   -1.4908    3.9163    1.1977 H   0  0  0  0  0  0  0  0  0  0  0  0
   -2.8612    2.0002    4.7583 N   0  0  0  0  0  0  0  0  0  0  0  0
   -3.8212    1.5265    5.7467 C   0  0  0  0  0  0  0  0  0  0  0  0
   -2.0590    2.5403    5.0675 H   0  0  0  0  0  0  0  0  0  0  0  0
   -4.8314    1.8622    5.4901 H   0  0  0  0  0  0  0  0  0  0  0  0
   -3.8141    0.4324    5.7931 H   0  0  0  0  0  0  0  0  0  0  0  0
   -3.5679    1.9171    6.7367 H   0  0  0  0  0  0  0  0  0  0  0  0
  1  2  2  0  0  0  0
  1  3  1  0  0  0  0
  1  7  1  0  0  0  0
  3  4  1  0  0  0  0
  3  5  1  0  0  0  0
  3  6  1  0  0  0  0
  7  8  1  0  0  0  0
  7 12  1  0  0  0  0
  8  9  1  0  0  0  0
  8 11  1  0  0  0  0
  8 13  1  0  0  0  0
  9 10  2  0  0  0  0
  9 17  1  0  0  0  0
 11 14  1  0  0  0  0
 11 15  1  0  0  0  0
 11 16  1  0  0  0  0
 17 18  1  0  0  0  0
 17 26  1  0  0  0  0
 18 19  1  0  0  0  0
 18 21  1  0  0  0  0
 18 27  1  0  0  0  0
 19 20  2  0  0  0  0
 19 32  1  0  0  0  0
 21 22  1  0  0  0  0
 21 28  1  0  0  0  0
 21 29  1  0  0  0  0
 22 23  1  0  0  0  0
 22 30  1  0  0  0  0
 22 31  1  0  0  0  0
 23 24  1  0  0  0  0
 23 25  2  0  0  0  0
 32 33  1  0  0  0  0
 32 37  1  0  0  0  0
 33 34  1  0  0  0  0
 33 36  1  0  0  0  0
 33 38  1  0  0  0  0
 34 35  2  0  0  0  0
 34 42  1  0  0  0  0
 36 39  1  0  0  0  0
 36 40  1  0  0  0  0
 36 41  1  0  0  0  0
 42 43  1  0  0  0  0
 42 44  1  0  0  0  0
 43 45  1  0  0  0  0
 43 46  1  0  0  0  0
 43 47  1  0  0  0  0
M  CHG  1  24  -1
M  END
$$$$

  -OEChem-05262216243D

 47 46  0     1  0  0  0  0  0999 V2000
    0.4231   -6.0781    1.3268 C   0  0  0  0  0  0  0  0  0  0  0  0
    1.5894   -6.1096    1.6921 O   0  0  0  0  0  0  0  0  0  0  0  0
   -0.5568   -7.1216    1.8310 C   0  0  0  0  0  0  0  0  0  0  0  0
   -0.9789   -7.6760    0.9890 H   0  0  0  0  0  0  0  0  0  0  0  0
   -0.0512   -7.8240    2.4991 H   0  0  0  0  0  0  0  0  0  0  0  0
   -1.3675   -6.6353    2.3795 H   0  0  0  0  0  0  0  0  0  0  0  0
   -0.0181   -5.0919    0.4723 N   0  0  0  0  0  0  0  0  0  0  0  0
    0.7436   -3.8814    0.1409 C   0  0  2  0  0  0  0  0  0  0  0  0
   -0.1435   -2.6220    0.2396 C   0  0  0  0  0  0  0  0  0  0  0  0
   -1.3490   -2.7446    0.4184 O   0  0  0  0  0  0  0  0  0  0  0  0
    1.2932   -4.0394   -1.2791 C   0  0  0  0  0  0  0  0  0  0  0  0
   -1.0280   -5.0206    0.3423 H   0  0  0  0  0  0  0  0  0  0  0  0
    1.5771   -3.7524    0.8388 H   0  0  0  0  0  0  0  0  0  0  0  0
    0.4733   -4.1591   -1.9954 H   0  0  0  0  0  0  0  0  0  0  0  0
    1.8776   -3.1603   -1.5666 H   0  0  0  0  0  0  0  0  0  0  0  0
    1.9396   -4.9204   -1.3390 H   0  0  0  0  0  0  0  0  0  0  0  0
    0.4354   -1.3667    0.2917 N   0  0  0  0  0  0  0  0  0  0  0  0
   -0.1400   -0.1149   -0.2469 C   0  0  2  0  0  0  0  0  0  0  0  0
   -0.3374    0.9089    0.8837 C   0  0  0  0  0  0  0  0  0  0  0  0
    0.5837    1.6553    1.2000 O   0  0  0  0  0  0  0  0  0  0  0  0
   -1.3583   -0.2107   -1.1945 C   0  0  0  0  0  0  0  0  0  0  0  0
   -0.9709   -0.8787   -2.5301 C   0  0  0  0  0  0  0  0  0  0  0  0
   -2.1587   -1.0118   -3.4850 C   0  0  0  0  0  0  0  0  0  0  0  0
   -2.9138   -0.0166   -3.6247 O   0  5  0  0  0  0  0  0  0  0  0  0
   -2.2628   -2.0854   -4.1283 O   0  0  0  0  0  0  0  0  0  0  0  0
    1.4499   -1.3895    0.2974 H   0  0  0  0  0  0  0  0  0  0  0  0
    0.6461    0.3221   -0.8708 H   0  0  0  0  0  0  0  0  0  0  0  0
   -1.7187    0.8017   -1.4096 H   0  0  0  0  0  0  0  0  0  0  0  0
   -2.1899   -0.7462   -0.7279 H   0  0  0  0  0  0  0  0  0  0  0  0
   -0.1984   -0.2829   -3.0234 H   0  0  0  0  0  0  0  0  0  0  0  0
   -0.5601   -1.8736   -2.3453 H   0  0  0  0  0  0  0  0  0  0  0  0
   -1.5239    0.9540    1.5908 N   0  0  0  0  0  0  0  0  0  0  0  0
   -1.7910    1.8486    2.7237 C   0  0  2  0  0  0  0  0  0  0  0  0
   -2.5317    1.1470    3.8807 C   0  0  0  0  0  0  0  0  0  0  0  0
   -3.3372    0.2503    3.6631 O   0  0  0  0  0  0  0  0  0  0  0  0
   -2.6168    3.0265    2.2020 C   0  0  0  0  0  0  0  0  0  0  0  0
   -2.1990    0.2121    1.3971 H   0  0  0  0  0  0  0  0  0  0  0  0
   -0.8479    2.2284    3.1291 H   0  0  0  0  0  0  0  0  0  0  0  0
   -3.5686    2.6736    1.7909 H   0  0  0  0  0  0  0  0  0  0  0  0
   -2.8255    3.7358    3.0082 H   0  0  0  0  0  0  0  0  0  0  0  0
   -2.0700    3.5509    1.4121 H   0  0  0  0  0  0  0  0  0  0  0  0
   -2.3230    1.5599    5.1850 N   0  0  0  0  0  0  0  0  0  0  0  0
   -2.9892    0.9573    6.3324 C   0  0  0  0  0  0  0  0  0  0  0  0
   -1.6304    2.2860    5.3403 H   0  0  0  0  0  0  0  0  0  0  0  0
   -4.0715    1.1120    6.2705 H   0  0  0  0  0  0  0  0  0  0  0  0
   -2.7879   -0.1185    6.3714 H   0  0  0  0  0  0  0  0  0  0  0  0
   -2.6265    1.4102    7.2599 H   0  0  0  0  0  0  0  0  0  0  0  0
  1  2  2  0  0  0  0
  1  3  1  0  0  0  0
  1  7  1  0  0  0  0
  3  4  1  0  0  0  0
  3  5  1  0  0  0  0
  3  6  1  0  0  0  0
  7  8  1  0  0  0  0
  7 12  1  0  0  0  0
  8  9  1  0  0  0  0
  8 11  1  0  0  0  0
  8 13  1  0  0  0  0
  9 10  2  0  0  0  0
  9 17  1  0  0  0  0
 11 14  1  0  0  0  0
 11 15  1  0  0  0  0
 11 16  1  0  0  0  0
 17 18  1  0  0  0  0
 17 26  1  0  0  0  0
 18 19  1  0  0  0  0
 18 21  1  0  0  0  0
 18 27  1  0  0  0  0
 19 20  2  0  0  0  0
 19 32  1  0  0  0  0
 21 22  1  0  0  0  0
 21 28  1  0  0  0  0
 21 29  1  0  0  0  0
 22 23  1  0  0  0  0
 22 30  1  0  0  0  0
 22 31  1  0  0  0  0
 23 24  1  0  0  0  0
 23 25  2  0  0  0  0
 32 33  1  0  0  0  0
 32 37  1  0  0  0  0
 33 34  1  0  0  0  0
 33 36  1  0  0  0  0
 33 38  1  0  0  0  0
 34 35  2  0  0  0  0
 34 42  1  0  0  0  0
 36 39  1  0  0  0  0
 36 40  1  0  0  0  0
 36 41  1  0  0  0  0
 42 43  1  0  0  0  0
 42 44  1  0  0  0  0
 43 45  1  0  0  0  0
 43 46  1  0  0  0  0
 43 47  1  0  0  0  0
M  CHG  1  24  -1
M  END
$$$$

  -OEChem-05262216243D

 47 46  0     1  0  0  0  0  0999 V2000
   -0.1703   -6.0654   -0.4093 C   0  0  0  0  0  0  0  0  0  0  0  0
    0.4864   -6.7904    0.3275 O   0  0  0  0  0  0  0  0  0  0  0  0
   -0.9062   -6.6481   -1.6014 C   0  0  0  0  0  0  0  0  0  0  0  0
   -0.5278   -6.2019   -2.5251 H   0  0  0  0  0  0  0  0  0  0  0  0
   -0.7672   -7.7312   -1.6448 H   0  0  0  0  0  0  0  0  0  0  0  0
   -1.9741   -6.4291   -1.5217 H   0  0  0  0  0  0  0  0  0  0  0  0
   -0.2341   -4.7110   -0.1726 N   0  0  0  0  0  0  0  0  0  0  0  0
    0.3826   -4.0203    0.9769 C   0  0  2  0  0  0  0  0  0  0  0  0
   -0.3899   -2.7314    1.3438 C   0  0  0  0  0  0  0  0  0  0  0  0
   -1.5561   -2.8013    1.7117 O   0  0  0  0  0  0  0  0  0  0  0  0
    1.8614   -3.7535    0.6613 C   0  0  0  0  0  0  0  0  0  0  0  0
   -0.8220   -4.1759   -0.8251 H   0  0  0  0  0  0  0  0  0  0  0  0
    0.3280   -4.6715    1.8559 H   0  0  0  0  0  0  0  0  0  0  0  0
    1.9619   -3.1075   -0.2161 H   0  0  0  0  0  0  0  0  0  0  0  0
    2.3544   -3.2751    1.5127 H   0  0  0  0  0  0  0  0  0  0  0  0
    2.3782   -4.6959    0.4540 H   0  0  0  0  0  0  0  0  0  0  0  0
    0.1547   -1.4545    1.3277 N   0  0  0  0  0  0  0  0  0  0  0  0
   -0.4410   -0.3839    0.4884 C   0  0  2  0  0  0  0  0  0  0  0  0
   -0.9176    0.7882    1.3546 C   0  0  0  0  0  0  0  0  0  0  0  0
   -0.2516    1.8116    1.4732 O   0  0  0  0  0  0  0  0  0  0  0  0
   -1.4139   -0.8570   -0.6157 C   0  0  0  0  0  0  0  0  0  0  0  0
   -0.6282   -1.6495   -1.6782 C   0  0  0  0  0  0  0  0  0  0  0  0
   -1.5283   -2.1796   -2.7799 C   0  0  0  0  0  0  0  0  0  0  0  0
   -2.0027   -1.3888   -3.6284 O   0  5  0  0  0  0  0  0  0  0  0  0
   -1.7411   -3.4192   -2.7334 O   0  0  0  0  0  0  0  0  0  0  0  0
    1.1668   -1.4827    1.2628 H   0  0  0  0  0  0  0  0  0  0  0  0
    0.3975    0.0466   -0.0688 H   0  0  0  0  0  0  0  0  0  0  0  0
   -1.8637    0.0174   -1.0989 H   0  0  0  0  0  0  0  0  0  0  0  0
   -2.2403   -1.4514   -0.2166 H   0  0  0  0  0  0  0  0  0  0  0  0
    0.1048   -0.9828   -2.1415 H   0  0  0  0  0  0  0  0  0  0  0  0
   -0.0646   -2.4675   -1.2465 H   0  0  0  0  0  0  0  0  0  0  0  0
   -2.0761    0.6361    2.0889 N   0  0  0  0  0  0  0  0  0  0  0  0
   -2.6600    1.6631    2.9644 C   0  0  2  0  0  0  0  0  0  0  0  0
   -1.9376    1.7937    4.3299 C   0  0  0  0  0  0  0  0  0  0  0  0
   -2.5543    1.8215    5.3902 O   0  0  0  0  0  0  0  0  0  0  0  0
   -4.1489    1.3274    3.1094 C   0  0  0  0  0  0  0  0  0  0  0  0
   -2.4792   -0.3024    2.0871 H   0  0  0  0  0  0  0  0  0  0  0  0
   -2.5824    2.6367    2.4692 H   0  0  0  0  0  0  0  0  0  0  0  0
   -4.2773    0.3703    3.6252 H   0  0  0  0  0  0  0  0  0  0  0  0
   -4.6606    2.1047    3.6854 H   0  0  0  0  0  0  0  0  0  0  0  0
   -4.6219    1.2612    2.1247 H   0  0  0  0  0  0  0  0  0  0  0  0
   -0.5645    1.9427    4.3569 N   0  0  0  0  0  0  0  0  0  0  0  0
    0.2188    2.1237    5.5698 C   0  0  0  0  0  0  0  0  0  0  0  0
   -0.1007    1.9740    3.4450 H   0  0  0  0  0  0  0  0  0  0  0  0
   -0.0685    3.0511    6.0755 H   0  0  0  0  0  0  0  0  0  0  0  0
    0.0634    1.2838    6.2548 H   0  0  0  0  0  0  0  0  0  0  0  0
    1.2837    2.1771    5.3247 H   0  0  0  0  0  0  0  0  0  0  0  0
  1  2  2  0  0  0  0
  1  3  1  0  0  0  0
  1  7  1  0  0  0  0
  3  4  1  0  0  0  0
  3  5  1  0  0  0  0
  3  6  1  0  0  0  0
  7  8  1  0  0  0  0
  7 12  1  0  0  0  0
  8  9  1  0  0  0  0
  8 11  1  0  0  0  0
  8 13  1  0  0  0  0
  9 10  2  0  0  0  0
  9 17  1  0  0  0  0
 11 14  1  0  0  0  0
 11 15  1  0  0  0  0
 11 16  1  0  0  0  0
 17 18  1  0  0  0  0
 17 26  1  0  0  0  0
 18 19  1  0  0  0  0
 18 21  1  0  0  0  0
 18 27  1  0  0  0  0
 19 20  2  0  0  0  0
 19 32  1  0  0  0  0
 21 22  1  0  0  0  0
 21 28  1  0  0  0  0
 21 29  1  0  0  0  0
 22 23  1  0  0  0  0
 22 30  1  0  0  0  0
 22 31  1  0  0  0  0
 23 24  1  0  0  0  0
 23 25  2  0  0  0  0
 32 33  1  0  0  0  0
 32 37  1  0  0  0  0
 33 34  1  0  0  0  0
 33 36  1  0  0  0  0
 33 38  1  0  0  0  0
 34 35  2  0  0  0  0
 34 42  1  0  0  0  0
 36 39  1  0  0  0  0
 36 40  1  0  0  0  0
 36 41  1  0  0  0  0
 42 43  1  0  0  0  0
 42 44  1  0  0  0  0
 43 45  1  0  0  0  0
 43 46  1  0  0  0  0
 43 47  1  0  0  0  0
M  CHG  1  24  -1
M  END
$$$$

  -OEChem-05262216243D

 47 46  0     1  0  0  0  0  0999 V2000
   -0.0772   -6.4053    0.6064 C   0  0  0  0  0  0  0  0  0  0  0  0
    0.9465   -6.6727    1.2188 O   0  0  0  0  0  0  0  0  0  0  0  0
   -1.1295   -7.4742    0.3772 C   0  0  0  0  0  0  0  0  0  0  0  0
   -1.2523   -7.6513   -0.6942 H   0  0  0  0  0  0  0  0  0  0  0  0
   -0.8312   -8.4097    0.8584 H   0  0  0  0  0  0  0  0  0  0  0  0
   -2.0858   -7.1510    0.7963 H   0  0  0  0  0  0  0  0  0  0  0  0
   -0.2909   -5.1321    0.1276 N   0  0  0  0  0  0  0  0  0  0  0  0
    0.5522   -3.9715    0.4373 C   0  0  2  0  0  0  0  0  0  0  0  0
   -0.2952   -2.6866    0.5669 C   0  0  0  0  0  0  0  0  0  0  0  0
   -1.5176   -2.7602    0.6224 O   0  0  0  0  0  0  0  0  0  0  0  0
    1.6026   -3.8413   -0.6709 C   0  0  0  0  0  0  0  0  0  0  0  0
   -1.2185   -4.9282   -0.2461 H   0  0  0  0  0  0  0  0  0  0  0  0
    1.0578   -4.1219    1.3968 H   0  0  0  0  0  0  0  0  0  0  0  0
    1.1186   -3.7079   -1.6440 H   0  0  0  0  0  0  0  0  0  0  0  0
    2.2586   -2.9858   -0.4865 H   0  0  0  0  0  0  0  0  0  0  0  0
    2.2195   -4.7446   -0.7137 H   0  0  0  0  0  0  0  0  0  0  0  0
    0.2868   -1.4705    0.8731 N   0  0  0  0  0  0  0  0  0  0  0  0
   -0.1462   -0.1649    0.3210 C   0  0  2  0  0  0  0  0  0  0  0  0
   -0.5857    0.7452    1.4756 C   0  0  0  0  0  0  0  0  0  0  0  0
    0.0277    1.7680    1.7616 O   0  0  0  0  0  0  0  0  0  0  0  0
   -1.1696   -0.1583   -0.8376 C   0  0  0  0  0  0  0  0  0  0  0  0
   -0.5693   -0.7572   -2.1247 C   0  0  0  0  0  0  0  0  0  0  0  0
   -1.5788   -0.7798   -3.2728 C   0  0  0  0  0  0  0  0  0  0  0  0
   -2.1840    0.2873   -3.5432 O   0  5  0  0  0  0  0  0  0  0  0  0
   -1.7094   -1.8583   -3.9026 O   0  0  0  0  0  0  0  0  0  0  0  0
    1.2898   -1.5429    1.0111 H   0  0  0  0  0  0  0  0  0  0  0  0
    0.7512    0.3051   -0.0942 H   0  0  0  0  0  0  0  0  0  0  0  0
   -1.4580    0.8784   -1.0458 H   0  0  0  0  0  0  0  0  0  0  0  0
   -2.0869   -0.6874   -0.5648 H   0  0  0  0  0  0  0  0  0  0  0  0
    0.2954   -0.1634   -2.4340 H   0  0  0  0  0  0  0  0  0  0  0  0
   -0.2262   -1.7766   -1.9432 H   0  0  0  0  0  0  0  0  0  0  0  0
   -1.6298    0.3254    2.2757 N   0  0  0  0  0  0  0  0  0  0  0  0
   -2.2315    1.1099    3.3629 C   0  0  2  0  0  0  0  0  0  0  0  0
   -1.4056    1.0788    4.6741 C   0  0  0  0  0  0  0  0  0  0  0  0
   -1.9187    0.8294    5.7605 O   0  0  0  0  0  0  0  0  0  0  0  0
   -3.6606    0.5860    3.5488 C   0  0  0  0  0  0  0  0  0  0  0  0
   -2.0489   -0.5697    2.0182 H   0  0  0  0  0  0  0  0  0  0  0  0
   -2.2956    2.1575    3.0505 H   0  0  0  0  0  0  0  0  0  0  0  0
   -3.6461   -0.4553    3.8866 H   0  0  0  0  0  0  0  0  0  0  0  0
   -4.1923    1.1861    4.2937 H   0  0  0  0  0  0  0  0  0  0  0  0
   -4.2125    0.6405    2.6051 H   0  0  0  0  0  0  0  0  0  0  0  0
   -0.0624    1.3972    4.6324 N   0  0  0  0  0  0  0  0  0  0  0  0
    0.7960    1.4937    5.8034 C   0  0  0  0  0  0  0  0  0  0  0  0
    0.3049    1.6564    3.7126 H   0  0  0  0  0  0  0  0  0  0  0  0
    0.4272    2.2673    6.4847 H   0  0  0  0  0  0  0  0  0  0  0  0
    0.8267    0.5376    6.3362 H   0  0  0  0  0  0  0  0  0  0  0  0
    1.8147    1.7546    5.5012 H   0  0  0  0  0  0  0  0  0  0  0  0
  1  2  2  0  0  0  0
  1  3  1  0  0  0  0
  1  7  1  0  0  0  0
  3  4  1  0  0  0  0
  3  5  1  0  0  0  0
  3  6  1  0  0  0  0
  7  8  1  0  0  0  0
  7 12  1  0  0  0  0
  8  9  1  0  0  0  0
  8 11  1  0  0  0  0
  8 13  1  0  0  0  0
  9 10  2  0  0  0  0
  9 17  1  0  0  0  0
 11 14  1  0  0  0  0
 11 15  1  0  0  0  0
 11 16  1  0  0  0  0
 17 18  1  0  0  0  0
 17 26  1  0  0  0  0
 18 19  1  0  0  0  0
 18 21  1  0  0  0  0
 18 27  1  0  0  0  0
 19 20  2  0  0  0  0
 19 32  1  0  0  0  0
 21 22  1  0  0  0  0
 21 28  1  0  0  0  0
 21 29  1  0  0  0  0
 22 23  1  0  0  0  0
 22 30  1  0  0  0  0
 22 31  1  0  0  0  0
 23 24  1  0  0  0  0
 23 25  2  0  0  0  0
 32 33  1  0  0  0  0
 32 37  1  0  0  0  0
 33 34  1  0  0  0  0
 33 36  1  0  0  0  0
 33 38  1  0  0  0  0
 34 35  2  0  0  0  0
 34 42  1  0  0  0  0
 36 39  1  0  0  0  0
 36 40  1  0  0  0  0
 36 41  1  0  0  0  0
 42 43  1  0  0  0  0
 42 44  1  0  0  0  0
 43 45  1  0  0  0  0
 43 46  1  0  0  0  0
 43 47  1  0  0  0  0
M  CHG  1  24  -1
M  END
$$$$

  -OEChem-05262216243D

 47 46  0     1  0  0  0  0  0999 V2000
   -0.4498   -6.1831   -0.7302 C   0  0  0  0  0  0  0  0  0  0  0  0
    0.1965   -7.0154   -0.1063 O   0  0  0  0  0  0  0  0  0  0  0  0
   -1.2920   -6.6003   -1.9209 C   0  0  0  0  0  0  0  0  0  0  0  0
   -0.9259   -6.1060   -2.8247 H   0  0  0  0  0  0  0  0  0  0  0  0
   -1.2463   -7.6829   -2.0624 H   0  0  0  0  0  0  0  0  0  0  0  0
   -2.3322   -6.3054   -1.7604 H   0  0  0  0  0  0  0  0  0  0  0  0
   -0.4013   -4.8554   -0.3708 N   0  0  0  0  0  0  0  0  0  0  0  0
    0.3511   -4.3125    0.7774 C   0  0  2  0  0  0  0  0  0  0  0  0
   -0.2897   -3.0097    1.3117 C   0  0  0  0  0  0  0  0  0  0  0  0
   -1.4043   -3.0340    1.8184 O   0  0  0  0  0  0  0  0  0  0  0  0
    1.8190   -4.1258    0.3682 C   0  0  0  0  0  0  0  0  0  0  0  0
   -0.9778   -4.2229   -0.9426 H   0  0  0  0  0  0  0  0  0  0  0  0
    0.3123   -5.0332    1.6014 H   0  0  0  0  0  0  0  0  0  0  0  0
    1.9058   -3.4181   -0.4617 H   0  0  0  0  0  0  0  0  0  0  0  0
    2.4080   -3.7567    1.2129 H   0  0  0  0  0  0  0  0  0  0  0  0
    2.2446   -5.0825    0.0491 H   0  0  0  0  0  0  0  0  0  0  0  0
    0.3382   -1.7739    1.3684 N   0  0  0  0  0  0  0  0  0  0  0  0
   -0.2331   -0.5950    0.6618 C   0  0  2  0  0  0  0  0  0  0  0  0
   -0.5791    0.5241    1.6530 C   0  0  0  0  0  0  0  0  0  0  0  0
   -0.2030    1.6788    1.4840 O   0  0  0  0  0  0  0  0  0  0  0  0
   -1.3075   -0.9165   -0.3999 C   0  0  0  0  0  0  0  0  0  0  0  0
   -0.6503   -1.6689   -1.5736 C   0  0  0  0  0  0  0  0  0  0  0  0
   -1.6532   -2.0551   -2.6457 C   0  0  0  0  0  0  0  0  0  0  0  0
   -2.1144   -1.1805   -3.4153 O   0  5  0  0  0  0  0  0  0  0  0  0
   -1.9527   -3.2778   -2.6618 O   0  0  0  0  0  0  0  0  0  0  0  0
    1.3370   -1.8666    1.2149 H   0  0  0  0  0  0  0  0  0  0  0  0
    0.5964   -0.1707    0.0867 H   0  0  0  0  0  0  0  0  0  0  0  0
   -1.7315    0.0194   -0.7808 H   0  0  0  0  0  0  0  0  0  0  0  0
   -2.1399   -1.4906    0.0173 H   0  0  0  0  0  0  0  0  0  0  0  0
    0.0896   -1.0102   -2.0377 H   0  0  0  0  0  0  0  0  0  0  0  0
   -0.1094   -2.5486   -1.2500 H   0  0  0  0  0  0  0  0  0  0  0  0
   -1.2380    0.1820    2.8168 N   0  0  0  0  0  0  0  0  0  0  0  0
   -1.6752    1.1299    3.8511 C   0  0  2  0  0  0  0  0  0  0  0  0
   -0.5219    1.5859    4.7805 C   0  0  0  0  0  0  0  0  0  0  0  0
   -0.5981    1.5068    6.0027 O   0  0  0  0  0  0  0  0  0  0  0  0
   -2.8271    0.4632    4.6119 C   0  0  0  0  0  0  0  0  0  0  0  0
   -1.4979   -0.8035    2.8997 H   0  0  0  0  0  0  0  0  0  0  0  0
   -2.0701    2.0293    3.3673 H   0  0  0  0  0  0  0  0  0  0  0  0
   -2.4785   -0.4404    5.1223 H   0  0  0  0  0  0  0  0  0  0  0  0
   -3.2363    1.1495    5.3599 H   0  0  0  0  0  0  0  0  0  0  0  0
   -3.6296    0.1874    3.9209 H   0  0  0  0  0  0  0  0  0  0  0  0
    0.6151    2.1347    4.2203 N   0  0  0  0  0  0  0  0  0  0  0  0
    1.7686    2.5922    4.9801 C   0  0  0  0  0  0  0  0  0  0  0  0
    0.6261    2.1921    3.1977 H   0  0  0  0  0  0  0  0  0  0  0  0
    1.4748    3.3710    5.6911 H   0  0  0  0  0  0  0  0  0  0  0  0
    2.2166    1.7596    5.5317 H   0  0  0  0  0  0  0  0  0  0  0  0
    2.5222    3.0068    4.3041 H   0  0  0  0  0  0  0  0  0  0  0  0
  1  2  2  0  0  0  0
  1  3  1  0  0  0  0
  1  7  1  0  0  0  0
  3  4  1  0  0  0  0
  3  5  1  0  0  0  0
  3  6  1  0  0  0  0
  7  8  1  0  0  0  0
  7 12  1  0  0  0  0
  8  9  1  0  0  0  0
  8 11  1  0  0  0  0
  8 13  1  0  0  0  0
  9 10  2  0  0  0  0
  9 17  1  0  0  0  0
 11 14  1  0  0  0  0
 11 15  1  0  0  0  0
 11 16  1  0  0  0  0
 17 18  1  0  0  0  0
 17 26  1  0  0  0  0
 18 19  1  0  0  0  0
 18 21  1  0  0  0  0
 18 27  1  0  0  0  0
 19 20  2  0  0  0  0
 19 32  1  0  0  0  0
 21 22  1  0  0  0  0
 21 28  1  0  0  0  0
 21 29  1  0  0  0  0
 22 23  1  0  0  0  0
 22 30  1  0  0  0  0
 22 31  1  0  0  0  0
 23 24  1  0  0  0  0
 23 25  2  0  0  0  0
 32 33  1  0  0  0  0
 32 37  1  0  0  0  0
 33 34  1  0  0  0  0
 33 36  1  0  0  0  0
 33 38  1  0  0  0  0
 34 35  2  0  0  0  0
 34 42  1  0  0  0  0
 36 39  1  0  0  0  0
 36 40  1  0  0  0  0
 36 41  1  0  0  0  0
 42 43  1  0  0  0  0
 42 44  1  0  0  0  0
 43 45  1  0  0  0  0
 43 46  1  0  0  0  0
 43 47  1  0  0  0  0
M  CHG  1  24  -1
M  END
$$$$

  -OEChem-05262216243D

 47 46  0     1  0  0  0  0  0999 V2000
   -0.7067   -6.1815   -0.8835 C   0  0  0  0  0  0  0  0  0  0  0  0
   -0.0774   -7.0856   -0.3481 O   0  0  0  0  0  0  0  0  0  0  0  0
   -1.6994   -6.4857   -1.9893 C   0  0  0  0  0  0  0  0  0  0  0  0
   -1.3828   -5.9976   -2.9149 H   0  0  0  0  0  0  0  0  0  0  0  0
   -1.7672   -7.5631   -2.1581 H   0  0  0  0  0  0  0  0  0  0  0  0
   -2.6871   -6.1045   -1.7162 H   0  0  0  0  0  0  0  0  0  0  0  0
   -0.5047   -4.8748   -0.5028 N   0  0  0  0  0  0  0  0  0  0  0  0
    0.3764   -4.4377    0.5979 C   0  0  2  0  0  0  0  0  0  0  0  0
   -0.1458   -3.1427    1.2631 C   0  0  0  0  0  0  0  0  0  0  0  0
   -1.1971   -3.1557    1.8898 O   0  0  0  0  0  0  0  0  0  0  0  0
    1.8094   -4.2975    0.0667 C   0  0  0  0  0  0  0  0  0  0  0  0
   -1.0863   -4.1810   -0.9929 H   0  0  0  0  0  0  0  0  0  0  0  0
    0.3741   -5.2042    1.3805 H   0  0  0  0  0  0  0  0  0  0  0  0
    1.8637   -3.5367   -0.7174 H   0  0  0  0  0  0  0  0  0  0  0  0
    2.4913   -4.0214    0.8763 H   0  0  0  0  0  0  0  0  0  0  0  0
    2.1477   -5.2495   -0.3544 H   0  0  0  0  0  0  0  0  0  0  0  0
    0.5391   -1.9377    1.3297 N   0  0  0  0  0  0  0  0  0  0  0  0
   -0.0430   -0.6972    0.7438 C   0  0  2  0  0  0  0  0  0  0  0  0
   -0.2550    0.3846    1.8143 C   0  0  0  0  0  0  0  0  0  0  0  0
   -0.1279    1.5773    1.5623 O   0  0  0  0  0  0  0  0  0  0  0  0
   -1.2135   -0.9231   -0.2382 C   0  0  0  0  0  0  0  0  0  0  0  0
   -0.6869   -1.6260   -1.5052 C   0  0  0  0  0  0  0  0  0  0  0  0
   -1.7904   -1.9176   -2.5061 C   0  0  0  0  0  0  0  0  0  0  0  0
   -2.2588   -0.9943   -3.2114 O   0  5  0  0  0  0  0  0  0  0  0  0
   -2.1535   -3.1227   -2.5402 O   0  0  0  0  0  0  0  0  0  0  0  0
    1.5134   -2.0609    1.0734 H   0  0  0  0  0  0  0  0  0  0  0  0
    0.7510   -0.2699    0.1230 H   0  0  0  0  0  0  0  0  0  0  0  0
   -1.6335    0.0464   -0.5287 H   0  0  0  0  0  0  0  0  0  0  0  0
   -2.0272   -1.4943    0.2182 H   0  0  0  0  0  0  0  0  0  0  0  0
    0.0333   -0.9638   -1.9948 H   0  0  0  0  0  0  0  0  0  0  0  0
   -0.1511   -2.5390   -1.2805 H   0  0  0  0  0  0  0  0  0  0  0  0
   -0.5223   -0.0152    3.1086 N   0  0  0  0  0  0  0  0  0  0  0  0
   -0.9186    0.8855    4.2001 C   0  0  2  0  0  0  0  0  0  0  0  0
    0.2776    1.6366    4.8389 C   0  0  0  0  0  0  0  0  0  0  0  0
    0.4930    1.6101    6.0467 O   0  0  0  0  0  0  0  0  0  0  0  0
   -1.6969    0.0353    5.2118 C   0  0  0  0  0  0  0  0  0  0  0  0
   -0.6966   -1.0163    3.2138 H   0  0  0  0  0  0  0  0  0  0  0  0
   -1.6004    1.6462    3.8058 H   0  0  0  0  0  0  0  0  0  0  0  0
   -1.0495   -0.7330    5.6468 H   0  0  0  0  0  0  0  0  0  0  0  0
   -2.0830    0.6635    6.0204 H   0  0  0  0  0  0  0  0  0  0  0  0
   -2.5439   -0.4568    4.7235 H   0  0  0  0  0  0  0  0  0  0  0  0
    1.1052    2.3954    4.0346 N   0  0  0  0  0  0  0  0  0  0  0  0
    2.2516    3.1536    4.5131 C   0  0  0  0  0  0  0  0  0  0  0  0
    0.8859    2.3866    3.0340 H   0  0  0  0  0  0  0  0  0  0  0  0
    1.9422    3.8788    5.2726 H   0  0  0  0  0  0  0  0  0  0  0  0
    2.9991    2.4825    4.9480 H   0  0  0  0  0  0  0  0  0  0  0  0
    2.7140    3.6976    3.6842 H   0  0  0  0  0  0  0  0  0  0  0  0
  1  2  2  0  0  0  0
  1  3  1  0  0  0  0
  1  7  1  0  0  0  0
  3  4  1  0  0  0  0
  3  5  1  0  0  0  0
  3  6  1  0  0  0  0
  7  8  1  0  0  0  0
  7 12  1  0  0  0  0
  8  9  1  0  0  0  0
  8 11  1  0  0  0  0
  8 13  1  0  0  0  0
  9 10  2  0  0  0  0
  9 17  1  0  0  0  0
 11 14  1  0  0  0  0
 11 15  1  0  0  0  0
 11 16  1  0  0  0  0
 17 18  1  0  0  0  0
 17 26  1  0  0  0  0
 18 19  1  0  0  0  0
 18 21  1  0  0  0  0
 18 27  1  0  0  0  0
 19 20  2  0  0  0  0
 19 32  1  0  0  0  0
 21 22  1  0  0  0  0
 21 28  1  0  0  0  0
 21 29  1  0  0  0  0
 22 23  1  0  0  0  0
 22 30  1  0  0  0  0
 22 31  1  0  0  0  0
 23 24  1  0  0  0  0
 23 25  2  0  0  0  0
 32 33  1  0  0  0  0
 32 37  1  0  0  0  0
 33 34  1  0  0  0  0
 33 36  1  0  0  0  0
 33 38  1  0  0  0  0
 34 35  2  0  0  0  0
 34 42  1  0  0  0  0
 36 39  1  0  0  0  0
 36 40  1  0  0  0  0
 36 41  1  0  0  0  0
 42 43  1  0  0  0  0
 42 44  1  0  0  0  0
 43 45  1  0  0  0  0
 43 46  1  0  0  0  0
 43 47  1  0  0  0  0
M  CHG  1  24  -1
M  END
$$$$

  -OEChem-05262216243D

 47 46  0     1  0  0  0  0  0999 V2000
    0.2532   -6.3724    0.9459 C   0  0  0  0  0  0  0  0  0  0  0  0
    1.4530   -6.5490    1.0997 O   0  0  0  0  0  0  0  0  0  0  0  0
   -0.7369   -7.4056    1.4515 C   0  0  0  0  0  0  0  0  0  0  0  0
   -1.3619   -7.7572    0.6270 H   0  0  0  0  0  0  0  0  0  0  0  0
   -0.2072   -8.2596    1.8822 H   0  0  0  0  0  0  0  0  0  0  0  0
   -1.3763   -6.9625    2.2190 H   0  0  0  0  0  0  0  0  0  0  0  0
   -0.2133   -5.2307    0.3328 N   0  0  0  0  0  0  0  0  0  0  0  0
    0.6122   -4.0623    0.0052 C   0  0  2  0  0  0  0  0  0  0  0  0
   -0.1638   -2.7474    0.2396 C   0  0  0  0  0  0  0  0  0  0  0  0
   -1.3257   -2.7892    0.6250 O   0  0  0  0  0  0  0  0  0  0  0  0
    1.0563   -4.1831   -1.4553 C   0  0  0  0  0  0  0  0  0  0  0  0
   -1.2201   -5.0665    0.3637 H   0  0  0  0  0  0  0  0  0  0  0  0
    1.4966   -4.0381    0.6502 H   0  0  0  0  0  0  0  0  0  0  0  0
    0.1854   -4.2194   -2.1185 H   0  0  0  0  0  0  0  0  0  0  0  0
    1.6768   -3.3292   -1.7425 H   0  0  0  0  0  0  0  0  0  0  0  0
    1.6400   -5.0978   -1.5984 H   0  0  0  0  0  0  0  0  0  0  0  0
    0.5050   -1.5365    0.2704 N   0  0  0  0  0  0  0  0  0  0  0  0
   -0.0260   -0.2336   -0.2101 C   0  0  2  0  0  0  0  0  0  0  0  0
   -0.0840    0.7961    0.9363 C   0  0  0  0  0  0  0  0  0  0  0  0
   -0.0853    1.9998    0.7093 O   0  0  0  0  0  0  0  0  0  0  0  0
   -1.3270   -0.2601   -1.0458 C   0  0  0  0  0  0  0  0  0  0  0  0
   -1.1002   -0.9468   -2.4094 C   0  0  0  0  0  0  0  0  0  0  0  0
   -2.3730   -1.0139   -3.2555 C   0  0  0  0  0  0  0  0  0  0  0  0
   -3.0340    0.0424   -3.4150 O   0  5  0  0  0  0  0  0  0  0  0  0
   -2.6440   -2.1157   -3.7947 O   0  0  0  0  0  0  0  0  0  0  0  0
    1.5034   -1.6467    0.1238 H   0  0  0  0  0  0  0  0  0  0  0  0
    0.7335    0.1648   -0.8894 H   0  0  0  0  0  0  0  0  0  0  0  0
   -1.6509    0.7703   -1.2313 H   0  0  0  0  0  0  0  0  0  0  0  0
   -2.1387   -0.7492   -0.5002 H   0  0  0  0  0  0  0  0  0  0  0  0
   -0.3438   -0.3922   -2.9715 H   0  0  0  0  0  0  0  0  0  0  0  0
   -0.7281   -1.9617   -2.2621 H   0  0  0  0  0  0  0  0  0  0  0  0
    0.0260    0.3657    2.2438 N   0  0  0  0  0  0  0  0  0  0  0  0
    0.1490    1.2313    3.4207 C   0  0  2  0  0  0  0  0  0  0  0  0
    1.1453    0.6719    4.4580 C   0  0  0  0  0  0  0  0  0  0  0  0
    1.4975   -0.5028    4.4290 O   0  0  0  0  0  0  0  0  0  0  0  0
   -1.2442    1.3862    4.0353 C   0  0  0  0  0  0  0  0  0  0  0  0
    0.0742   -0.6439    2.3803 H   0  0  0  0  0  0  0  0  0  0  0  0
    0.5181    2.2167    3.1185 H   0  0  0  0  0  0  0  0  0  0  0  0
   -1.6346    0.4117    4.3453 H   0  0  0  0  0  0  0  0  0  0  0  0
   -1.2097    2.0436    4.9088 H   0  0  0  0  0  0  0  0  0  0  0  0
   -1.9331    1.8201    3.3034 H   0  0  0  0  0  0  0  0  0  0  0  0
    1.6551    1.5008    5.4413 N   0  0  0  0  0  0  0  0  0  0  0  0
    2.6040    1.0543    6.4528 C   0  0  0  0  0  0  0  0  0  0  0  0
    1.3617    2.4731    5.4319 H   0  0  0  0  0  0  0  0  0  0  0  0
    2.1607    0.2679    7.0725 H   0  0  0  0  0  0  0  0  0  0  0  0
    3.5107    0.6620    5.9804 H   0  0  0  0  0  0  0  0  0  0  0  0
    2.8852    1.8890    7.1015 H   0  0  0  0  0  0  0  0  0  0  0  0
  1  2  2  0  0  0  0
  1  3  1  0  0  0  0
  1  7  1  0  0  0  0
  3  4  1  0  0  0  0
  3  5  1  0  0  0  0
  3  6  1  0  0  0  0
  7  8  1  0  0  0  0
  7 12  1  0  0  0  0
  8  9  1  0  0  0  0
  8 11  1  0  0  0  0
  8 13  1  0  0  0  0
  9 10  2  0  0  0  0
  9 17  1  0  0  0  0
 11 14  1  0  0  0  0
 11 15  1  0  0  0  0
 11 16  1  0  0  0  0
 17 18  1  0  0  0  0
 17 26  1  0  0  0  0
 18 19  1  0  0  0  0
 18 21  1  0  0  0  0
 18 27  1  0  0  0  0
 19 20  2  0  0  0  0
 19 32  1  0  0  0  0
 21 22  1  0  0  0  0
 21 28  1  0  0  0  0
 21 29  1  0  0  0  0
 22 23  1  0  0  0  0
 22 30  1  0  0  0  0
 22 31  1  0  0  0  0
 23 24  1  0  0  0  0
 23 25  2  0  0  0  0
 32 33  1  0  0  0  0
 32 37  1  0  0  0  0
 33 34  1  0  0  0  0
 33 36  1  0  0  0  0
 33 38  1  0  0  0  0
 34 35  2  0  0  0  0
 34 42  1  0  0  0  0
 36 39  1  0  0  0  0
 36 40  1  0  0  0  0
 36 41  1  0  0  0  0
 42 43  1  0  0  0  0
 42 44  1  0  0  0  0
 43 45  1  0  0  0  0
 43 46  1  0  0  0  0
 43 47  1  0  0  0  0
M  CHG  1  24  -1
M  END
$$$$

  -OEChem-05262216243D

 47 46  0     1  0  0  0  0  0999 V2000
    0.2413   -6.3418    1.0120 C   0  0  0  0  0  0  0  0  0  0  0  0
    1.4403   -6.5129    1.1780 O   0  0  0  0  0  0  0  0  0  0  0  0
   -0.7523   -7.3523    1.5547 C   0  0  0  0  0  0  0  0  0  0  0  0
   -1.3162   -7.7980    0.7314 H   0  0  0  0  0  0  0  0  0  0  0  0
   -0.2290   -8.1452    2.0961 H   0  0  0  0  0  0  0  0  0  0  0  0
   -1.4484   -6.8591    2.2378 H   0  0  0  0  0  0  0  0  0  0  0  0
   -0.2217   -5.2305    0.3430 N   0  0  0  0  0  0  0  0  0  0  0  0
    0.6051   -4.0743   -0.0224 C   0  0  2  0  0  0  0  0  0  0  0  0
   -0.1423   -2.7481    0.2395 C   0  0  0  0  0  0  0  0  0  0  0  0
   -1.2860   -2.7746    0.6762 O   0  0  0  0  0  0  0  0  0  0  0  0
    0.9819   -4.2107   -1.5003 C   0  0  0  0  0  0  0  0  0  0  0  0
   -1.2274   -5.0602    0.3764 H   0  0  0  0  0  0  0  0  0  0  0  0
    1.5178   -4.0577    0.5820 H   0  0  0  0  0  0  0  0  0  0  0  0
    0.0817   -4.2424   -2.1238 H   0  0  0  0  0  0  0  0  0  0  0  0
    1.5983   -3.3666   -1.8227 H   0  0  0  0  0  0  0  0  0  0  0  0
    1.5481   -5.1333   -1.6612 H   0  0  0  0  0  0  0  0  0  0  0  0
    0.5444   -1.5460    0.2245 N   0  0  0  0  0  0  0  0  0  0  0  0
    0.0030   -0.2387   -0.2342 C   0  0  2  0  0  0  0  0  0  0  0  0
    0.0215    0.8045    0.9054 C   0  0  0  0  0  0  0  0  0  0  0  0
   -0.2347    1.9842    0.6990 O   0  0  0  0  0  0  0  0  0  0  0  0
   -1.3316   -0.2654   -1.0202 C   0  0  0  0  0  0  0  0  0  0  0  0
   -1.1531   -0.9565   -2.3892 C   0  0  0  0  0  0  0  0  0  0  0  0
   -2.4557   -1.0259   -3.1881 C   0  0  0  0  0  0  0  0  0  0  0  0
   -3.0751    0.0458   -3.4007 O   0  5  0  0  0  0  0  0  0  0  0  0
   -2.7913   -2.1488   -3.6411 O   0  0  0  0  0  0  0  0  0  0  0  0
    1.5281   -1.6738    0.0085 H   0  0  0  0  0  0  0  0  0  0  0  0
    0.7347    0.1473   -0.9498 H   0  0  0  0  0  0  0  0  0  0  0  0
   -1.6627    0.7638   -1.2005 H   0  0  0  0  0  0  0  0  0  0  0  0
   -2.1243   -0.7505   -0.4443 H   0  0  0  0  0  0  0  0  0  0  0  0
   -0.4172   -0.4039   -2.9797 H   0  0  0  0  0  0  0  0  0  0  0  0
   -0.7749   -1.9705   -2.2529 H   0  0  0  0  0  0  0  0  0  0  0  0
    0.5011    0.4494    2.1519 N   0  0  0  0  0  0  0  0  0  0  0  0
    0.6552    1.3547    3.2952 C   0  0  2  0  0  0  0  0  0  0  0  0
    1.8210    0.9431    4.2191 C   0  0  0  0  0  0  0  0  0  0  0  0
    2.2980   -0.1860    4.1696 O   0  0  0  0  0  0  0  0  0  0  0  0
   -0.6652    1.3704    4.0701 C   0  0  0  0  0  0  0  0  0  0  0  0
    0.7032   -0.5392    2.2925 H   0  0  0  0  0  0  0  0  0  0  0  0
    0.8699    2.3656    2.9343 H   0  0  0  0  0  0  0  0  0  0  0  0
   -0.9010    0.3689    4.4438 H   0  0  0  0  0  0  0  0  0  0  0  0
   -0.6045    2.0558    4.9203 H   0  0  0  0  0  0  0  0  0  0  0  0
   -1.4818    1.6995    3.4193 H   0  0  0  0  0  0  0  0  0  0  0  0
    2.3436    1.8553    5.1189 N   0  0  0  0  0  0  0  0  0  0  0  0
    3.4528    1.5544    6.0149 C   0  0  0  0  0  0  0  0  0  0  0  0
    1.9447    2.7896    5.1216 H   0  0  0  0  0  0  0  0  0  0  0  0
    3.1962    0.7183    6.6741 H   0  0  0  0  0  0  0  0  0  0  0  0
    4.3477    1.2910    5.4413 H   0  0  0  0  0  0  0  0  0  0  0  0
    3.6833    2.4255    6.6355 H   0  0  0  0  0  0  0  0  0  0  0  0
  1  2  2  0  0  0  0
  1  3  1  0  0  0  0
  1  7  1  0  0  0  0
  3  4  1  0  0  0  0
  3  5  1  0  0  0  0
  3  6  1  0  0  0  0
  7  8  1  0  0  0  0
  7 12  1  0  0  0  0
  8  9  1  0  0  0  0
  8 11  1  0  0  0  0
  8 13  1  0  0  0  0
  9 10  2  0  0  0  0
  9 17  1  0  0  0  0
 11 14  1  0  0  0  0
 11 15  1  0  0  0  0
 11 16  1  0  0  0  0
 17 18  1  0  0  0  0
 17 26  1  0  0  0  0
 18 19  1  0  0  0  0
 18 21  1  0  0  0  0
 18 27  1  0  0  0  0
 19 20  2  0  0  0  0
 19 32  1  0  0  0  0
 21 22  1  0  0  0  0
 21 28  1  0  0  0  0
 21 29  1  0  0  0  0
 22 23  1  0  0  0  0
 22 30  1  0  0  0  0
 22 31  1  0  0  0  0
 23 24  1  0  0  0  0
 23 25  2  0  0  0  0
 32 33  1  0  0  0  0
 32 37  1  0  0  0  0
 33 34  1  0  0  0  0
 33 36  1  0  0  0  0
 33 38  1  0  0  0  0
 34 35  2  0  0  0  0
 34 42  1  0  0  0  0
 36 39  1  0  0  0  0
 36 40  1  0  0  0  0
 36 41  1  0  0  0  0
 42 43  1  0  0  0  0
 42 44  1  0  0  0  0
 43 45  1  0  0  0  0
 43 46  1  0  0  0  0
 43 47  1  0  0  0  0
M  CHG  1  24  -1
M  END
$$$$

  -OEChem-05262216243D

 47 46  0     1  0  0  0  0  0999 V2000
    0.2648   -6.2319    1.1663 C   0  0  0  0  0  0  0  0  0  0  0  0
    1.4586   -6.3558    1.3985 O   0  0  0  0  0  0  0  0  0  0  0  0
   -0.7293   -7.2050    1.7734 C   0  0  0  0  0  0  0  0  0  0  0  0
   -1.2474   -7.7512    0.9814 H   0  0  0  0  0  0  0  0  0  0  0  0
   -0.2132   -7.9217    2.4184 H   0  0  0  0  0  0  0  0  0  0  0  0
   -1.4653   -6.6602    2.3701 H   0  0  0  0  0  0  0  0  0  0  0  0
   -0.1933   -5.2069    0.3678 N   0  0  0  0  0  0  0  0  0  0  0  0
    0.6153   -4.0497   -0.0372 C   0  0  2  0  0  0  0  0  0  0  0  0
   -0.1253   -2.7221    0.2389 C   0  0  0  0  0  0  0  0  0  0  0  0
   -1.2572   -2.7469    0.7052 O   0  0  0  0  0  0  0  0  0  0  0  0
    0.9365   -4.1987   -1.5265 C   0  0  0  0  0  0  0  0  0  0  0  0
   -1.2028   -5.0583    0.3606 H   0  0  0  0  0  0  0  0  0  0  0  0
    1.5515   -4.0217    0.5296 H   0  0  0  0  0  0  0  0  0  0  0  0
    0.0139   -4.2371   -2.1159 H   0  0  0  0  0  0  0  0  0  0  0  0
    1.5383   -3.3554   -1.8786 H   0  0  0  0  0  0  0  0  0  0  0  0
    1.4977   -5.1218   -1.7009 H   0  0  0  0  0  0  0  0  0  0  0  0
    0.5608   -1.5202    0.1899 N   0  0  0  0  0  0  0  0  0  0  0  0
    0.0022   -0.2197   -0.2678 C   0  0  2  0  0  0  0  0  0  0  0  0
    0.0549    0.8342    0.8628 C   0  0  0  0  0  0  0  0  0  0  0  0
   -0.4499    1.9436    0.7433 O   0  0  0  0  0  0  0  0  0  0  0  0
   -1.3442   -0.2653   -1.0351 C   0  0  0  0  0  0  0  0  0  0  0  0
   -1.1711   -0.9646   -2.4002 C   0  0  0  0  0  0  0  0  0  0  0  0
   -2.4803   -1.0557   -3.1842 C   0  0  0  0  0  0  0  0  0  0  0  0
   -3.0732    0.0152   -3.4646 O   0  5  0  0  0  0  0  0  0  0  0  0
   -2.8450   -2.1970   -3.5624 O   0  0  0  0  0  0  0  0  0  0  0  0
    1.5336   -1.6543   -0.0677 H   0  0  0  0  0  0  0  0  0  0  0  0
    0.7172    0.1624   -1.0020 H   0  0  0  0  0  0  0  0  0  0  0  0
   -1.6902    0.7574   -1.2223 H   0  0  0  0  0  0  0  0  0  0  0  0
   -2.1248   -0.7535   -0.4458 H   0  0  0  0  0  0  0  0  0  0  0  0
   -0.4474   -0.4092   -3.0032 H   0  0  0  0  0  0  0  0  0  0  0  0
   -0.7799   -1.9726   -2.2594 H   0  0  0  0  0  0  0  0  0  0  0  0
    0.8416    0.6008    1.9757 N   0  0  0  0  0  0  0  0  0  0  0  0
    1.0329    1.5336    3.0912 C   0  0  2  0  0  0  0  0  0  0  0  0
    2.3655    1.2924    3.8316 C   0  0  0  0  0  0  0  0  0  0  0  0
    2.9939    0.2498    3.6760 O   0  0  0  0  0  0  0  0  0  0  0  0
   -0.1495    1.3829    4.0539 C   0  0  0  0  0  0  0  0  0  0  0  0
    1.2319   -0.3349    2.0679 H   0  0  0  0  0  0  0  0  0  0  0  0
    1.0554    2.5586    2.7064 H   0  0  0  0  0  0  0  0  0  0  0  0
   -0.1988    0.3603    4.4417 H   0  0  0  0  0  0  0  0  0  0  0  0
   -0.0503    2.0729    4.8967 H   0  0  0  0  0  0  0  0  0  0  0  0
   -1.0892    1.6039    3.5375 H   0  0  0  0  0  0  0  0  0  0  0  0
    2.8704    2.2631    4.6785 N   0  0  0  0  0  0  0  0  0  0  0  0
    4.1330    2.1287    5.3930 C   0  0  0  0  0  0  0  0  0  0  0  0
    2.3378    3.1230    4.7732 H   0  0  0  0  0  0  0  0  0  0  0  0
    4.1007    1.2682    6.0695 H   0  0  0  0  0  0  0  0  0  0  0  0
    4.9593    1.9933    4.6873 H   0  0  0  0  0  0  0  0  0  0  0  0
    4.3285    3.0274    5.9854 H   0  0  0  0  0  0  0  0  0  0  0  0
  1  2  2  0  0  0  0
  1  3  1  0  0  0  0
  1  7  1  0  0  0  0
  3  4  1  0  0  0  0
  3  5  1  0  0  0  0
  3  6  1  0  0  0  0
  7  8  1  0  0  0  0
  7 12  1  0  0  0  0
  8  9  1  0  0  0  0
  8 11  1  0  0  0  0
  8 13  1  0  0  0  0
  9 10  2  0  0  0  0
  9 17  1  0  0  0  0
 11 14  1  0  0  0  0
 11 15  1  0  0  0  0
 11 16  1  0  0  0  0
 17 18  1  0  0  0  0
 17 26  1  0  0  0  0
 18 19  1  0  0  0  0
 18 21  1  0  0  0  0
 18 27  1  0  0  0  0
 19 20  2  0  0  0  0
 19 32  1  0  0  0  0
 21 22  1  0  0  0  0
 21 28  1  0  0  0  0
 21 29  1  0  0  0  0
 22 23  1  0  0  0  0
 22 30  1  0  0  0  0
 22 31  1  0  0  0  0
 23 24  1  0  0  0  0
 23 25  2  0  0  0  0
 32 33  1  0  0  0  0
 32 37  1  0  0  0  0
 33 34  1  0  0  0  0
 33 36  1  0  0  0  0
 33 38  1  0  0  0  0
 34 35  2  0  0  0  0
 34 42  1  0  0  0  0
 36 39  1  0  0  0  0
 36 40  1  0  0  0  0
 36 41  1  0  0  0  0
 42 43  1  0  0  0  0
 42 44  1  0  0  0  0
 43 45  1  0  0  0  0
 43 46  1  0  0  0  0
 43 47  1  0  0  0  0
M  CHG  1  24  -1
M  END
$$$$

  -OEChem-05262216243D

 47 46  0     1  0  0  0  0  0999 V2000
    0.2481   -6.2222    1.2113 C   0  0  0  0  0  0  0  0  0  0  0  0
    1.4471   -6.3698    1.3987 O   0  0  0  0  0  0  0  0  0  0  0  0
   -0.7397   -7.1990    1.8220 C   0  0  0  0  0  0  0  0  0  0  0  0
   -1.3178   -7.6857    1.0327 H   0  0  0  0  0  0  0  0  0  0  0  0
   -0.2105   -7.9640    2.3970 H   0  0  0  0  0  0  0  0  0  0  0  0
   -1.4237   -6.6674    2.4882 H   0  0  0  0  0  0  0  0  0  0  0  0
   -0.2202   -5.1652    0.4624 N   0  0  0  0  0  0  0  0  0  0  0  0
    0.5961   -4.0206    0.0400 C   0  0  2  0  0  0  0  0  0  0  0  0
   -0.1367   -2.6839    0.2935 C   0  0  0  0  0  0  0  0  0  0  0  0
   -1.2683   -2.6957    0.7612 O   0  0  0  0  0  0  0  0  0  0  0  0
    0.9185   -4.1988   -1.4461 C   0  0  0  0  0  0  0  0  0  0  0  0
   -1.2275   -5.0020    0.4839 H   0  0  0  0  0  0  0  0  0  0  0  0
    1.5307   -3.9908    0.6096 H   0  0  0  0  0  0  0  0  0  0  0  0
   -0.0042   -4.2481   -2.0344 H   0  0  0  0  0  0  0  0  0  0  0  0
    1.5214   -3.3640   -1.8149 H   0  0  0  0  0  0  0  0  0  0  0  0
    1.4789   -5.1258   -1.6023 H   0  0  0  0  0  0  0  0  0  0  0  0
    0.5567   -1.4872    0.2186 N   0  0  0  0  0  0  0  0  0  0  0  0
   -0.0009   -0.1957   -0.2627 C   0  0  2  0  0  0  0  0  0  0  0  0
    0.0607    0.8793    0.8486 C   0  0  0  0  0  0  0  0  0  0  0  0
   -0.6586    1.8705    0.8512 O   0  0  0  0  0  0  0  0  0  0  0  0
   -1.3375   -0.2545   -1.0468 C   0  0  0  0  0  0  0  0  0  0  0  0
   -1.1387   -0.9709   -2.3997 C   0  0  0  0  0  0  0  0  0  0  0  0
   -2.4335   -1.0786   -3.2049 C   0  0  0  0  0  0  0  0  0  0  0  0
   -3.0006   -0.0119   -3.5480 O   0  5  0  0  0  0  0  0  0  0  0  0
   -2.8073   -2.2299   -3.5417 O   0  0  0  0  0  0  0  0  0  0  0  0
    1.5233   -1.6351   -0.0526 H   0  0  0  0  0  0  0  0  0  0  0  0
    0.7187    0.1722   -0.9997 H   0  0  0  0  0  0  0  0  0  0  0  0
   -1.6840    0.7640   -1.2541 H   0  0  0  0  0  0  0  0  0  0  0  0
   -2.1252   -0.7371   -0.4619 H   0  0  0  0  0  0  0  0  0  0  0  0
   -0.4086   -0.4193   -2.9988 H   0  0  0  0  0  0  0  0  0  0  0  0
   -0.7449   -1.9753   -2.2391 H   0  0  0  0  0  0  0  0  0  0  0  0
    1.0692    0.8183    1.7930 N   0  0  0  0  0  0  0  0  0  0  0  0
    1.2849    1.7940    2.8668 C   0  0  2  0  0  0  0  0  0  0  0  0
    2.7457    1.7959    3.3636 C   0  0  0  0  0  0  0  0  0  0  0  0
    3.4960    0.8581    3.1105 O   0  0  0  0  0  0  0  0  0  0  0  0
    0.3309    1.4654    4.0201 C   0  0  0  0  0  0  0  0  0  0  0  0
    1.6505   -0.0161    1.7917 H   0  0  0  0  0  0  0  0  0  0  0  0
    1.0650    2.7989    2.4918 H   0  0  0  0  0  0  0  0  0  0  0  0
    0.5313    0.4613    4.4081 H   0  0  0  0  0  0  0  0  0  0  0  0
    0.4491    2.1860    4.8345 H   0  0  0  0  0  0  0  0  0  0  0  0
   -0.7079    1.5039    3.6763 H   0  0  0  0  0  0  0  0  0  0  0  0
    3.2235    2.8621    4.1048 N   0  0  0  0  0  0  0  0  0  0  0  0
    4.5935    2.9516    4.5932 C   0  0  0  0  0  0  0  0  0  0  0  0
    2.5839    3.6310    4.2835 H   0  0  0  0  0  0  0  0  0  0  0  0
    4.8133    2.1213    5.2722 H   0  0  0  0  0  0  0  0  0  0  0  0
    5.3009    2.9215    3.7577 H   0  0  0  0  0  0  0  0  0  0  0  0
    4.7396    3.8902    5.1363 H   0  0  0  0  0  0  0  0  0  0  0  0
  1  2  2  0  0  0  0
  1  3  1  0  0  0  0
  1  7  1  0  0  0  0
  3  4  1  0  0  0  0
  3  5  1  0  0  0  0
  3  6  1  0  0  0  0
  7  8  1  0  0  0  0
  7 12  1  0  0  0  0
  8  9  1  0  0  0  0
  8 11  1  0  0  0  0
  8 13  1  0  0  0  0
  9 10  2  0  0  0  0
  9 17  1  0  0  0  0
 11 14  1  0  0  0  0
 11 15  1  0  0  0  0
 11 16  1  0  0  0  0
 17 18  1  0  0  0  0
 17 26  1  0  0  0  0
 18 19  1  0  0  0  0
 18 21  1  0  0  0  0
 18 27  1  0  0  0  0
 19 20  2  0  0  0  0
 19 32  1  0  0  0  0
 21 22  1  0  0  0  0
 21 28  1  0  0  0  0
 21 29  1  0  0  0  0
 22 23  1  0  0  0  0
 22 30  1  0  0  0  0
 22 31  1  0  0  0  0
 23 24  1  0  0  0  0
 23 25  2  0  0  0  0
 32 33  1  0  0  0  0
 32 37  1  0  0  0  0
 33 34  1  0  0  0  0
 33 36  1  0  0  0  0
 33 38  1  0  0  0  0
 34 35  2  0  0  0  0
 34 42  1  0  0  0  0
 36 39  1  0  0  0  0
 36 40  1  0  0  0  0
 36 41  1  0  0  0  0
 42 43  1  0  0  0  0
 42 44  1  0  0  0  0
 43 45  1  0  0  0  0
 43 46  1  0  0  0  0
 43 47  1  0  0  0  0
M  CHG  1  24  -1
M  END
$$$$

  -OEChem-05262216243D

 47 46  0     1  0  0  0  0  0999 V2000
    0.2865   -6.1259    1.3467 C   0  0  0  0  0  0  0  0  0  0  0  0
    1.4779   -6.2236    1.6032 O   0  0  0  0  0  0  0  0  0  0  0  0
   -0.7052   -7.0877    1.9749 C   0  0  0  0  0  0  0  0  0  0  0  0
   -1.2409   -7.6329    1.1940 H   0  0  0  0  0  0  0  0  0  0  0  0
   -0.1841   -7.8060    2.6136 H   0  0  0  0  0  0  0  0  0  0  0  0
   -1.4266   -6.5344    2.5815 H   0  0  0  0  0  0  0  0  0  0  0  0
   -0.1716   -5.1434    0.4969 N   0  0  0  0  0  0  0  0  0  0  0  0
    0.6276   -3.9952    0.0508 C   0  0  2  0  0  0  0  0  0  0  0  0
   -0.1258   -2.6665    0.2832 C   0  0  0  0  0  0  0  0  0  0  0  0
   -1.2686   -2.6933    0.7215 O   0  0  0  0  0  0  0  0  0  0  0  0
    0.9428   -4.1951   -1.4335 C   0  0  0  0  0  0  0  0  0  0  0  0
   -1.1823   -5.0035    0.4747 H   0  0  0  0  0  0  0  0  0  0  0  0
    1.5657   -3.9400    0.6122 H   0  0  0  0  0  0  0  0  0  0  0  0
    0.0173   -4.2479   -2.0173 H   0  0  0  0  0  0  0  0  0  0  0  0
    1.5476   -3.3679   -1.8164 H   0  0  0  0  0  0  0  0  0  0  0  0
    1.4986   -5.1267   -1.5782 H   0  0  0  0  0  0  0  0  0  0  0  0
    0.5536   -1.4616    0.2070 N   0  0  0  0  0  0  0  0  0  0  0  0
   -0.0166   -0.1762   -0.2729 C   0  0  2  0  0  0  0  0  0  0  0  0
    0.0374    0.8967    0.8400 C   0  0  0  0  0  0  0  0  0  0  0  0
   -0.8530    1.7186    1.0169 O   0  0  0  0  0  0  0  0  0  0  0  0
   -1.3486   -0.2420   -1.0632 C   0  0  0  0  0  0  0  0  0  0  0  0
   -1.1372   -0.9501   -2.4184 C   0  0  0  0  0  0  0  0  0  0  0  0
   -2.4275   -1.0635   -3.2295 C   0  0  0  0  0  0  0  0  0  0  0  0
   -2.9845    0.0026   -3.5910 O   0  5  0  0  0  0  0  0  0  0  0  0
   -2.8041   -2.2165   -3.5574 O   0  0  0  0  0  0  0  0  0  0  0  0
    1.5266   -1.5976   -0.0452 H   0  0  0  0  0  0  0  0  0  0  0  0
    0.6992    0.1984   -1.0098 H   0  0  0  0  0  0  0  0  0  0  0  0
   -1.7012    0.7755   -1.2654 H   0  0  0  0  0  0  0  0  0  0  0  0
   -2.1346   -0.7344   -0.4844 H   0  0  0  0  0  0  0  0  0  0  0  0
   -0.4077   -0.3906   -3.0106 H   0  0  0  0  0  0  0  0  0  0  0  0
   -0.7369   -1.9527   -2.2609 H   0  0  0  0  0  0  0  0  0  0  0  0
    1.1952    1.0391    1.5840 N   0  0  0  0  0  0  0  0  0  0  0  0
    1.4169    2.0595    2.6148 C   0  0  2  0  0  0  0  0  0  0  0  0
    2.9189    2.3276    2.8436 C   0  0  0  0  0  0  0  0  0  0  0  0
    3.7635    1.5306    2.4458 O   0  0  0  0  0  0  0  0  0  0  0  0
    0.7588    1.5914    3.9176 C   0  0  0  0  0  0  0  0  0  0  0  0
    1.9444    0.3722    1.4181 H   0  0  0  0  0  0  0  0  0  0  0  0
    0.9582    3.0015    2.2961 H   0  0  0  0  0  0  0  0  0  0  0  0
    1.2058    0.6508    4.2549 H   0  0  0  0  0  0  0  0  0  0  0  0
    0.8865    2.3412    4.7038 H   0  0  0  0  0  0  0  0  0  0  0  0
   -0.3137    1.4316    3.7670 H   0  0  0  0  0  0  0  0  0  0  0  0
    3.3273    3.4688    3.5104 N   0  0  0  0  0  0  0  0  0  0  0  0
    4.7240    3.7847    3.7790 C   0  0  0  0  0  0  0  0  0  0  0  0
    2.6059    4.1151    3.8171 H   0  0  0  0  0  0  0  0  0  0  0  0
    5.1767    3.0111    4.4079 H   0  0  0  0  0  0  0  0  0  0  0  0
    5.2884    3.8539    2.8432 H   0  0  0  0  0  0  0  0  0  0  0  0
    4.8008    4.7433    4.3006 H   0  0  0  0  0  0  0  0  0  0  0  0
  1  2  2  0  0  0  0
  1  3  1  0  0  0  0
  1  7  1  0  0  0  0
  3  4  1  0  0  0  0
  3  5  1  0  0  0  0
  3  6  1  0  0  0  0
  7  8  1  0  0  0  0
  7 12  1  0  0  0  0
  8  9  1  0  0  0  0
  8 11  1  0  0  0  0
  8 13  1  0  0  0  0
  9 10  2  0  0  0  0
  9 17  1  0  0  0  0
 11 14  1  0  0  0  0
 11 15  1  0  0  0  0
 11 16  1  0  0  0  0
 17 18  1  0  0  0  0
 17 26  1  0  0  0  0
 18 19  1  0  0  0  0
 18 21  1  0  0  0  0
 18 27  1  0  0  0  0
 19 20  2  0  0  0  0
 19 32  1  0  0  0  0
 21 22  1  0  0  0  0
 21 28  1  0  0  0  0
 21 29  1  0  0  0  0
 22 23  1  0  0  0  0
 22 30  1  0  0  0  0
 22 31  1  0  0  0  0
 23 24  1  0  0  0  0
 23 25  2  0  0  0  0
 32 33  1  0  0  0  0
 32 37  1  0  0  0  0
 33 34  1  0  0  0  0
 33 36  1  0  0  0  0
 33 38  1  0  0  0  0
 34 35  2  0  0  0  0
 34 42  1  0  0  0  0
 36 39  1  0  0  0  0
 36 40  1  0  0  0  0
 36 41  1  0  0  0  0
 42 43  1  0  0  0  0
 42 44  1  0  0  0  0
 43 45  1  0  0  0  0
 43 46  1  0  0  0  0
 43 47  1  0  0  0  0
M  CHG  1  24  -1
M  END
$$$$

  -OEChem-05262216243D

 47 46  0     1  0  0  0  0  0999 V2000
    0.3010   -6.1059    1.3928 C   0  0  0  0  0  0  0  0  0  0  0  0
    1.4931   -6.2050    1.6458 O   0  0  0  0  0  0  0  0  0  0  0  0
   -0.6900   -7.0681    2.0220 C   0  0  0  0  0  0  0  0  0  0  0  0
   -1.2526   -7.5865    1.2415 H   0  0  0  0  0  0  0  0  0  0  0  0
   -0.1651   -7.8094    2.6308 H   0  0  0  0  0  0  0  0  0  0  0  0
   -1.3878   -6.5183    2.6586 H   0  0  0  0  0  0  0  0  0  0  0  0
   -0.1594   -5.1176    0.5509 N   0  0  0  0  0  0  0  0  0  0  0  0
    0.6395   -3.9697    0.1034 C   0  0  2  0  0  0  0  0  0  0  0  0
   -0.1271   -2.6434    0.3029 C   0  0  0  0  0  0  0  0  0  0  0  0
   -1.2841   -2.6767    0.7010 O   0  0  0  0  0  0  0  0  0  0  0  0
    0.9812   -4.1843   -1.3737 C   0  0  0  0  0  0  0  0  0  0  0  0
   -1.1701   -4.9760    0.5324 H   0  0  0  0  0  0  0  0  0  0  0  0
    1.5663   -3.9012    0.6819 H   0  0  0  0  0  0  0  0  0  0  0  0
    0.0660   -4.2534   -1.9723 H   0  0  0  0  0  0  0  0  0  0  0  0
    1.5838   -3.3552   -1.7562 H   0  0  0  0  0  0  0  0  0  0  0  0
    1.5488   -5.1116   -1.4991 H   0  0  0  0  0  0  0  0  0  0  0  0
    0.5484   -1.4364    0.2219 N   0  0  0  0  0  0  0  0  0  0  0  0
   -0.0146   -0.1544   -0.2717 C   0  0  2  0  0  0  0  0  0  0  0  0
    0.0314    0.9257    0.8331 C   0  0  0  0  0  0  0  0  0  0  0  0
   -0.9585    1.5453    1.2017 O   0  0  0  0  0  0  0  0  0  0  0  0
   -1.3404   -0.2180   -1.0707 C   0  0  0  0  0  0  0  0  0  0  0  0
   -1.1220   -0.9362   -2.4204 C   0  0  0  0  0  0  0  0  0  0  0  0
   -2.4054   -1.0494   -3.2429 C   0  0  0  0  0  0  0  0  0  0  0  0
   -2.9803    0.0171   -3.5751 O   0  5  0  0  0  0  0  0  0  0  0  0
   -2.7539   -2.1978   -3.6149 O   0  0  0  0  0  0  0  0  0  0  0  0
    1.5311   -1.5664    0.0098 H   0  0  0  0  0  0  0  0  0  0  0  0
    0.7065    0.2124   -1.0076 H   0  0  0  0  0  0  0  0  0  0  0  0
   -1.6866    0.8009   -1.2779 H   0  0  0  0  0  0  0  0  0  0  0  0
   -2.1324   -0.7042   -0.4943 H   0  0  0  0  0  0  0  0  0  0  0  0
   -0.3853   -0.3844   -3.0108 H   0  0  0  0  0  0  0  0  0  0  0  0
   -0.7266   -1.9394   -2.2523 H   0  0  0  0  0  0  0  0  0  0  0  0
    1.2545    1.2896    1.3692 N   0  0  0  0  0  0  0  0  0  0  0  0
    1.4533    2.3539    2.3598 C   0  0  2  0  0  0  0  0  0  0  0  0
    2.8931    2.9078    2.3294 C   0  0  0  0  0  0  0  0  0  0  0  0
    3.7896    2.2838    1.7696 O   0  0  0  0  0  0  0  0  0  0  0  0
    1.1318    1.7938    3.7497 C   0  0  0  0  0  0  0  0  0  0  0  0
    2.0861    0.8289    1.0080 H   0  0  0  0  0  0  0  0  0  0  0  0
    0.7761    3.1857    2.1386 H   0  0  0  0  0  0  0  0  0  0  0  0
    1.8010    0.9615    3.9897 H   0  0  0  0  0  0  0  0  0  0  0  0
    1.2482    2.5685    4.5134 H   0  0  0  0  0  0  0  0  0  0  0  0
    0.0996    1.4305    3.7845 H   0  0  0  0  0  0  0  0  0  0  0  0
    3.1877    4.1121    2.9432 N   0  0  0  0  0  0  0  0  0  0  0  0
    4.5196    4.7030    2.9563 C   0  0  0  0  0  0  0  0  0  0  0  0
    2.4202    4.6142    3.3804 H   0  0  0  0  0  0  0  0  0  0  0  0
    5.2291    4.0363    3.4575 H   0  0  0  0  0  0  0  0  0  0  0  0
    4.8675    4.8858    1.9343 H   0  0  0  0  0  0  0  0  0  0  0  0
    4.5042    5.6570    3.4920 H   0  0  0  0  0  0  0  0  0  0  0  0
  1  2  2  0  0  0  0
  1  3  1  0  0  0  0
  1  7  1  0  0  0  0
  3  4  1  0  0  0  0
  3  5  1  0  0  0  0
  3  6  1  0  0  0  0
  7  8  1  0  0  0  0
  7 12  1  0  0  0  0
  8  9  1  0  0  0  0
  8 11  1  0  0  0  0
  8 13  1  0  0  0  0
  9 10  2  0  0  0  0
  9 17  1  0  0  0  0
 11 14  1  0  0  0  0
 11 15  1  0  0  0  0
 11 16  1  0  0  0  0
 17 18  1  0  0  0  0
 17 26  1  0  0  0  0
 18 19  1  0  0  0  0
 18 21  1  0  0  0  0
 18 27  1  0  0  0  0
 19 20  2  0  0  0  0
 19 32  1  0  0  0  0
 21 22  1  0  0  0  0
 21 28  1  0  0  0  0
 21 29  1  0  0  0  0
 22 23  1  0  0  0  0
 22 30  1  0  0  0  0
 22 31  1  0  0  0  0
 23 24  1  0  0  0  0
 23 25  2  0  0  0  0
 32 33  1  0  0  0  0
 32 37  1  0  0  0  0
 33 34  1  0  0  0  0
 33 36  1  0  0  0  0
 33 38  1  0  0  0  0
 34 35  2  0  0  0  0
 34 42  1  0  0  0  0
 36 39  1  0  0  0  0
 36 40  1  0  0  0  0
 36 41  1  0  0  0  0
 42 43  1  0  0  0  0
 42 44  1  0  0  0  0
 43 45  1  0  0  0  0
 43 46  1  0  0  0  0
 43 47  1  0  0  0  0
M  CHG  1  24  -1
M  END
$$$$

  -OEChem-05262216243D

 47 46  0     1  0  0  0  0  0999 V2000
    0.3021   -6.1051    1.4118 C   0  0  0  0  0  0  0  0  0  0  0  0
    1.4949   -6.2162    1.6568 O   0  0  0  0  0  0  0  0  0  0  0  0
   -0.6904   -7.0834    2.0126 C   0  0  0  0  0  0  0  0  0  0  0  0
   -1.2745   -7.5564    1.2194 H   0  0  0  0  0  0  0  0  0  0  0  0
   -0.1648   -7.8604    2.5742 H   0  0  0  0  0  0  0  0  0  0  0  0
   -1.3690   -6.5559    2.6877 H   0  0  0  0  0  0  0  0  0  0  0  0
   -0.1562   -5.0895    0.6023 N   0  0  0  0  0  0  0  0  0  0  0  0
    0.6504   -3.9432    0.1677 C   0  0  2  0  0  0  0  0  0  0  0  0
   -0.1305   -2.6200    0.3241 C   0  0  0  0  0  0  0  0  0  0  0  0
   -1.3066   -2.6584    0.6607 O   0  0  0  0  0  0  0  0  0  0  0  0
    1.0411   -4.1714   -1.2948 C   0  0  0  0  0  0  0  0  0  0  0  0
   -1.1667   -4.9454    0.5776 H   0  0  0  0  0  0  0  0  0  0  0  0
    1.5564   -3.8633    0.7769 H   0  0  0  0  0  0  0  0  0  0  0  0
    0.1458   -4.2447   -1.9221 H   0  0  0  0  0  0  0  0  0  0  0  0
    1.6570   -3.3463   -1.6645 H   0  0  0  0  0  0  0  0  0  0  0  0
    1.6114   -5.1004   -1.3924 H   0  0  0  0  0  0  0  0  0  0  0  0
    0.5453   -1.4132    0.2437 N   0  0  0  0  0  0  0  0  0  0  0  0
   -0.0002   -0.1317   -0.2667 C   0  0  2  0  0  0  0  0  0  0  0  0
    0.0340    0.9554    0.8305 C   0  0  0  0  0  0  0  0  0  0  0  0
   -0.9755    1.3671    1.3878 O   0  0  0  0  0  0  0  0  0  0  0  0
   -1.3210   -0.1798   -1.0721 C   0  0  0  0  0  0  0  0  0  0  0  0
   -1.1109   -0.9117   -2.4157 C   0  0  0  0  0  0  0  0  0  0  0  0
   -2.3941   -1.0072   -3.2418 C   0  0  0  0  0  0  0  0  0  0  0  0
   -2.9637    0.0679   -3.5562 O   0  5  0  0  0  0  0  0  0  0  0  0
   -2.7437   -2.1466   -3.6397 O   0  0  0  0  0  0  0  0  0  0  0  0
    1.5385   -1.5384    0.0847 H   0  0  0  0  0  0  0  0  0  0  0  0
    0.7302    0.2189   -1.0012 H   0  0  0  0  0  0  0  0  0  0  0  0
   -1.6492    0.8435   -1.2856 H   0  0  0  0  0  0  0  0  0  0  0  0
   -2.1227   -0.6493   -0.4955 H   0  0  0  0  0  0  0  0  0  0  0  0
   -0.3611   -0.3798   -3.0078 H   0  0  0  0  0  0  0  0  0  0  0  0
   -0.7370   -1.9218   -2.2367 H   0  0  0  0  0  0  0  0  0  0  0  0
    1.2420    1.5425    1.1658 N   0  0  0  0  0  0  0  0  0  0  0  0
    1.3984    2.6401    2.1275 C   0  0  2  0  0  0  0  0  0  0  0  0
    2.6678    3.4706    1.8482 C   0  0  0  0  0  0  0  0  0  0  0  0
    3.5697    3.0131    1.1528 O   0  0  0  0  0  0  0  0  0  0  0  0
    1.4551    2.0480    3.5401 C   0  0  0  0  0  0  0  0  0  0  0  0
    2.0651    1.2745    0.6309 H   0  0  0  0  0  0  0  0  0  0  0  0
    0.5395    3.3155    2.0516 H   0  0  0  0  0  0  0  0  0  0  0  0
    2.3089    1.3697    3.6356 H   0  0  0  0  0  0  0  0  0  0  0  0
    1.5541    2.8421    4.2859 H   0  0  0  0  0  0  0  0  0  0  0  0
    0.5398    1.4871    3.7553 H   0  0  0  0  0  0  0  0  0  0  0  0
    2.8055    4.7345    2.3931 N   0  0  0  0  0  0  0  0  0  0  0  0
    3.9680    5.5837    2.1681 C   0  0  0  0  0  0  0  0  0  0  0  0
    2.0256    5.0978    2.9336 H   0  0  0  0  0  0  0  0  0  0  0  0
    4.8831    5.0747    2.4885 H   0  0  0  0  0  0  0  0  0  0  0  0
    4.0581    5.8367    1.1066 H   0  0  0  0  0  0  0  0  0  0  0  0
    3.8728    6.5119    2.7395 H   0  0  0  0  0  0  0  0  0  0  0  0
  1  2  2  0  0  0  0
  1  3  1  0  0  0  0
  1  7  1  0  0  0  0
  3  4  1  0  0  0  0
  3  5  1  0  0  0  0
  3  6  1  0  0  0  0
  7  8  1  0  0  0  0
  7 12  1  0  0  0  0
  8  9  1  0  0  0  0
  8 11  1  0  0  0  0
  8 13  1  0  0  0  0
  9 10  2  0  0  0  0
  9 17  1  0  0  0  0
 11 14  1  0  0  0  0
 11 15  1  0  0  0  0
 11 16  1  0  0  0  0
 17 18  1  0  0  0  0
 17 26  1  0  0  0  0
 18 19  1  0  0  0  0
 18 21  1  0  0  0  0
 18 27  1  0  0  0  0
 19 20  2  0  0  0  0
 19 32  1  0  0  0  0
 21 22  1  0  0  0  0
 21 28  1  0  0  0  0
 21 29  1  0  0  0  0
 22 23  1  0  0  0  0
 22 30  1  0  0  0  0
 22 31  1  0  0  0  0
 23 24  1  0  0  0  0
 23 25  2  0  0  0  0
 32 33  1  0  0  0  0
 32 37  1  0  0  0  0
 33 34  1  0  0  0  0
 33 36  1  0  0  0  0
 33 38  1  0  0  0  0
 34 35  2  0  0  0  0
 34 42  1  0  0  0  0
 36 39  1  0  0  0  0
 36 40  1  0  0  0  0
 36 41  1  0  0  0  0
 42 43  1  0  0  0  0
 42 44  1  0  0  0  0
 43 45  1  0  0  0  0
 43 46  1  0  0  0  0
 43 47  1  0  0  0  0
M  CHG  1  24  -1
M  END
$$$$

  -OEChem-05262216243D

 47 46  0     1  0  0  0  0  0999 V2000
    0.2853   -6.1222    1.4030 C   0  0  0  0  0  0  0  0  0  0  0  0
    1.4735   -6.2491    1.6624 O   0  0  0  0  0  0  0  0  0  0  0  0
   -0.7227   -7.1103    1.9605 C   0  0  0  0  0  0  0  0  0  0  0  0
   -1.2823   -7.5728    1.1437 H   0  0  0  0  0  0  0  0  0  0  0  0
   -0.2121   -7.8938    2.5273 H   0  0  0  0  0  0  0  0  0  0  0  0
   -1.4217   -6.5931    2.6224 H   0  0  0  0  0  0  0  0  0  0  0  0
   -0.1523   -5.0782    0.6187 N   0  0  0  0  0  0  0  0  0  0  0  0
    0.6716   -3.9276    0.2305 C   0  0  2  0  0  0  0  0  0  0  0  0
   -0.1254   -2.6091    0.3352 C   0  0  0  0  0  0  0  0  0  0  0  0
   -1.3176   -2.6574    0.6072 O   0  0  0  0  0  0  0  0  0  0  0  0
    1.1552   -4.1517   -1.2051 C   0  0  0  0  0  0  0  0  0  0  0  0
   -1.1613   -4.9264    0.5768 H   0  0  0  0  0  0  0  0  0  0  0  0
    1.5364   -3.8419    0.8962 H   0  0  0  0  0  0  0  0  0  0  0  0
    0.3017   -4.2242   -1.8880 H   0  0  0  0  0  0  0  0  0  0  0  0
    1.7916   -3.3246   -1.5331 H   0  0  0  0  0  0  0  0  0  0  0  0
    1.7326   -5.0791   -1.2690 H   0  0  0  0  0  0  0  0  0  0  0  0
    0.5484   -1.4007    0.2558 N   0  0  0  0  0  0  0  0  0  0  0  0
    0.0144   -0.1129   -0.2490 C   0  0  2  0  0  0  0  0  0  0  0  0
    0.0534    0.9741    0.8477 C   0  0  0  0  0  0  0  0  0  0  0  0
   -0.8847    1.1718    1.6090 O   0  0  0  0  0  0  0  0  0  0  0  0
   -1.3118   -0.1358   -1.0438 C   0  0  0  0  0  0  0  0  0  0  0  0
   -1.1288   -0.8651   -2.3931 C   0  0  0  0  0  0  0  0  0  0  0  0
   -2.4220   -0.9333   -3.2066 C   0  0  0  0  0  0  0  0  0  0  0  0
   -3.0232    0.1470   -3.4326 O   0  5  0  0  0  0  0  0  0  0  0  0
   -2.7462   -2.0475   -3.6881 O   0  0  0  0  0  0  0  0  0  0  0  0
    1.5487   -1.5181    0.1420 H   0  0  0  0  0  0  0  0  0  0  0  0
    0.7454    0.2257   -0.9881 H   0  0  0  0  0  0  0  0  0  0  0  0
   -1.6241    0.8941   -1.2475 H   0  0  0  0  0  0  0  0  0  0  0  0
   -2.1157   -0.5946   -0.4612 H   0  0  0  0  0  0  0  0  0  0  0  0
   -0.3772   -0.3420   -2.9906 H   0  0  0  0  0  0  0  0  0  0  0  0
   -0.7702   -1.8828   -2.2225 H   0  0  0  0  0  0  0  0  0  0  0  0
    1.1747    1.7755    0.9806 N   0  0  0  0  0  0  0  0  0  0  0  0
    1.2822    2.9006    1.9180 C   0  0  2  0  0  0  0  0  0  0  0  0
    2.2818    3.9664    1.4252 C   0  0  0  0  0  0  0  0  0  0  0  0
    3.1540    3.6726    0.6135 O   0  0  0  0  0  0  0  0  0  0  0  0
    1.7155    2.3638    3.2862 C   0  0  0  0  0  0  0  0  0  0  0  0
    1.9090    1.6840    0.2814 H   0  0  0  0  0  0  0  0  0  0  0  0
    0.3057    3.3874    2.0139 H   0  0  0  0  0  0  0  0  0  0  0  0
    2.6922    1.8751    3.2136 H   0  0  0  0  0  0  0  0  0  0  0  0
    1.7854    3.1785    4.0129 H   0  0  0  0  0  0  0  0  0  0  0  0
    0.9877    1.6348    3.6563 H   0  0  0  0  0  0  0  0  0  0  0  0
    2.2069    5.2620    1.9043 N   0  0  0  0  0  0  0  0  0  0  0  0
    3.0874    6.3338    1.4579 C   0  0  0  0  0  0  0  0  0  0  0  0
    1.4382    5.4837    2.5309 H   0  0  0  0  0  0  0  0  0  0  0  0
    4.1339    6.0735    1.6476 H   0  0  0  0  0  0  0  0  0  0  0  0
    2.9572    6.5154    0.3859 H   0  0  0  0  0  0  0  0  0  0  0  0
    2.8588    7.2582    1.9967 H   0  0  0  0  0  0  0  0  0  0  0  0
  1  2  2  0  0  0  0
  1  3  1  0  0  0  0
  1  7  1  0  0  0  0
  3  4  1  0  0  0  0
  3  5  1  0  0  0  0
  3  6  1  0  0  0  0
  7  8  1  0  0  0  0
  7 12  1  0  0  0  0
  8  9  1  0  0  0  0
  8 11  1  0  0  0  0
  8 13  1  0  0  0  0
  9 10  2  0  0  0  0
  9 17  1  0  0  0  0
 11 14  1  0  0  0  0
 11 15  1  0  0  0  0
 11 16  1  0  0  0  0
 17 18  1  0  0  0  0
 17 26  1  0  0  0  0
 18 19  1  0  0  0  0
 18 21  1  0  0  0  0
 18 27  1  0  0  0  0
 19 20  2  0  0  0  0
 19 32  1  0  0  0  0
 21 22  1  0  0  0  0
 21 28  1  0  0  0  0
 21 29  1  0  0  0  0
 22 23  1  0  0  0  0
 22 30  1  0  0  0  0
 22 31  1  0  0  0  0
 23 24  1  0  0  0  0
 23 25  2  0  0  0  0
 32 33  1  0  0  0  0
 32 37  1  0  0  0  0
 33 34  1  0  0  0  0
 33 36  1  0  0  0  0
 33 38  1  0  0  0  0
 34 35  2  0  0  0  0
 34 42  1  0  0  0  0
 36 39  1  0  0  0  0
 36 40  1  0  0  0  0
 36 41  1  0  0  0  0
 42 43  1  0  0  0  0
 42 44  1  0  0  0  0
 43 45  1  0  0  0  0
 43 46  1  0  0  0  0
 43 47  1  0  0  0  0
M  CHG  1  24  -1
M  END
$$$$

  -OEChem-05262216243D

 47 46  0     1  0  0  0  0  0999 V2000
    0.2645   -6.1356    1.4080 C   0  0  0  0  0  0  0  0  0  0  0  0
    1.4460   -6.2798    1.6883 O   0  0  0  0  0  0  0  0  0  0  0  0
   -0.7604   -7.1427    1.8970 C   0  0  0  0  0  0  0  0  0  0  0  0
   -1.3021   -7.5651    1.0470 H   0  0  0  0  0  0  0  0  0  0  0  0
   -0.2663   -7.9536    2.4392 H   0  0  0  0  0  0  0  0  0  0  0  0
   -1.4729   -6.6533    2.5660 H   0  0  0  0  0  0  0  0  0  0  0  0
   -0.1492   -5.0549    0.6615 N   0  0  0  0  0  0  0  0  0  0  0  0
    0.6931   -3.9025    0.3199 C   0  0  2  0  0  0  0  0  0  0  0  0
   -0.1244   -2.5921    0.3289 C   0  0  0  0  0  0  0  0  0  0  0  0
   -1.3341   -2.6560    0.5019 O   0  0  0  0  0  0  0  0  0  0  0  0
    1.2993   -4.1461   -1.0655 C   0  0  0  0  0  0  0  0  0  0  0  0
   -1.1560   -4.9006    0.5848 H   0  0  0  0  0  0  0  0  0  0  0  0
    1.4956   -3.7959    1.0568 H   0  0  0  0  0  0  0  0  0  0  0  0
    0.5079   -4.2309   -1.8181 H   0  0  0  0  0  0  0  0  0  0  0  0
    1.9599   -3.3217   -1.3491 H   0  0  0  0  0  0  0  0  0  0  0  0
    1.8824   -5.0722   -1.0664 H   0  0  0  0  0  0  0  0  0  0  0  0
    0.5409   -1.3788    0.2455 N   0  0  0  0  0  0  0  0  0  0  0  0
    0.0103   -0.0843   -0.2451 C   0  0  2  0  0  0  0  0  0  0  0  0
    0.0612    1.0032    0.8497 C   0  0  0  0  0  0  0  0  0  0  0  0
   -0.6828    0.9838    1.8219 O   0  0  0  0  0  0  0  0  0  0  0  0
   -1.3247   -0.0754   -1.0227 C   0  0  0  0  0  0  0  0  0  0  0  0
   -1.1741   -0.7919   -2.3827 C   0  0  0  0  0  0  0  0  0  0  0  0
   -2.4795   -0.8273   -3.1799 C   0  0  0  0  0  0  0  0  0  0  0  0
   -3.1139    0.2509   -3.3052 O   0  5  0  0  0  0  0  0  0  0  0  0
   -2.7787   -1.9034   -3.7546 O   0  0  0  0  0  0  0  0  0  0  0  0
    1.5490   -1.4751    0.2067 H   0  0  0  0  0  0  0  0  0  0  0  0
    0.7394    0.2459   -0.9899 H   0  0  0  0  0  0  0  0  0  0  0  0
   -1.6230    0.9619   -1.2104 H   0  0  0  0  0  0  0  0  0  0  0  0
   -2.1275   -0.5277   -0.4333 H   0  0  0  0  0  0  0  0  0  0  0  0
   -0.4202   -0.2768   -2.9841 H   0  0  0  0  0  0  0  0  0  0  0  0
   -0.8332   -1.8183   -2.2259 H   0  0  0  0  0  0  0  0  0  0  0  0
    1.0228    1.9971    0.7889 N   0  0  0  0  0  0  0  0  0  0  0  0
    1.1023    3.1257    1.7246 C   0  0  2  0  0  0  0  0  0  0  0  0
    1.7298    4.3699    1.0643 C   0  0  0  0  0  0  0  0  0  0  0  0
    2.4753    4.2483    0.0975 O   0  0  0  0  0  0  0  0  0  0  0  0
    1.9280    2.6984    2.9421 C   0  0  0  0  0  0  0  0  0  0  0  0
    1.5667    2.0728   -0.0692 H   0  0  0  0  0  0  0  0  0  0  0  0
    0.0933    3.4002    2.0508 H   0  0  0  0  0  0  0  0  0  0  0  0
    2.9416    2.4199    2.6374 H   0  0  0  0  0  0  0  0  0  0  0  0
    1.9926    3.5153    3.6669 H   0  0  0  0  0  0  0  0  0  0  0  0
    1.4631    1.8376    3.4331 H   0  0  0  0  0  0  0  0  0  0  0  0
    1.4593    5.6329    1.5594 N   0  0  0  0  0  0  0  0  0  0  0  0
    1.9479    6.8556    0.9350 C   0  0  0  0  0  0  0  0  0  0  0  0
    0.7781    5.7025    2.3101 H   0  0  0  0  0  0  0  0  0  0  0  0
    3.0429    6.8698    0.9249 H   0  0  0  0  0  0  0  0  0  0  0  0
    1.5844    6.9303   -0.0952 H   0  0  0  0  0  0  0  0  0  0  0  0
    1.5958    7.7303    1.4901 H   0  0  0  0  0  0  0  0  0  0  0  0
  1  2  2  0  0  0  0
  1  3  1  0  0  0  0
  1  7  1  0  0  0  0
  3  4  1  0  0  0  0
  3  5  1  0  0  0  0
  3  6  1  0  0  0  0
  7  8  1  0  0  0  0
  7 12  1  0  0  0  0
  8  9  1  0  0  0  0
  8 11  1  0  0  0  0
  8 13  1  0  0  0  0
  9 10  2  0  0  0  0
  9 17  1  0  0  0  0
 11 14  1  0  0  0  0
 11 15  1  0  0  0  0
 11 16  1  0  0  0  0
 17 18  1  0  0  0  0
 17 26  1  0  0  0  0
 18 19  1  0  0  0  0
 18 21  1  0  0  0  0
 18 27  1  0  0  0  0
 19 20  2  0  0  0  0
 19 32  1  0  0  0  0
 21 22  1  0  0  0  0
 21 28  1  0  0  0  0
 21 29  1  0  0  0  0
 22 23  1  0  0  0  0
 22 30  1  0  0  0  0
 22 31  1  0  0  0  0
 23 24  1  0  0  0  0
 23 25  2  0  0  0  0
 32 33  1  0  0  0  0
 32 37  1  0  0  0  0
 33 34  1  0  0  0  0
 33 36  1  0  0  0  0
 33 38  1  0  0  0  0
 34 35  2  0  0  0  0
 34 42  1  0  0  0  0
 36 39  1  0  0  0  0
 36 40  1  0  0  0  0
 36 41  1  0  0  0  0
 42 43  1  0  0  0  0
 42 44  1  0  0  0  0
 43 45  1  0  0  0  0
 43 46  1  0  0  0  0
 43 47  1  0  0  0  0
M  CHG  1  24  -1
M  END
$$$$

  -OEChem-05262216243D

 47 46  0     1  0  0  0  0  0999 V2000
    0.2730   -6.0571    1.5183 C   0  0  0  0  0  0  0  0  0  0  0  0
    1.4316   -6.1571    1.8960 O   0  0  0  0  0  0  0  0  0  0  0  0
   -0.7638   -7.0707    1.9665 C   0  0  0  0  0  0  0  0  0  0  0  0
   -1.2310   -7.5349    1.0946 H   0  0  0  0  0  0  0  0  0  0  0  0
   -0.2954   -7.8502    2.5736 H   0  0  0  0  0  0  0  0  0  0  0  0
   -1.5353   -6.5752    2.5613 H   0  0  0  0  0  0  0  0  0  0  0  0
   -0.1044   -5.0216    0.6930 N   0  0  0  0  0  0  0  0  0  0  0  0
    0.7331   -3.8585    0.3783 C   0  0  2  0  0  0  0  0  0  0  0  0
   -0.1231   -2.5826    0.2234 C   0  0  0  0  0  0  0  0  0  0  0  0
   -1.3410   -2.6876    0.2786 O   0  0  0  0  0  0  0  0  0  0  0  0
    1.4999   -4.1519   -0.9145 C   0  0  0  0  0  0  0  0  0  0  0  0
   -1.1054   -4.8957    0.5322 H   0  0  0  0  0  0  0  0  0  0  0  0
    1.4431   -3.6812    1.1928 H   0  0  0  0  0  0  0  0  0  0  0  0
    0.8022   -4.3103   -1.7437 H   0  0  0  0  0  0  0  0  0  0  0  0
    2.1591   -3.3173   -1.1699 H   0  0  0  0  0  0  0  0  0  0  0  0
    2.1115   -5.0518   -0.7960 H   0  0  0  0  0  0  0  0  0  0  0  0
    0.5129   -1.3549    0.1287 N   0  0  0  0  0  0  0  0  0  0  0  0
   -0.0343   -0.0599   -0.3406 C   0  0  2  0  0  0  0  0  0  0  0  0
    0.0320    1.0186    0.7616 C   0  0  0  0  0  0  0  0  0  0  0  0
   -0.4228    0.8231    1.8824 O   0  0  0  0  0  0  0  0  0  0  0  0
   -1.3899   -0.0377   -1.0786 C   0  0  0  0  0  0  0  0  0  0  0  0
   -1.2914   -0.7416   -2.4498 C   0  0  0  0  0  0  0  0  0  0  0  0
   -2.6256   -0.7576   -3.2002 C   0  0  0  0  0  0  0  0  0  0  0  0
   -3.2836    0.3135   -3.2394 O   0  5  0  0  0  0  0  0  0  0  0  0
   -2.9295   -1.8054   -3.8230 O   0  0  0  0  0  0  0  0  0  0  0  0
    1.5225   -1.4081    0.1958 H   0  0  0  0  0  0  0  0  0  0  0  0
    0.6788    0.2751   -1.0988 H   0  0  0  0  0  0  0  0  0  0  0  0
   -1.6891    1.0026   -1.2464 H   0  0  0  0  0  0  0  0  0  0  0  0
   -2.1747   -0.4927   -0.4671 H   0  0  0  0  0  0  0  0  0  0  0  0
   -0.5558   -0.2239   -3.0715 H   0  0  0  0  0  0  0  0  0  0  0  0
   -0.9514   -1.7717   -2.3170 H   0  0  0  0  0  0  0  0  0  0  0  0
    0.7556    2.1793    0.5505 N   0  0  0  0  0  0  0  0  0  0  0  0
    0.8432    3.2805    1.5180 C   0  0  2  0  0  0  0  0  0  0  0  0
    1.0500    4.6414    0.8237 C   0  0  0  0  0  0  0  0  0  0  0  0
    1.5934    4.7007   -0.2743 O   0  0  0  0  0  0  0  0  0  0  0  0
    2.0003    3.0003    2.4821 C   0  0  0  0  0  0  0  0  0  0  0  0
    1.0543    2.3786   -0.4036 H   0  0  0  0  0  0  0  0  0  0  0  0
   -0.0922    3.3403    2.0847 H   0  0  0  0  0  0  0  0  0  0  0  0
    2.9465    2.9357    1.9355 H   0  0  0  0  0  0  0  0  0  0  0  0
    2.0800    3.7989    3.2255 H   0  0  0  0  0  0  0  0  0  0  0  0
    1.8359    2.0547    3.0083 H   0  0  0  0  0  0  0  0  0  0  0  0
    0.6356    5.8072    1.4420 N   0  0  0  0  0  0  0  0  0  0  0  0
    0.7272    7.1189    0.8139 C   0  0  0  0  0  0  0  0  0  0  0  0
    0.1272    5.7152    2.3168 H   0  0  0  0  0  0  0  0  0  0  0  0
    1.7694    7.3585    0.5777 H   0  0  0  0  0  0  0  0  0  0  0  0
    0.1411    7.1424   -0.1110 H   0  0  0  0  0  0  0  0  0  0  0  0
    0.3404    7.8884    1.4889 H   0  0  0  0  0  0  0  0  0  0  0  0
  1  2  2  0  0  0  0
  1  3  1  0  0  0  0
  1  7  1  0  0  0  0
  3  4  1  0  0  0  0
  3  5  1  0  0  0  0
  3  6  1  0  0  0  0
  7  8  1  0  0  0  0
  7 12  1  0  0  0  0
  8  9  1  0  0  0  0
  8 11  1  0  0  0  0
  8 13  1  0  0  0  0
  9 10  2  0  0  0  0
  9 17  1  0  0  0  0
 11 14  1  0  0  0  0
 11 15  1  0  0  0  0
 11 16  1  0  0  0  0
 17 18  1  0  0  0  0
 17 26  1  0  0  0  0
 18 19  1  0  0  0  0
 18 21  1  0  0  0  0
 18 27  1  0  0  0  0
 19 20  2  0  0  0  0
 19 32  1  0  0  0  0
 21 22  1  0  0  0  0
 21 28  1  0  0  0  0
 21 29  1  0  0  0  0
 22 23  1  0  0  0  0
 22 30  1  0  0  0  0
 22 31  1  0  0  0  0
 23 24  1  0  0  0  0
 23 25  2  0  0  0  0
 32 33  1  0  0  0  0
 32 37  1  0  0  0  0
 33 34  1  0  0  0  0
 33 36  1  0  0  0  0
 33 38  1  0  0  0  0
 34 35  2  0  0  0  0
 34 42  1  0  0  0  0
 36 39  1  0  0  0  0
 36 40  1  0  0  0  0
 36 41  1  0  0  0  0
 42 43  1  0  0  0  0
 42 44  1  0  0  0  0
 43 45  1  0  0  0  0
 43 46  1  0  0  0  0
 43 47  1  0  0  0  0
M  CHG  1  24  -1
M  END
$$$$

  -OEChem-05262216243D

 47 46  0     1  0  0  0  0  0999 V2000
    0.2846   -5.9973    1.6036 C   0  0  0  0  0  0  0  0  0  0  0  0
    1.4245   -6.0538    2.0422 O   0  0  0  0  0  0  0  0  0  0  0  0
   -0.7424   -7.0335    2.0217 C   0  0  0  0  0  0  0  0  0  0  0  0
   -1.1739   -7.5084    1.1371 H   0  0  0  0  0  0  0  0  0  0  0  0
   -0.2734   -7.8029    2.6411 H   0  0  0  0  0  0  0  0  0  0  0  0
   -1.5411   -6.5553    2.5943 H   0  0  0  0  0  0  0  0  0  0  0  0
   -0.0795   -4.9950    0.7324 N   0  0  0  0  0  0  0  0  0  0  0  0
    0.7442   -3.8225    0.4156 C   0  0  2  0  0  0  0  0  0  0  0  0
   -0.1329   -2.5770    0.1609 C   0  0  0  0  0  0  0  0  0  0  0  0
   -1.3488   -2.7136    0.1421 O   0  0  0  0  0  0  0  0  0  0  0  0
    1.5911   -4.1462   -0.8194 C   0  0  0  0  0  0  0  0  0  0  0  0
   -1.0735   -4.9034    0.5156 H   0  0  0  0  0  0  0  0  0  0  0  0
    1.4021   -3.5926    1.2601 H   0  0  0  0  0  0  0  0  0  0  0  0
    0.9455   -4.3605   -1.6777 H   0  0  0  0  0  0  0  0  0  0  0  0
    2.2404   -3.3037   -1.0750 H   0  0  0  0  0  0  0  0  0  0  0  0
    2.2206   -5.0211   -0.6288 H   0  0  0  0  0  0  0  0  0  0  0  0
    0.4782   -1.3372    0.0649 N   0  0  0  0  0  0  0  0  0  0  0  0
   -0.0812   -0.0454   -0.3988 C   0  0  2  0  0  0  0  0  0  0  0  0
   -0.0260    1.0342    0.7036 C   0  0  0  0  0  0  0  0  0  0  0  0
   -0.1648    0.7487    1.8881 O   0  0  0  0  0  0  0  0  0  0  0  0
   -1.4367   -0.0291   -1.1362 C   0  0  0  0  0  0  0  0  0  0  0  0
   -1.3394   -0.7236   -2.5122 C   0  0  0  0  0  0  0  0  0  0  0  0
   -2.6763   -0.7428   -3.2589 C   0  0  0  0  0  0  0  0  0  0  0  0
   -3.3853    0.2953   -3.2139 O   0  5  0  0  0  0  0  0  0  0  0  0
   -2.9336   -1.7524   -3.9607 O   0  0  0  0  0  0  0  0  0  0  0  0
    1.4739   -1.3466    0.2535 H   0  0  0  0  0  0  0  0  0  0  0  0
    0.6324    0.2978   -1.1532 H   0  0  0  0  0  0  0  0  0  0  0  0
   -1.7451    1.0095   -1.2973 H   0  0  0  0  0  0  0  0  0  0  0  0
   -2.2160   -0.4956   -0.5261 H   0  0  0  0  0  0  0  0  0  0  0  0
   -0.6095   -0.1966   -3.1327 H   0  0  0  0  0  0  0  0  0  0  0  0
   -0.9928   -1.7527   -2.3874 H   0  0  0  0  0  0  0  0  0  0  0  0
    0.4077    2.3117    0.3954 N   0  0  0  0  0  0  0  0  0  0  0  0
    0.5045    3.4053    1.3710 C   0  0  2  0  0  0  0  0  0  0  0  0
    0.2869    4.7847    0.7178 C   0  0  0  0  0  0  0  0  0  0  0  0
    0.5758    4.9649   -0.4600 O   0  0  0  0  0  0  0  0  0  0  0  0
    1.8837    3.3502    2.0353 C   0  0  0  0  0  0  0  0  0  0  0  0
    0.4451    2.5670   -0.5915 H   0  0  0  0  0  0  0  0  0  0  0  0
   -0.2698    3.2794    2.1353 H   0  0  0  0  0  0  0  0  0  0  0  0
    2.6729    3.4746    1.2870 H   0  0  0  0  0  0  0  0  0  0  0  0
    1.9815    4.1443    2.7816 H   0  0  0  0  0  0  0  0  0  0  0  0
    2.0257    2.3873    2.5359 H   0  0  0  0  0  0  0  0  0  0  0  0
   -0.2147    5.8356    1.4646 N   0  0  0  0  0  0  0  0  0  0  0  0
   -0.5124    7.1448    0.8983 C   0  0  0  0  0  0  0  0  0  0  0  0
   -0.5154    5.6303    2.4129 H   0  0  0  0  0  0  0  0  0  0  0  0
    0.3841    7.5791    0.4435 H   0  0  0  0  0  0  0  0  0  0  0  0
   -1.2918    7.0623    0.1334 H   0  0  0  0  0  0  0  0  0  0  0  0
   -0.8643    7.8234    1.6811 H   0  0  0  0  0  0  0  0  0  0  0  0
  1  2  2  0  0  0  0
  1  3  1  0  0  0  0
  1  7  1  0  0  0  0
  3  4  1  0  0  0  0
  3  5  1  0  0  0  0
  3  6  1  0  0  0  0
  7  8  1  0  0  0  0
  7 12  1  0  0  0  0
  8  9  1  0  0  0  0
  8 11  1  0  0  0  0
  8 13  1  0  0  0  0
  9 10  2  0  0  0  0
  9 17  1  0  0  0  0
 11 14  1  0  0  0  0
 11 15  1  0  0  0  0
 11 16  1  0  0  0  0
 17 18  1  0  0  0  0
 17 26  1  0  0  0  0
 18 19  1  0  0  0  0
 18 21  1  0  0  0  0
 18 27  1  0  0  0  0
 19 20  2  0  0  0  0
 19 32  1  0  0  0  0
 21 22  1  0  0  0  0
 21 28  1  0  0  0  0
 21 29  1  0  0  0  0
 22 23  1  0  0  0  0
 22 30  1  0  0  0  0
 22 31  1  0  0  0  0
 23 24  1  0  0  0  0
 23 25  2  0  0  0  0
 32 33  1  0  0  0  0
 32 37  1  0  0  0  0
 33 34  1  0  0  0  0
 33 36  1  0  0  0  0
 33 38  1  0  0  0  0
 34 35  2  0  0  0  0
 34 42  1  0  0  0  0
 36 39  1  0  0  0  0
 36 40  1  0  0  0  0
 36 41  1  0  0  0  0
 42 43  1  0  0  0  0
 42 44  1  0  0  0  0
 43 45  1  0  0  0  0
 43 46  1  0  0  0  0
 43 47  1  0  0  0  0
M  CHG  1  24  -1
M  END
$$$$

  -OEChem-05262216243D

 47 46  0     1  0  0  0  0  0999 V2000
    0.3112   -5.9428    1.6610 C   0  0  0  0  0  0  0  0  0  0  0  0
    1.4411   -5.9629    2.1275 O   0  0  0  0  0  0  0  0  0  0  0  0
   -0.7019   -6.9919    2.0800 C   0  0  0  0  0  0  0  0  0  0  0  0
   -0.9983   -7.5880    1.2133 H   0  0  0  0  0  0  0  0  0  0  0  0
   -0.2706   -7.6547    2.8353 H   0  0  0  0  0  0  0  0  0  0  0  0
   -1.5878   -6.5083    2.4998 H   0  0  0  0  0  0  0  0  0  0  0  0
   -0.0544   -4.9698    0.7579 N   0  0  0  0  0  0  0  0  0  0  0  0
    0.7542   -3.7912    0.4266 C   0  0  2  0  0  0  0  0  0  0  0  0
   -0.1399   -2.5776    0.0873 C   0  0  0  0  0  0  0  0  0  0  0  0
   -1.3491   -2.7490    0.0073 O   0  0  0  0  0  0  0  0  0  0  0  0
    1.6574   -4.1432   -0.7598 C   0  0  0  0  0  0  0  0  0  0  0  0
   -1.0434   -4.9081    0.5101 H   0  0  0  0  0  0  0  0  0  0  0  0
    1.3720   -3.5137    1.2871 H   0  0  0  0  0  0  0  0  0  0  0  0
    1.0520   -4.4094   -1.6325 H   0  0  0  0  0  0  0  0  0  0  0  0
    2.2953   -3.2949   -1.0247 H   0  0  0  0  0  0  0  0  0  0  0  0
    2.3001   -4.9928   -0.5084 H   0  0  0  0  0  0  0  0  0  0  0  0
    0.4437   -1.3244   -0.0056 N   0  0  0  0  0  0  0  0  0  0  0  0
   -0.1340   -0.0360   -0.4572 C   0  0  2  0  0  0  0  0  0  0  0  0
   -0.0869    1.0340    0.6557 C   0  0  0  0  0  0  0  0  0  0  0  0
    0.0775    0.7239    1.8319 O   0  0  0  0  0  0  0  0  0  0  0  0
   -1.4919   -0.0352   -1.1925 C   0  0  0  0  0  0  0  0  0  0  0  0
   -1.3882   -0.7168   -2.5747 C   0  0  0  0  0  0  0  0  0  0  0  0
   -2.7237   -0.7544   -3.3245 C   0  0  0  0  0  0  0  0  0  0  0  0
   -3.5187    0.2075   -3.1652 O   0  5  0  0  0  0  0  0  0  0  0  0
   -2.8973   -1.6947   -4.1393 O   0  0  0  0  0  0  0  0  0  0  0  0
    1.4120   -1.2907    0.2932 H   0  0  0  0  0  0  0  0  0  0  0  0
    0.5736    0.3270   -1.2078 H   0  0  0  0  0  0  0  0  0  0  0  0
   -1.8195    0.9984   -1.3456 H   0  0  0  0  0  0  0  0  0  0  0  0
   -2.2614   -0.5207   -0.5847 H   0  0  0  0  0  0  0  0  0  0  0  0
   -0.6669   -0.1735   -3.1909 H   0  0  0  0  0  0  0  0  0  0  0  0
   -1.0255   -1.7410   -2.4591 H   0  0  0  0  0  0  0  0  0  0  0  0
    0.0239    2.3721    0.3224 N   0  0  0  0  0  0  0  0  0  0  0  0
    0.1076    3.4622    1.3029 C   0  0  2  0  0  0  0  0  0  0  0  0
   -0.4739    4.7795    0.7528 C   0  0  0  0  0  0  0  0  0  0  0  0
   -0.4162    5.0284   -0.4457 O   0  0  0  0  0  0  0  0  0  0  0  0
    1.5748    3.6620    1.6951 C   0  0  0  0  0  0  0  0  0  0  0  0
   -0.1707    2.6305   -0.6457 H   0  0  0  0  0  0  0  0  0  0  0  0
   -0.4700    3.1937    2.1937 H   0  0  0  0  0  0  0  0  0  0  0  0
    2.1727    3.9224    0.8158 H   0  0  0  0  0  0  0  0  0  0  0  0
    1.6675    4.4658    2.4315 H   0  0  0  0  0  0  0  0  0  0  0  0
    1.9798    2.7445    2.1332 H   0  0  0  0  0  0  0  0  0  0  0  0
   -1.0388    5.7037    1.6130 N   0  0  0  0  0  0  0  0  0  0  0  0
   -1.6728    6.9326    1.1539 C   0  0  0  0  0  0  0  0  0  0  0  0
   -1.1386    5.4332    2.5867 H   0  0  0  0  0  0  0  0  0  0  0  0
   -0.9653    7.5362    0.5756 H   0  0  0  0  0  0  0  0  0  0  0  0
   -2.5388    6.7032    0.5241 H   0  0  0  0  0  0  0  0  0  0  0  0
   -2.0125    7.5246    2.0089 H   0  0  0  0  0  0  0  0  0  0  0  0
  1  2  2  0  0  0  0
  1  3  1  0  0  0  0
  1  7  1  0  0  0  0
  3  4  1  0  0  0  0
  3  5  1  0  0  0  0
  3  6  1  0  0  0  0
  7  8  1  0  0  0  0
  7 12  1  0  0  0  0
  8  9  1  0  0  0  0
  8 11  1  0  0  0  0
  8 13  1  0  0  0  0
  9 10  2  0  0  0  0
  9 17  1  0  0  0  0
 11 14  1  0  0  0  0
 11 15  1  0  0  0  0
 11 16  1  0  0  0  0
 17 18  1  0  0  0  0
 17 26  1  0  0  0  0
 18 19  1  0  0  0  0
 18 21  1  0  0  0  0
 18 27  1  0  0  0  0
 19 20  2  0  0  0  0
 19 32  1  0  0  0  0
 21 22  1  0  0  0  0
 21 28  1  0  0  0  0
 21 29  1  0  0  0  0
 22 23  1  0  0  0  0
 22 30  1  0  0  0  0
 22 31  1  0  0  0  0
 23 24  1  0  0  0  0
 23 25  2  0  0  0  0
 32 33  1  0  0  0  0
 32 37  1  0  0  0  0
 33 34  1  0  0  0  0
 33 36  1  0  0  0  0
 33 38  1  0  0  0  0
 34 35  2  0  0  0  0
 34 42  1  0  0  0  0
 36 39  1  0  0  0  0
 36 40  1  0  0  0  0
 36 41  1  0  0  0  0
 42 43  1  0  0  0  0
 42 44  1  0  0  0  0
 43 45  1  0  0  0  0
 43 46  1  0  0  0  0
 43 47  1  0  0  0  0
M  CHG  1  24  -1
M  END
$$$$

  -OEChem-05262216243D

 47 46  0     1  0  0  0  0  0999 V2000
    0.3055   -5.9322    1.6525 C   0  0  0  0  0  0  0  0  0  0  0  0
    1.4186   -5.9401    2.1578 O   0  0  0  0  0  0  0  0  0  0  0  0
   -0.7137   -6.9855    2.0455 C   0  0  0  0  0  0  0  0  0  0  0  0
   -1.0666   -7.5122    1.1556 H   0  0  0  0  0  0  0  0  0  0  0  0
   -0.2649   -7.7104    2.7300 H   0  0  0  0  0  0  0  0  0  0  0  0
   -1.5653   -6.5122    2.5405 H   0  0  0  0  0  0  0  0  0  0  0  0
   -0.0383   -4.9663    0.7333 N   0  0  0  0  0  0  0  0  0  0  0  0
    0.7578   -3.7669    0.4485 C   0  0  2  0  0  0  0  0  0  0  0  0
   -0.1501   -2.5615    0.1190 C   0  0  0  0  0  0  0  0  0  0  0  0
   -1.3605   -2.7375    0.0707 O   0  0  0  0  0  0  0  0  0  0  0  0
    1.6939   -4.0748   -0.7243 C   0  0  0  0  0  0  0  0  0  0  0  0
   -1.0213   -4.9129    0.4615 H   0  0  0  0  0  0  0  0  0  0  0  0
    1.3517   -3.4978    1.3282 H   0  0  0  0  0  0  0  0  0  0  0  0
    1.1143   -4.3201   -1.6203 H   0  0  0  0  0  0  0  0  0  0  0  0
    2.3303   -3.2134   -0.9472 H   0  0  0  0  0  0  0  0  0  0  0  0
    2.3382   -4.9252   -0.4813 H   0  0  0  0  0  0  0  0  0  0  0  0
    0.4223   -1.3053    0.0044 N   0  0  0  0  0  0  0  0  0  0  0  0
   -0.1628   -0.0283   -0.4702 C   0  0  2  0  0  0  0  0  0  0  0  0
   -0.1208    1.0560    0.6310 C   0  0  0  0  0  0  0  0  0  0  0  0
    0.2893    0.7949    1.7590 O   0  0  0  0  0  0  0  0  0  0  0  0
   -1.5213   -0.0654   -1.2078 C   0  0  0  0  0  0  0  0  0  0  0  0
   -1.4008   -0.7765   -2.5736 C   0  0  0  0  0  0  0  0  0  0  0  0
   -2.7331   -0.8532   -3.3254 C   0  0  0  0  0  0  0  0  0  0  0  0
   -3.5212    0.1220   -3.2265 O   0  5  0  0  0  0  0  0  0  0  0  0
   -2.9128   -1.8411   -4.0800 O   0  0  0  0  0  0  0  0  0  0  0  0
    1.3947   -1.2598    0.2896 H   0  0  0  0  0  0  0  0  0  0  0  0
    0.5407    0.3345   -1.2249 H   0  0  0  0  0  0  0  0  0  0  0  0
   -1.8680    0.9568   -1.3898 H   0  0  0  0  0  0  0  0  0  0  0  0
   -2.2851   -0.5479   -0.5906 H   0  0  0  0  0  0  0  0  0  0  0  0
   -0.6864   -0.2351   -3.1993 H   0  0  0  0  0  0  0  0  0  0  0  0
   -1.0214   -1.7918   -2.4339 H   0  0  0  0  0  0  0  0  0  0  0  0
   -0.3259    2.3872    0.3147 N   0  0  0  0  0  0  0  0  0  0  0  0
   -0.2732    3.4844    1.2898 C   0  0  2  0  0  0  0  0  0  0  0  0
   -1.1800    4.6641    0.8871 C   0  0  0  0  0  0  0  0  0  0  0  0
   -1.2954    4.9819   -0.2904 O   0  0  0  0  0  0  0  0  0  0  0  0
    1.1776    3.9598    1.4203 C   0  0  0  0  0  0  0  0  0  0  0  0
   -0.7003    2.5974   -0.6113 H   0  0  0  0  0  0  0  0  0  0  0  0
   -0.6208    3.1208    2.2624 H   0  0  0  0  0  0  0  0  0  0  0  0
    1.5467    4.3274    0.4574 H   0  0  0  0  0  0  0  0  0  0  0  0
    1.2494    4.7684    2.1538 H   0  0  0  0  0  0  0  0  0  0  0  0
    1.8210    3.1377    1.7492 H   0  0  0  0  0  0  0  0  0  0  0  0
   -1.8427    5.3950    1.8572 N   0  0  0  0  0  0  0  0  0  0  0  0
   -2.7742    6.4711    1.5442 C   0  0  0  0  0  0  0  0  0  0  0  0
   -1.7925    5.0522    2.8119 H   0  0  0  0  0  0  0  0  0  0  0  0
   -2.2783    7.2490    0.9543 H   0  0  0  0  0  0  0  0  0  0  0  0
   -3.6260    6.0855    0.9741 H   0  0  0  0  0  0  0  0  0  0  0  0
   -3.1492    6.9252    2.4664 H   0  0  0  0  0  0  0  0  0  0  0  0
  1  2  2  0  0  0  0
  1  3  1  0  0  0  0
  1  7  1  0  0  0  0
  3  4  1  0  0  0  0
  3  5  1  0  0  0  0
  3  6  1  0  0  0  0
  7  8  1  0  0  0  0
  7 12  1  0  0  0  0
  8  9  1  0  0  0  0
  8 11  1  0  0  0  0
  8 13  1  0  0  0  0
  9 10  2  0  0  0  0
  9 17  1  0  0  0  0
 11 14  1  0  0  0  0
 11 15  1  0  0  0  0
 11 16  1  0  0  0  0
 17 18  1  0  0  0  0
 17 26  1  0  0  0  0
 18 19  1  0  0  0  0
 18 21  1  0  0  0  0
 18 27  1  0  0  0  0
 19 20  2  0  0  0  0
 19 32  1  0  0  0  0
 21 22  1  0  0  0  0
 21 28  1  0  0  0  0
 21 29  1  0  0  0  0
 22 23  1  0  0  0  0
 22 30  1  0  0  0  0
 22 31  1  0  0  0  0
 23 24  1  0  0  0  0
 23 25  2  0  0  0  0
 32 33  1  0  0  0  0
 32 37  1  0  0  0  0
 33 34  1  0  0  0  0
 33 36  1  0  0  0  0
 33 38  1  0  0  0  0
 34 35  2  0  0  0  0
 34 42  1  0  0  0  0
 36 39  1  0  0  0  0
 36 40  1  0  0  0  0
 36 41  1  0  0  0  0
 42 43  1  0  0  0  0
 42 44  1  0  0  0  0
 43 45  1  0  0  0  0
 43 46  1  0  0  0  0
 43 47  1  0  0  0  0
M  CHG  1  24  -1
M  END
$$$$

  -OEChem-05262216243D

 47 46  0     1  0  0  0  0  0999 V2000
    0.4237   -5.9148    1.7001 C   0  0  0  0  0  0  0  0  0  0  0  0
    1.5665   -5.9045    2.1340 O   0  0  0  0  0  0  0  0  0  0  0  0
   -0.5476   -6.9929    2.1442 C   0  0  0  0  0  0  0  0  0  0  0  0
   -0.8192   -7.6206    1.2919 H   0  0  0  0  0  0  0  0  0  0  0  0
   -0.0911   -7.6199    2.9150 H   0  0  0  0  0  0  0  0  0  0  0  0
   -1.4525   -6.5355    2.5526 H   0  0  0  0  0  0  0  0  0  0  0  0
    0.0066   -4.9543    0.8060 N   0  0  0  0  0  0  0  0  0  0  0  0
    0.7652   -3.7439    0.4689 C   0  0  2  0  0  0  0  0  0  0  0  0
   -0.1791   -2.5470    0.2206 C   0  0  0  0  0  0  0  0  0  0  0  0
   -1.3868   -2.7303    0.2948 O   0  0  0  0  0  0  0  0  0  0  0  0
    1.6056   -4.0355   -0.7778 C   0  0  0  0  0  0  0  0  0  0  0  0
   -0.9939   -4.9135    0.6042 H   0  0  0  0  0  0  0  0  0  0  0  0
    1.4259   -3.4733    1.2991 H   0  0  0  0  0  0  0  0  0  0  0  0
    0.9570   -4.2912   -1.6223 H   0  0  0  0  0  0  0  0  0  0  0  0
    2.2059   -3.1627   -1.0515 H   0  0  0  0  0  0  0  0  0  0  0  0
    2.2824   -4.8750   -0.5905 H   0  0  0  0  0  0  0  0  0  0  0  0
    0.3596   -1.2791    0.0838 N   0  0  0  0  0  0  0  0  0  0  0  0
   -0.2350   -0.0262   -0.4416 C   0  0  2  0  0  0  0  0  0  0  0  0
    0.0941    1.1642    0.4905 C   0  0  0  0  0  0  0  0  0  0  0  0
    0.8998    1.0231    1.4080 O   0  0  0  0  0  0  0  0  0  0  0  0
   -1.6963   -0.0372   -0.9533 C   0  0  0  0  0  0  0  0  0  0  0  0
   -1.8675   -0.8844   -2.2376 C   0  0  0  0  0  0  0  0  0  0  0  0
   -3.3150   -0.9214   -2.7401 C   0  0  0  0  0  0  0  0  0  0  0  0
   -4.0503    0.0722   -2.5055 O   0  5  0  0  0  0  0  0  0  0  0  0
   -3.6499   -1.9035   -3.4483 O   0  0  0  0  0  0  0  0  0  0  0  0
    1.3443   -1.2119    0.3240 H   0  0  0  0  0  0  0  0  0  0  0  0
    0.3447    0.1929   -1.3427 H   0  0  0  0  0  0  0  0  0  0  0  0
   -2.0175    0.9829   -1.1835 H   0  0  0  0  0  0  0  0  0  0  0  0
   -2.3621   -0.4117   -0.1689 H   0  0  0  0  0  0  0  0  0  0  0  0
   -1.2474   -0.4546   -3.0288 H   0  0  0  0  0  0  0  0  0  0  0  0
   -1.5303   -1.9095   -2.0778 H   0  0  0  0  0  0  0  0  0  0  0  0
   -0.3500    2.4458    0.2169 N   0  0  0  0  0  0  0  0  0  0  0  0
   -0.0601    3.6172    1.0545 C   0  0  2  0  0  0  0  0  0  0  0  0
   -1.1690    4.6840    0.9698 C   0  0  0  0  0  0  0  0  0  0  0  0
   -1.7211    4.9203   -0.0973 O   0  0  0  0  0  0  0  0  0  0  0  0
    1.2790    4.2192    0.6176 C   0  0  0  0  0  0  0  0  0  0  0  0
   -1.0375    2.5571   -0.5298 H   0  0  0  0  0  0  0  0  0  0  0  0
    0.0122    3.3044    2.1012 H   0  0  0  0  0  0  0  0  0  0  0  0
    1.2362    4.5231   -0.4333 H   0  0  0  0  0  0  0  0  0  0  0  0
    1.5187    5.0968    1.2254 H   0  0  0  0  0  0  0  0  0  0  0  0
    2.0832    3.4867    0.7367 H   0  0  0  0  0  0  0  0  0  0  0  0
   -1.5234    5.4092    2.0934 N   0  0  0  0  0  0  0  0  0  0  0  0
   -2.6042    6.3865    2.0996 C   0  0  0  0  0  0  0  0  0  0  0  0
   -1.0993    5.1387    2.9757 H   0  0  0  0  0  0  0  0  0  0  0  0
   -2.4007    7.1874    1.3813 H   0  0  0  0  0  0  0  0  0  0  0  0
   -3.5536    5.9089    1.8354 H   0  0  0  0  0  0  0  0  0  0  0  0
   -2.7044    6.8320    3.0938 H   0  0  0  0  0  0  0  0  0  0  0  0
  1  2  2  0  0  0  0
  1  3  1  0  0  0  0
  1  7  1  0  0  0  0
  3  4  1  0  0  0  0
  3  5  1  0  0  0  0
  3  6  1  0  0  0  0
  7  8  1  0  0  0  0
  7 12  1  0  0  0  0
  8  9  1  0  0  0  0
  8 11  1  0  0  0  0
  8 13  1  0  0  0  0
  9 10  2  0  0  0  0
  9 17  1  0  0  0  0
 11 14  1  0  0  0  0
 11 15  1  0  0  0  0
 11 16  1  0  0  0  0
 17 18  1  0  0  0  0
 17 26  1  0  0  0  0
 18 19  1  0  0  0  0
 18 21  1  0  0  0  0
 18 27  1  0  0  0  0
 19 20  2  0  0  0  0
 19 32  1  0  0  0  0
 21 22  1  0  0  0  0
 21 28  1  0  0  0  0
 21 29  1  0  0  0  0
 22 23  1  0  0  0  0
 22 30  1  0  0  0  0
 22 31  1  0  0  0  0
 23 24  1  0  0  0  0
 23 25  2  0  0  0  0
 32 33  1  0  0  0  0
 32 37  1  0  0  0  0
 33 34  1  0  0  0  0
 33 36  1  0  0  0  0
 33 38  1  0  0  0  0
 34 35  2  0  0  0  0
 34 42  1  0  0  0  0
 36 39  1  0  0  0  0
 36 40  1  0  0  0  0
 36 41  1  0  0  0  0
 42 43  1  0  0  0  0
 42 44  1  0  0  0  0
 43 45  1  0  0  0  0
 43 46  1  0  0  0  0
 43 47  1  0  0  0  0
M  CHG  1  24  -1
M  END
$$$$

  -OEChem-05262216243D

 47 46  0     1  0  0  0  0  0999 V2000
    0.4189   -5.9270    1.6894 C   0  0  0  0  0  0  0  0  0  0  0  0
    1.5643   -5.9142    2.1165 O   0  0  0  0  0  0  0  0  0  0  0  0
   -0.5455   -7.0101    2.1362 C   0  0  0  0  0  0  0  0  0  0  0  0
   -0.8998   -7.5735    1.2695 H   0  0  0  0  0  0  0  0  0  0  0  0
   -0.0490   -7.6977    2.8262 H   0  0  0  0  0  0  0  0  0  0  0  0
   -1.4024   -6.5587    2.6426 H   0  0  0  0  0  0  0  0  0  0  0  0
   -0.0091   -4.9577    0.8097 N   0  0  0  0  0  0  0  0  0  0  0  0
    0.7430   -3.7402    0.4828 C   0  0  2  0  0  0  0  0  0  0  0  0
   -0.2056   -2.5436    0.2510 C   0  0  0  0  0  0  0  0  0  0  0  0
   -1.4131   -2.7274    0.3314 O   0  0  0  0  0  0  0  0  0  0  0  0
    1.5805   -4.0149   -0.7696 C   0  0  0  0  0  0  0  0  0  0  0  0
   -1.0100   -4.9224    0.6088 H   0  0  0  0  0  0  0  0  0  0  0  0
    1.4054   -3.4766    1.3141 H   0  0  0  0  0  0  0  0  0  0  0  0
    0.9305   -4.2600   -1.6160 H   0  0  0  0  0  0  0  0  0  0  0  0
    2.1792   -3.1382   -1.0328 H   0  0  0  0  0  0  0  0  0  0  0  0
    2.2585   -4.8559   -0.5947 H   0  0  0  0  0  0  0  0  0  0  0  0
    0.3266   -1.2722    0.1232 N   0  0  0  0  0  0  0  0  0  0  0  0
   -0.2625   -0.0331   -0.4393 C   0  0  2  0  0  0  0  0  0  0  0  0
    0.0229    1.1626    0.5018 C   0  0  0  0  0  0  0  0  0  0  0  0
    0.9663    1.0995    1.2878 O   0  0  0  0  0  0  0  0  0  0  0  0
   -1.7017   -0.0771   -1.0093 C   0  0  0  0  0  0  0  0  0  0  0  0
   -1.7958   -0.9452   -2.2873 C   0  0  0  0  0  0  0  0  0  0  0  0
   -3.2168   -1.0213   -2.8553 C   0  0  0  0  0  0  0  0  0  0  0  0
   -3.9662   -0.0217   -2.7093 O   0  5  0  0  0  0  0  0  0  0  0  0
   -3.5129   -2.0421   -3.5249 O   0  0  0  0  0  0  0  0  0  0  0  0
    1.3164   -1.2053    0.3419 H   0  0  0  0  0  0  0  0  0  0  0  0
    0.3479    0.1903   -1.3190 H   0  0  0  0  0  0  0  0  0  0  0  0
   -2.0273    0.9328   -1.2752 H   0  0  0  0  0  0  0  0  0  0  0  0
   -2.3964   -0.4487   -0.2492 H   0  0  0  0  0  0  0  0  0  0  0  0
   -1.1474   -0.5158   -3.0558 H   0  0  0  0  0  0  0  0  0  0  0  0
   -1.4472   -1.9606   -2.0936 H   0  0  0  0  0  0  0  0  0  0  0  0
   -0.6490    2.3685    0.3998 N   0  0  0  0  0  0  0  0  0  0  0  0
   -0.4084    3.5261    1.2730 C   0  0  2  0  0  0  0  0  0  0  0  0
   -1.6829    4.3610    1.5092 C   0  0  0  0  0  0  0  0  0  0  0  0
   -2.4943    4.5235    0.6070 O   0  0  0  0  0  0  0  0  0  0  0  0
    0.6810    4.3973    0.6403 C   0  0  0  0  0  0  0  0  0  0  0  0
   -1.4570    2.4063   -0.2239 H   0  0  0  0  0  0  0  0  0  0  0  0
   -0.0644    3.1777    2.2522 H   0  0  0  0  0  0  0  0  0  0  0  0
    0.3582    4.7592   -0.3413 H   0  0  0  0  0  0  0  0  0  0  0  0
    0.8973    5.2606    1.2768 H   0  0  0  0  0  0  0  0  0  0  0  0
    1.6029    3.8212    0.5140 H   0  0  0  0  0  0  0  0  0  0  0  0
   -1.9021    4.9669    2.7338 N   0  0  0  0  0  0  0  0  0  0  0  0
   -3.1074    5.7264    3.0409 C   0  0  0  0  0  0  0  0  0  0  0  0
   -1.2489    4.7560    3.4822 H   0  0  0  0  0  0  0  0  0  0  0  0
   -3.2152    6.5699    2.3510 H   0  0  0  0  0  0  0  0  0  0  0  0
   -3.9936    5.0884    2.9586 H   0  0  0  0  0  0  0  0  0  0  0  0
   -3.0560    6.1190    4.0606 H   0  0  0  0  0  0  0  0  0  0  0  0
  1  2  2  0  0  0  0
  1  3  1  0  0  0  0
  1  7  1  0  0  0  0
  3  4  1  0  0  0  0
  3  5  1  0  0  0  0
  3  6  1  0  0  0  0
  7  8  1  0  0  0  0
  7 12  1  0  0  0  0
  8  9  1  0  0  0  0
  8 11  1  0  0  0  0
  8 13  1  0  0  0  0
  9 10  2  0  0  0  0
  9 17  1  0  0  0  0
 11 14  1  0  0  0  0
 11 15  1  0  0  0  0
 11 16  1  0  0  0  0
 17 18  1  0  0  0  0
 17 26  1  0  0  0  0
 18 19  1  0  0  0  0
 18 21  1  0  0  0  0
 18 27  1  0  0  0  0
 19 20  2  0  0  0  0
 19 32  1  0  0  0  0
 21 22  1  0  0  0  0
 21 28  1  0  0  0  0
 21 29  1  0  0  0  0
 22 23  1  0  0  0  0
 22 30  1  0  0  0  0
 22 31  1  0  0  0  0
 23 24  1  0  0  0  0
 23 25  2  0  0  0  0
 32 33  1  0  0  0  0
 32 37  1  0  0  0  0
 33 34  1  0  0  0  0
 33 36  1  0  0  0  0
 33 38  1  0  0  0  0
 34 35  2  0  0  0  0
 34 42  1  0  0  0  0
 36 39  1  0  0  0  0
 36 40  1  0  0  0  0
 36 41  1  0  0  0  0
 42 43  1  0  0  0  0
 42 44  1  0  0  0  0
 43 45  1  0  0  0  0
 43 46  1  0  0  0  0
 43 47  1  0  0  0  0
M  CHG  1  24  -1
M  END
$$$$

  -OEChem-05262216243D

 47 46  0     1  0  0  0  0  0999 V2000
    0.3975   -5.9527    1.6568 C   0  0  0  0  0  0  0  0  0  0  0  0
    1.5451   -5.9568    2.0780 O   0  0  0  0  0  0  0  0  0  0  0  0
   -0.5767   -7.0286    2.1001 C   0  0  0  0  0  0  0  0  0  0  0  0
   -0.9918   -7.5383    1.2271 H   0  0  0  0  0  0  0  0  0  0  0  0
   -0.0679   -7.7635    2.7299 H   0  0  0  0  0  0  0  0  0  0  0  0
   -1.3929   -6.5784    2.6708 H   0  0  0  0  0  0  0  0  0  0  0  0
   -0.0257   -4.9692    0.7908 N   0  0  0  0  0  0  0  0  0  0  0  0
    0.7342   -3.7536    0.4753 C   0  0  2  0  0  0  0  0  0  0  0  0
   -0.2075   -2.5439    0.2883 C   0  0  0  0  0  0  0  0  0  0  0  0
   -1.4159   -2.7174    0.3795 O   0  0  0  0  0  0  0  0  0  0  0  0
    1.5412   -4.0092   -0.8009 C   0  0  0  0  0  0  0  0  0  0  0  0
   -1.0274   -4.9228    0.5957 H   0  0  0  0  0  0  0  0  0  0  0  0
    1.4170   -3.5150    1.2975 H   0  0  0  0  0  0  0  0  0  0  0  0
    0.8702   -4.2266   -1.6387 H   0  0  0  0  0  0  0  0  0  0  0  0
    2.1451   -3.1338   -1.0571 H   0  0  0  0  0  0  0  0  0  0  0  0
    2.2121   -4.8621   -0.6602 H   0  0  0  0  0  0  0  0  0  0  0  0
    0.3270   -1.2720    0.1797 N   0  0  0  0  0  0  0  0  0  0  0  0
   -0.2576   -0.0448   -0.4112 C   0  0  2  0  0  0  0  0  0  0  0  0
   -0.0172    1.1524    0.5378 C   0  0  0  0  0  0  0  0  0  0  0  0
    1.0309    1.1999    1.1785 O   0  0  0  0  0  0  0  0  0  0  0  0
   -1.6724   -0.1072   -1.0383 C   0  0  0  0  0  0  0  0  0  0  0  0
   -1.7015   -0.9816   -2.3150 C   0  0  0  0  0  0  0  0  0  0  0  0
   -3.0958   -1.0774   -2.9412 C   0  0  0  0  0  0  0  0  0  0  0  0
   -3.8327   -0.0593   -2.8941 O   0  5  0  0  0  0  0  0  0  0  0  0
   -3.3782   -2.1346   -3.5584 O   0  0  0  0  0  0  0  0  0  0  0  0
    1.3252   -1.2160    0.3601 H   0  0  0  0  0  0  0  0  0  0  0  0
    0.3834    0.1842   -1.2674 H   0  0  0  0  0  0  0  0  0  0  0  0
   -1.9927    0.8995   -1.3246 H   0  0  0  0  0  0  0  0  0  0  0  0
   -2.3961   -0.4807   -0.3068 H   0  0  0  0  0  0  0  0  0  0  0  0
   -1.0257   -0.5499   -3.0581 H   0  0  0  0  0  0  0  0  0  0  0  0
   -1.3511   -1.9921   -2.0983 H   0  0  0  0  0  0  0  0  0  0  0  0
   -0.8809    2.2304    0.6224 N   0  0  0  0  0  0  0  0  0  0  0  0
   -0.7028    3.3623    1.5427 C   0  0  2  0  0  0  0  0  0  0  0  0
   -2.0388    3.8779    2.1146 C   0  0  0  0  0  0  0  0  0  0  0  0
   -3.0717    3.7938    1.4629 O   0  0  0  0  0  0  0  0  0  0  0  0
    0.0218    4.4822    0.7916 C   0  0  0  0  0  0  0  0  0  0  0  0
   -1.7844    2.1424    0.1535 H   0  0  0  0  0  0  0  0  0  0  0  0
   -0.0909    3.0510    2.3953 H   0  0  0  0  0  0  0  0  0  0  0  0
   -0.5758    4.8194   -0.0616 H   0  0  0  0  0  0  0  0  0  0  0  0
    0.1978    5.3351    1.4538 H   0  0  0  0  0  0  0  0  0  0  0  0
    0.9883    4.1260    0.4217 H   0  0  0  0  0  0  0  0  0  0  0  0
   -2.0760    4.4669    3.3663 N   0  0  0  0  0  0  0  0  0  0  0  0
   -3.3066    4.9393    3.9875 C   0  0  0  0  0  0  0  0  0  0  0  0
   -1.2178    4.4664    3.9091 H   0  0  0  0  0  0  0  0  0  0  0  0
   -3.7879    5.6950    3.3577 H   0  0  0  0  0  0  0  0  0  0  0  0
   -4.0038    4.1079    4.1361 H   0  0  0  0  0  0  0  0  0  0  0  0
   -3.0897    5.3890    4.9610 H   0  0  0  0  0  0  0  0  0  0  0  0
  1  2  2  0  0  0  0
  1  3  1  0  0  0  0
  1  7  1  0  0  0  0
  3  4  1  0  0  0  0
  3  5  1  0  0  0  0
  3  6  1  0  0  0  0
  7  8  1  0  0  0  0
  7 12  1  0  0  0  0
  8  9  1  0  0  0  0
  8 11  1  0  0  0  0
  8 13  1  0  0  0  0
  9 10  2  0  0  0  0
  9 17  1  0  0  0  0
 11 14  1  0  0  0  0
 11 15  1  0  0  0  0
 11 16  1  0  0  0  0
 17 18  1  0  0  0  0
 17 26  1  0  0  0  0
 18 19  1  0  0  0  0
 18 21  1  0  0  0  0
 18 27  1  0  0  0  0
 19 20  2  0  0  0  0
 19 32  1  0  0  0  0
 21 22  1  0  0  0  0
 21 28  1  0  0  0  0
 21 29  1  0  0  0  0
 22 23  1  0  0  0  0
 22 30  1  0  0  0  0
 22 31  1  0  0  0  0
 23 24  1  0  0  0  0
 23 25  2  0  0  0  0
 32 33  1  0  0  0  0
 32 37  1  0  0  0  0
 33 34  1  0  0  0  0
 33 36  1  0  0  0  0
 33 38  1  0  0  0  0
 34 35  2  0  0  0  0
 34 42  1  0  0  0  0
 36 39  1  0  0  0  0
 36 40  1  0  0  0  0
 36 41  1  0  0  0  0
 42 43  1  0  0  0  0
 42 44  1  0  0  0  0
 43 45  1  0  0  0  0
 43 46  1  0  0  0  0
 43 47  1  0  0  0  0
M  CHG  1  24  -1
M  END
$$$$

  -OEChem-05262216243D

 47 46  0     1  0  0  0  0  0999 V2000
    0.4030   -5.9723    1.6178 C   0  0  0  0  0  0  0  0  0  0  0  0
    1.5566   -5.9782    2.0224 O   0  0  0  0  0  0  0  0  0  0  0  0
   -0.5682   -7.0432    2.0799 C   0  0  0  0  0  0  0  0  0  0  0  0
   -0.9713   -7.5786    1.2166 H   0  0  0  0  0  0  0  0  0  0  0  0
   -0.0606   -7.7576    2.7339 H   0  0  0  0  0  0  0  0  0  0  0  0
   -1.3928   -6.5846    2.6315 H   0  0  0  0  0  0  0  0  0  0  0  0
   -0.0288   -4.9915    0.7528 N   0  0  0  0  0  0  0  0  0  0  0  0
    0.7291   -3.7774    0.4272 C   0  0  2  0  0  0  0  0  0  0  0  0
   -0.2083   -2.5582    0.2887 C   0  0  0  0  0  0  0  0  0  0  0  0
   -1.4162   -2.7242    0.3983 O   0  0  0  0  0  0  0  0  0  0  0  0
    1.4904   -4.0224   -0.8786 C   0  0  0  0  0  0  0  0  0  0  0  0
   -1.0331   -4.9421    0.5735 H   0  0  0  0  0  0  0  0  0  0  0  0
    1.4422   -3.5543    1.2275 H   0  0  0  0  0  0  0  0  0  0  0  0
    0.7895   -4.2247   -1.6955 H   0  0  0  0  0  0  0  0  0  0  0  0
    2.0918   -3.1480   -1.1448 H   0  0  0  0  0  0  0  0  0  0  0  0
    2.1595   -4.8818   -0.7712 H   0  0  0  0  0  0  0  0  0  0  0  0
    0.3309   -1.2865    0.2084 N   0  0  0  0  0  0  0  0  0  0  0  0
   -0.2500   -0.0583   -0.3813 C   0  0  2  0  0  0  0  0  0  0  0  0
   -0.0345    1.1281    0.5834 C   0  0  0  0  0  0  0  0  0  0  0  0
    1.0788    1.2889    1.0784 O   0  0  0  0  0  0  0  0  0  0  0  0
   -1.6513   -0.1173   -1.0357 C   0  0  0  0  0  0  0  0  0  0  0  0
   -1.6520   -0.9775   -2.3214 C   0  0  0  0  0  0  0  0  0  0  0  0
   -3.0341   -1.0691   -2.9744 C   0  0  0  0  0  0  0  0  0  0  0  0
   -3.7696   -0.0494   -2.9378 O   0  5  0  0  0  0  0  0  0  0  0  0
   -3.3070   -2.1236   -3.6003 O   0  0  0  0  0  0  0  0  0  0  0  0
    1.3366   -1.2480    0.3458 H   0  0  0  0  0  0  0  0  0  0  0  0
    0.4058    0.1820   -1.2233 H   0  0  0  0  0  0  0  0  0  0  0  0
   -1.9661    0.8941   -1.3140 H   0  0  0  0  0  0  0  0  0  0  0  0
   -2.3884   -0.5025   -0.3240 H   0  0  0  0  0  0  0  0  0  0  0  0
   -0.9634   -0.5355   -3.0463 H   0  0  0  0  0  0  0  0  0  0  0  0
   -1.3030   -1.9895   -2.1083 H   0  0  0  0  0  0  0  0  0  0  0  0
   -1.0311    2.0386    0.8874 N   0  0  0  0  0  0  0  0  0  0  0  0
   -0.8910    3.1225    1.8698 C   0  0  2  0  0  0  0  0  0  0  0  0
   -2.1691    3.3358    2.7072 C   0  0  0  0  0  0  0  0  0  0  0  0
   -3.2671    3.0198    2.2668 O   0  0  0  0  0  0  0  0  0  0  0  0
   -0.5263    4.4030    1.1144 C   0  0  0  0  0  0  0  0  0  0  0  0
   -1.9742    1.8184    0.5617 H   0  0  0  0  0  0  0  0  0  0  0  0
   -0.0873    2.8820    2.5729 H   0  0  0  0  0  0  0  0  0  0  0  0
   -1.3232    4.6736    0.4140 H   0  0  0  0  0  0  0  0  0  0  0  0
   -0.3790    5.2313    1.8136 H   0  0  0  0  0  0  0  0  0  0  0  0
    0.3998    4.2584    0.5490 H   0  0  0  0  0  0  0  0  0  0  0  0
   -2.0886    3.9064    3.9656 N   0  0  0  0  0  0  0  0  0  0  0  0
   -3.2481    4.1003    4.8273 C   0  0  0  0  0  0  0  0  0  0  0  0
   -1.1628    4.1102    4.3295 H   0  0  0  0  0  0  0  0  0  0  0  0
   -3.9921    4.7326    4.3312 H   0  0  0  0  0  0  0  0  0  0  0  0
   -3.7090    3.1368    5.0694 H   0  0  0  0  0  0  0  0  0  0  0  0
   -2.9499    4.5867    5.7607 H   0  0  0  0  0  0  0  0  0  0  0  0
  1  2  2  0  0  0  0
  1  3  1  0  0  0  0
  1  7  1  0  0  0  0
  3  4  1  0  0  0  0
  3  5  1  0  0  0  0
  3  6  1  0  0  0  0
  7  8  1  0  0  0  0
  7 12  1  0  0  0  0
  8  9  1  0  0  0  0
  8 11  1  0  0  0  0
  8 13  1  0  0  0  0
  9 10  2  0  0  0  0
  9 17  1  0  0  0  0
 11 14  1  0  0  0  0
 11 15  1  0  0  0  0
 11 16  1  0  0  0  0
 17 18  1  0  0  0  0
 17 26  1  0  0  0  0
 18 19  1  0  0  0  0
 18 21  1  0  0  0  0
 18 27  1  0  0  0  0
 19 20  2  0  0  0  0
 19 32  1  0  0  0  0
 21 22  1  0  0  0  0
 21 28  1  0  0  0  0
 21 29  1  0  0  0  0
 22 23  1  0  0  0  0
 22 30  1  0  0  0  0
 22 31  1  0  0  0  0
 23 24  1  0  0  0  0
 23 25  2  0  0  0  0
 32 33  1  0  0  0  0
 32 37  1  0  0  0  0
 33 34  1  0  0  0  0
 33 36  1  0  0  0  0
 33 38  1  0  0  0  0
 34 35  2  0  0  0  0
 34 42  1  0  0  0  0
 36 39  1  0  0  0  0
 36 40  1  0  0  0  0
 36 41  1  0  0  0  0
 42 43  1  0  0  0  0
 42 44  1  0  0  0  0
 43 45  1  0  0  0  0
 43 46  1  0  0  0  0
 43 47  1  0  0  0  0
M  CHG  1  24  -1
M  END
$$$$

  -OEChem-05262216243D

 47 46  0     1  0  0  0  0  0999 V2000
    0.3701   -6.1054    1.4331 C   0  0  0  0  0  0  0  0  0  0  0  0
    1.5349   -6.1797    1.7969 O   0  0  0  0  0  0  0  0  0  0  0  0
   -0.6090   -7.2093    1.7878 C   0  0  0  0  0  0  0  0  0  0  0  0
   -1.0613   -7.6126    0.8782 H   0  0  0  0  0  0  0  0  0  0  0  0
   -0.0943   -8.0178    2.3138 H   0  0  0  0  0  0  0  0  0  0  0  0
   -1.3974   -6.8131    2.4326 H   0  0  0  0  0  0  0  0  0  0  0  0
   -0.0666   -5.0198    0.7075 N   0  0  0  0  0  0  0  0  0  0  0  0
    0.7175   -3.8027    0.4667 C   0  0  2  0  0  0  0  0  0  0  0  0
   -0.1944   -2.5576    0.4164 C   0  0  0  0  0  0  0  0  0  0  0  0
   -1.4009   -2.6953    0.5718 O   0  0  0  0  0  0  0  0  0  0  0  0
    1.4709   -3.9696   -0.8567 C   0  0  0  0  0  0  0  0  0  0  0  0
   -1.0739   -4.9319    0.5624 H   0  0  0  0  0  0  0  0  0  0  0  0
    1.4353   -3.6537    1.2801 H   0  0  0  0  0  0  0  0  0  0  0  0
    0.7641   -4.0911   -1.6843 H   0  0  0  0  0  0  0  0  0  0  0  0
    2.0952   -3.0944   -1.0585 H   0  0  0  0  0  0  0  0  0  0  0  0
    2.1162   -4.8526   -0.8170 H   0  0  0  0  0  0  0  0  0  0  0  0
    0.3651   -1.2943    0.3504 N   0  0  0  0  0  0  0  0  0  0  0  0
   -0.1984   -0.0767   -0.2753 C   0  0  2  0  0  0  0  0  0  0  0  0
   -0.0219    1.1240    0.6750 C   0  0  0  0  0  0  0  0  0  0  0  0
    1.1114    1.4397    1.0276 O   0  0  0  0  0  0  0  0  0  0  0  0
   -1.5871   -0.1394   -0.9558 C   0  0  0  0  0  0  0  0  0  0  0  0
   -1.5756   -1.0234   -2.2241 C   0  0  0  0  0  0  0  0  0  0  0  0
   -2.9514   -1.1093   -2.8914 C   0  0  0  0  0  0  0  0  0  0  0  0
   -3.6409   -0.0588   -2.9477 O   0  5  0  0  0  0  0  0  0  0  0  0
   -3.2673   -2.2001   -3.4282 O   0  0  0  0  0  0  0  0  0  0  0  0
    1.3773   -1.2872    0.4299 H   0  0  0  0  0  0  0  0  0  0  0  0
    0.4770    0.1519   -1.1053 H   0  0  0  0  0  0  0  0  0  0  0  0
   -1.8852    0.8713   -1.2553 H   0  0  0  0  0  0  0  0  0  0  0  0
   -2.3425   -0.5033   -0.2519 H   0  0  0  0  0  0  0  0  0  0  0  0
   -0.8702   -0.6047   -2.9470 H   0  0  0  0  0  0  0  0  0  0  0  0
   -1.2435   -2.0351   -1.9851 H   0  0  0  0  0  0  0  0  0  0  0  0
   -1.1008    1.8429    1.1562 N   0  0  0  0  0  0  0  0  0  0  0  0
   -1.0105    2.9298    2.1397 C   0  0  2  0  0  0  0  0  0  0  0  0
   -2.0781    2.8217    3.2480 C   0  0  0  0  0  0  0  0  0  0  0  0
   -3.1518    2.2721    3.0360 O   0  0  0  0  0  0  0  0  0  0  0  0
   -1.1589    4.2519    1.3846 C   0  0  0  0  0  0  0  0  0  0  0  0
   -2.0281    1.4648    0.9563 H   0  0  0  0  0  0  0  0  0  0  0  0
   -0.0338    2.9097    2.6334 H   0  0  0  0  0  0  0  0  0  0  0  0
   -2.1372    4.3043    0.8955 H   0  0  0  0  0  0  0  0  0  0  0  0
   -1.0655    5.0985    2.0710 H   0  0  0  0  0  0  0  0  0  0  0  0
   -0.3816    4.3386    0.6189 H   0  0  0  0  0  0  0  0  0  0  0  0
   -1.8435    3.3835    4.4907 N   0  0  0  0  0  0  0  0  0  0  0  0
   -2.7983    3.3199    5.5895 C   0  0  0  0  0  0  0  0  0  0  0  0
   -0.9322    3.8012    4.6509 H   0  0  0  0  0  0  0  0  0  0  0  0
   -3.7396    3.8028    5.3067 H   0  0  0  0  0  0  0  0  0  0  0  0
   -3.0026    2.2783    5.8585 H   0  0  0  0  0  0  0  0  0  0  0  0
   -2.3974    3.8330    6.4686 H   0  0  0  0  0  0  0  0  0  0  0  0
  1  2  2  0  0  0  0
  1  3  1  0  0  0  0
  1  7  1  0  0  0  0
  3  4  1  0  0  0  0
  3  5  1  0  0  0  0
  3  6  1  0  0  0  0
  7  8  1  0  0  0  0
  7 12  1  0  0  0  0
  8  9  1  0  0  0  0
  8 11  1  0  0  0  0
  8 13  1  0  0  0  0
  9 10  2  0  0  0  0
  9 17  1  0  0  0  0
 11 14  1  0  0  0  0
 11 15  1  0  0  0  0
 11 16  1  0  0  0  0
 17 18  1  0  0  0  0
 17 26  1  0  0  0  0
 18 19  1  0  0  0  0
 18 21  1  0  0  0  0
 18 27  1  0  0  0  0
 19 20  2  0  0  0  0
 19 32  1  0  0  0  0
 21 22  1  0  0  0  0
 21 28  1  0  0  0  0
 21 29  1  0  0  0  0
 22 23  1  0  0  0  0
 22 30  1  0  0  0  0
 22 31  1  0  0  0  0
 23 24  1  0  0  0  0
 23 25  2  0  0  0  0
 32 33  1  0  0  0  0
 32 37  1  0  0  0  0
 33 34  1  0  0  0  0
 33 36  1  0  0  0  0
 33 38  1  0  0  0  0
 34 35  2  0  0  0  0
 34 42  1  0  0  0  0
 36 39  1  0  0  0  0
 36 40  1  0  0  0  0
 36 41  1  0  0  0  0
 42 43  1  0  0  0  0
 42 44  1  0  0  0  0
 43 45  1  0  0  0  0
 43 46  1  0  0  0  0
 43 47  1  0  0  0  0
M  CHG  1  24  -1
M  END
$$$$

  -OEChem-05262216243D

 47 46  0     1  0  0  0  0  0999 V2000
    0.4331   -6.0332    1.4957 C   0  0  0  0  0  0  0  0  0  0  0  0
    1.6013   -6.0522    1.8558 O   0  0  0  0  0  0  0  0  0  0  0  0
   -0.5337   -7.0870    2.0034 C   0  0  0  0  0  0  0  0  0  0  0  0
   -1.0284   -7.5764    1.1609 H   0  0  0  0  0  0  0  0  0  0  0  0
    0.0008   -7.8422    2.5861 H   0  0  0  0  0  0  0  0  0  0  0  0
   -1.2909   -6.6205    2.6386 H   0  0  0  0  0  0  0  0  0  0  0  0
   -0.0207   -5.0519    0.6423 N   0  0  0  0  0  0  0  0  0  0  0  0
    0.7329   -3.8412    0.2946 C   0  0  2  0  0  0  0  0  0  0  0  0
   -0.1804   -2.5969    0.2987 C   0  0  0  0  0  0  0  0  0  0  0  0
   -1.3848   -2.7411    0.4629 O   0  0  0  0  0  0  0  0  0  0  0  0
    1.3499   -4.0445   -1.0913 C   0  0  0  0  0  0  0  0  0  0  0  0
   -1.0317   -4.9889    0.5127 H   0  0  0  0  0  0  0  0  0  0  0  0
    1.5292   -3.6683    1.0257 H   0  0  0  0  0  0  0  0  0  0  0  0
    0.5642   -4.1943   -1.8396 H   0  0  0  0  0  0  0  0  0  0  0  0
    1.9432   -3.1720   -1.3807 H   0  0  0  0  0  0  0  0  0  0  0  0
    2.0036   -4.9222   -1.0899 H   0  0  0  0  0  0  0  0  0  0  0  0
    0.3796   -1.3320    0.2822 N   0  0  0  0  0  0  0  0  0  0  0  0
   -0.1878   -0.0906   -0.2913 C   0  0  2  0  0  0  0  0  0  0  0  0
   -0.0090    1.0702    0.7040 C   0  0  0  0  0  0  0  0  0  0  0  0
    1.1179    1.5119    0.9091 O   0  0  0  0  0  0  0  0  0  0  0  0
   -1.5829   -0.1202   -0.9592 C   0  0  0  0  0  0  0  0  0  0  0  0
   -1.5880   -0.9537   -2.2618 C   0  0  0  0  0  0  0  0  0  0  0  0
   -2.9670   -1.0135   -2.9262 C   0  0  0  0  0  0  0  0  0  0  0  0
   -3.7098   -0.0021   -2.8411 O   0  5  0  0  0  0  0  0  0  0  0  0
   -3.2327   -2.0389   -3.6014 O   0  0  0  0  0  0  0  0  0  0  0  0
    1.3935   -1.3343    0.3370 H   0  0  0  0  0  0  0  0  0  0  0  0
    0.4803    0.1687   -1.1182 H   0  0  0  0  0  0  0  0  0  0  0  0
   -1.8803    0.9043   -1.2091 H   0  0  0  0  0  0  0  0  0  0  0  0
   -2.3320   -0.5117   -0.2640 H   0  0  0  0  0  0  0  0  0  0  0  0
   -0.8861   -0.5089   -2.9725 H   0  0  0  0  0  0  0  0  0  0  0  0
   -1.2577   -1.9751   -2.0649 H   0  0  0  0  0  0  0  0  0  0  0  0
   -1.0699    1.5602    1.4426 N   0  0  0  0  0  0  0  0  0  0  0  0
   -0.9515    2.5610    2.5109 C   0  0  2  0  0  0  0  0  0  0  0  0
   -1.8502    2.2482    3.7254 C   0  0  0  0  0  0  0  0  0  0  0  0
   -2.8704    1.5823    3.5990 O   0  0  0  0  0  0  0  0  0  0  0  0
   -1.3121    3.9260    1.9202 C   0  0  0  0  0  0  0  0  0  0  0  0
   -1.9577    1.0630    1.3561 H   0  0  0  0  0  0  0  0  0  0  0  0
    0.0795    2.5922    2.8770 H   0  0  0  0  0  0  0  0  0  0  0  0
   -2.3458    3.9245    1.5592 H   0  0  0  0  0  0  0  0  0  0  0  0
   -1.2067    4.7110    2.6749 H   0  0  0  0  0  0  0  0  0  0  0  0
   -0.6504    4.1617    1.0808 H   0  0  0  0  0  0  0  0  0  0  0  0
   -1.5206    2.7420    4.9757 N   0  0  0  0  0  0  0  0  0  0  0  0
   -2.3016    2.4647    6.1746 C   0  0  0  0  0  0  0  0  0  0  0  0
   -0.6466    3.2517    5.0618 H   0  0  0  0  0  0  0  0  0  0  0  0
   -3.3359    2.8002    6.0443 H   0  0  0  0  0  0  0  0  0  0  0  0
   -2.3036    1.3910    6.3892 H   0  0  0  0  0  0  0  0  0  0  0  0
   -1.8748    2.9899    7.0342 H   0  0  0  0  0  0  0  0  0  0  0  0
  1  2  2  0  0  0  0
  1  3  1  0  0  0  0
  1  7  1  0  0  0  0
  3  4  1  0  0  0  0
  3  5  1  0  0  0  0
  3  6  1  0  0  0  0
  7  8  1  0  0  0  0
  7 12  1  0  0  0  0
  8  9  1  0  0  0  0
  8 11  1  0  0  0  0
  8 13  1  0  0  0  0
  9 10  2  0  0  0  0
  9 17  1  0  0  0  0
 11 14  1  0  0  0  0
 11 15  1  0  0  0  0
 11 16  1  0  0  0  0
 17 18  1  0  0  0  0
 17 26  1  0  0  0  0
 18 19  1  0  0  0  0
 18 21  1  0  0  0  0
 18 27  1  0  0  0  0
 19 20  2  0  0  0  0
 19 32  1  0  0  0  0
 21 22  1  0  0  0  0
 21 28  1  0  0  0  0
 21 29  1  0  0  0  0
 22 23  1  0  0  0  0
 22 30  1  0  0  0  0
 22 31  1  0  0  0  0
 23 24  1  0  0  0  0
 23 25  2  0  0  0  0
 32 33  1  0  0  0  0
 32 37  1  0  0  0  0
 33 34  1  0  0  0  0
 33 36  1  0  0  0  0
 33 38  1  0  0  0  0
 34 35  2  0  0  0  0
 34 42  1  0  0  0  0
 36 39  1  0  0  0  0
 36 40  1  0  0  0  0
 36 41  1  0  0  0  0
 42 43  1  0  0  0  0
 42 44  1  0  0  0  0
 43 45  1  0  0  0  0
 43 46  1  0  0  0  0
 43 47  1  0  0  0  0
M  CHG  1  24  -1
M  END
$$$$

  -OEChem-05262216243D

 47 46  0     1  0  0  0  0  0999 V2000
    0.4418   -6.0610    1.4350 C   0  0  0  0  0  0  0  0  0  0  0  0
    1.6178   -6.0880    1.7686 O   0  0  0  0  0  0  0  0  0  0  0  0
   -0.5223   -7.1040    1.9696 C   0  0  0  0  0  0  0  0  0  0  0  0
   -1.0386   -7.5950    1.1408 H   0  0  0  0  0  0  0  0  0  0  0  0
    0.0181   -7.8601    2.5457 H   0  0  0  0  0  0  0  0  0  0  0  0
   -1.2620   -6.6271    2.6179 H   0  0  0  0  0  0  0  0  0  0  0  0
   -0.0240   -5.0806    0.5871 N   0  0  0  0  0  0  0  0  0  0  0  0
    0.7283   -3.8746    0.2205 C   0  0  2  0  0  0  0  0  0  0  0  0
   -0.1670   -2.6188    0.2848 C   0  0  0  0  0  0  0  0  0  0  0  0
   -1.3689   -2.7496    0.4774 O   0  0  0  0  0  0  0  0  0  0  0  0
    1.2765   -4.0678   -1.1956 C   0  0  0  0  0  0  0  0  0  0  0  0
   -1.0375   -5.0103    0.4837 H   0  0  0  0  0  0  0  0  0  0  0  0
    1.5610   -3.7207    0.9143 H   0  0  0  0  0  0  0  0  0  0  0  0
    0.4556   -4.2070   -1.9075 H   0  0  0  0  0  0  0  0  0  0  0  0
    1.8603   -3.1957   -1.5049 H   0  0  0  0  0  0  0  0  0  0  0  0
    1.9244   -4.9489   -1.2333 H   0  0  0  0  0  0  0  0  0  0  0  0
    0.4074   -1.3606    0.2997 N   0  0  0  0  0  0  0  0  0  0  0  0
   -0.1479   -0.1088   -0.2622 C   0  0  2  0  0  0  0  0  0  0  0  0
    0.0230    1.0342    0.7524 C   0  0  0  0  0  0  0  0  0  0  0  0
    1.0880    1.6414    0.8061 O   0  0  0  0  0  0  0  0  0  0  0  0
   -1.5453   -0.1144   -0.9252 C   0  0  0  0  0  0  0  0  0  0  0  0
   -1.5713   -0.9357   -2.2350 C   0  0  0  0  0  0  0  0  0  0  0  0
   -2.9562   -0.9678   -2.8889 C   0  0  0  0  0  0  0  0  0  0  0  0
   -3.6797    0.0569   -2.7961 O   0  5  0  0  0  0  0  0  0  0  0  0
   -3.2474   -1.9882   -3.5610 O   0  0  0  0  0  0  0  0  0  0  0  0
    1.4221   -1.3828    0.3250 H   0  0  0  0  0  0  0  0  0  0  0  0
    0.5237    0.1564   -1.0846 H   0  0  0  0  0  0  0  0  0  0  0  0
   -1.8285    0.9171   -1.1631 H   0  0  0  0  0  0  0  0  0  0  0  0
   -2.2972   -0.5007   -0.2299 H   0  0  0  0  0  0  0  0  0  0  0  0
   -0.8691   -0.4935   -2.9470 H   0  0  0  0  0  0  0  0  0  0  0  0
   -1.2540   -1.9634   -2.0509 H   0  0  0  0  0  0  0  0  0  0  0  0
   -0.9577    1.3013    1.6893 N   0  0  0  0  0  0  0  0  0  0  0  0
   -0.8212    2.2620    2.7917 C   0  0  2  0  0  0  0  0  0  0  0  0
   -1.4131    1.7424    4.1184 C   0  0  0  0  0  0  0  0  0  0  0  0
   -2.2924    0.8896    4.1271 O   0  0  0  0  0  0  0  0  0  0  0  0
   -1.5116    3.5613    2.3716 C   0  0  0  0  0  0  0  0  0  0  0  0
   -1.7534    0.6613    1.7127 H   0  0  0  0  0  0  0  0  0  0  0  0
    0.2382    2.4658    2.9761 H   0  0  0  0  0  0  0  0  0  0  0  0
   -2.5789    3.3885    2.1986 H   0  0  0  0  0  0  0  0  0  0  0  0
   -1.4021    4.3222    3.1498 H   0  0  0  0  0  0  0  0  0  0  0  0
   -1.0666    3.9439    1.4476 H   0  0  0  0  0  0  0  0  0  0  0  0
   -0.9603    2.2543    5.3219 N   0  0  0  0  0  0  0  0  0  0  0  0
   -1.4411    1.7942    6.6183 C   0  0  0  0  0  0  0  0  0  0  0  0
   -0.2066    2.9338    5.2868 H   0  0  0  0  0  0  0  0  0  0  0  0
   -2.5196    1.9614    6.7084 H   0  0  0  0  0  0  0  0  0  0  0  0
   -1.2377    0.7255    6.7445 H   0  0  0  0  0  0  0  0  0  0  0  0
   -0.9384    2.3400    7.4223 H   0  0  0  0  0  0  0  0  0  0  0  0
  1  2  2  0  0  0  0
  1  3  1  0  0  0  0
  1  7  1  0  0  0  0
  3  4  1  0  0  0  0
  3  5  1  0  0  0  0
  3  6  1  0  0  0  0
  7  8  1  0  0  0  0
  7 12  1  0  0  0  0
  8  9  1  0  0  0  0
  8 11  1  0  0  0  0
  8 13  1  0  0  0  0
  9 10  2  0  0  0  0
  9 17  1  0  0  0  0
 11 14  1  0  0  0  0
 11 15  1  0  0  0  0
 11 16  1  0  0  0  0
 17 18  1  0  0  0  0
 17 26  1  0  0  0  0
 18 19  1  0  0  0  0
 18 21  1  0  0  0  0
 18 27  1  0  0  0  0
 19 20  2  0  0  0  0
 19 32  1  0  0  0  0
 21 22  1  0  0  0  0
 21 28  1  0  0  0  0
 21 29  1  0  0  0  0
 22 23  1  0  0  0  0
 22 30  1  0  0  0  0
 22 31  1  0  0  0  0
 23 24  1  0  0  0  0
 23 25  2  0  0  0  0
 32 33  1  0  0  0  0
 32 37  1  0  0  0  0
 33 34  1  0  0  0  0
 33 36  1  0  0  0  0
 33 38  1  0  0  0  0
 34 35  2  0  0  0  0
 34 42  1  0  0  0  0
 36 39  1  0  0  0  0
 36 40  1  0  0  0  0
 36 41  1  0  0  0  0
 42 43  1  0  0  0  0
 42 44  1  0  0  0  0
 43 45  1  0  0  0  0
 43 46  1  0  0  0  0
 43 47  1  0  0  0  0
M  CHG  1  24  -1
M  END
$$$$

  -OEChem-05262216243D

 47 46  0     1  0  0  0  0  0999 V2000
   -0.2372   -6.1510   -0.0445 C   0  0  0  0  0  0  0  0  0  0  0  0
    0.5742   -6.7964    0.6059 O   0  0  0  0  0  0  0  0  0  0  0  0
   -1.2184   -6.8533   -0.9645 C   0  0  0  0  0  0  0  0  0  0  0  0
   -1.0939   -6.4892   -1.9878 H   0  0  0  0  0  0  0  0  0  0  0  0
   -1.0504   -7.9331   -0.9486 H   0  0  0  0  0  0  0  0  0  0  0  0
   -2.2422   -6.6485   -0.6409 H   0  0  0  0  0  0  0  0  0  0  0  0
   -0.2682   -4.7782    0.0486 N   0  0  0  0  0  0  0  0  0  0  0  0
    0.5090   -3.9790    1.0095 C   0  0  2  0  0  0  0  0  0  0  0  0
   -0.2702   -2.7017    1.3981 C   0  0  0  0  0  0  0  0  0  0  0  0
   -1.4516   -2.7799    1.7058 O   0  0  0  0  0  0  0  0  0  0  0  0
    1.8792   -3.6745    0.3885 C   0  0  0  0  0  0  0  0  0  0  0  0
   -1.0304   -4.3126   -0.4536 H   0  0  0  0  0  0  0  0  0  0  0  0
    0.6574   -4.5526    1.9304 H   0  0  0  0  0  0  0  0  0  0  0  0
    1.7662   -3.0680   -0.5160 H   0  0  0  0  0  0  0  0  0  0  0  0
    2.5147   -3.1380    1.0988 H   0  0  0  0  0  0  0  0  0  0  0  0
    2.3848   -4.6066    0.1167 H   0  0  0  0  0  0  0  0  0  0  0  0
    0.2919   -1.4370    1.4267 N   0  0  0  0  0  0  0  0  0  0  0  0
   -0.1980   -0.3209    0.5792 C   0  0  2  0  0  0  0  0  0  0  0  0
   -0.3312    0.9624    1.4100 C   0  0  0  0  0  0  0  0  0  0  0  0
    0.5437    1.8220    1.3931 O   0  0  0  0  0  0  0  0  0  0  0  0
   -1.4002   -0.5819   -0.3611 C   0  0  0  0  0  0  0  0  0  0  0  0
   -1.0276   -1.5690   -1.4887 C   0  0  0  0  0  0  0  0  0  0  0  0
   -2.1972   -1.8721   -2.4171 C   0  0  0  0  0  0  0  0  0  0  0  0
   -2.7798   -0.9144   -2.9811 O   0  5  0  0  0  0  0  0  0  0  0  0
   -2.4841   -3.0867   -2.5689 O   0  0  0  0  0  0  0  0  0  0  0  0
    1.3053   -1.4832    1.4505 H   0  0  0  0  0  0  0  0  0  0  0  0
    0.6247   -0.1033   -0.1099 H   0  0  0  0  0  0  0  0  0  0  0  0
   -1.7062    0.3641   -0.8216 H   0  0  0  0  0  0  0  0  0  0  0  0
   -2.2632   -0.9549    0.1986 H   0  0  0  0  0  0  0  0  0  0  0  0
   -0.2261   -1.1303   -2.0897 H   0  0  0  0  0  0  0  0  0  0  0  0
   -0.6523   -2.5066   -1.0945 H   0  0  0  0  0  0  0  0  0  0  0  0
   -1.3894    1.0858    2.2886 N   0  0  0  0  0  0  0  0  0  0  0  0
   -1.6589    2.2632    3.1272 C   0  0  2  0  0  0  0  0  0  0  0  0
   -0.7614    2.3372    4.3891 C   0  0  0  0  0  0  0  0  0  0  0  0
   -1.2282    2.5256    5.5078 O   0  0  0  0  0  0  0  0  0  0  0  0
   -3.1549    2.2363    3.4635 C   0  0  0  0  0  0  0  0  0  0  0  0
   -2.0174    0.2847    2.3463 H   0  0  0  0  0  0  0  0  0  0  0  0
   -1.4631    3.1682    2.5425 H   0  0  0  0  0  0  0  0  0  0  0  0
   -3.3958    1.3570    4.0694 H   0  0  0  0  0  0  0  0  0  0  0  0
   -3.4352    3.1326    4.0254 H   0  0  0  0  0  0  0  0  0  0  0  0
   -3.7518    2.2039    2.5469 H   0  0  0  0  0  0  0  0  0  0  0  0
    0.6093    2.2375    4.2504 N   0  0  0  0  0  0  0  0  0  0  0  0
    1.5572    2.3288    5.3507 C   0  0  0  0  0  0  0  0  0  0  0  0
    0.9536    2.1281    3.2925 H   0  0  0  0  0  0  0  0  0  0  0  0
    1.5068    3.3175    5.8182 H   0  0  0  0  0  0  0  0  0  0  0  0
    1.3404    1.5676    6.1072 H   0  0  0  0  0  0  0  0  0  0  0  0
    2.5752    2.1699    4.9829 H   0  0  0  0  0  0  0  0  0  0  0  0
  1  2  2  0  0  0  0
  1  3  1  0  0  0  0
  1  7  1  0  0  0  0
  3  4  1  0  0  0  0
  3  5  1  0  0  0  0
  3  6  1  0  0  0  0
  7  8  1  0  0  0  0
  7 12  1  0  0  0  0
  8  9  1  0  0  0  0
  8 11  1  0  0  0  0
  8 13  1  0  0  0  0
  9 10  2  0  0  0  0
  9 17  1  0  0  0  0
 11 14  1  0  0  0  0
 11 15  1  0  0  0  0
 11 16  1  0  0  0  0
 17 18  1  0  0  0  0
 17 26  1  0  0  0  0
 18 19  1  0  0  0  0
 18 21  1  0  0  0  0
 18 27  1  0  0  0  0
 19 20  2  0  0  0  0
 19 32  1  0  0  0  0
 21 22  1  0  0  0  0
 21 28  1  0  0  0  0
 21 29  1  0  0  0  0
 22 23  1  0  0  0  0
 22 30  1  0  0  0  0
 22 31  1  0  0  0  0
 23 24  1  0  0  0  0
 23 25  2  0  0  0  0
 32 33  1  0  0  0  0
 32 37  1  0  0  0  0
 33 34  1  0  0  0  0
 33 36  1  0  0  0  0
 33 38  1  0  0  0  0
 34 35  2  0  0  0  0
 34 42  1  0  0  0  0
 36 39  1  0  0  0  0
 36 40  1  0  0  0  0
 36 41  1  0  0  0  0
 42 43  1  0  0  0  0
 42 44  1  0  0  0  0
 43 45  1  0  0  0  0
 43 46  1  0  0  0  0
 43 47  1  0  0  0  0
M  CHG  1  24  -1
M  END
$$$$

  -OEChem-05262216243D

 47 46  0     1  0  0  0  0  0999 V2000
   -0.2366   -6.3643    0.3622 C   0  0  0  0  0  0  0  0  0  0  0  0
    0.7143   -6.8205    0.9817 O   0  0  0  0  0  0  0  0  0  0  0  0
   -1.3218   -7.2890   -0.1570 C   0  0  0  0  0  0  0  0  0  0  0  0
   -1.3960   -7.2020   -1.2438 H   0  0  0  0  0  0  0  0  0  0  0  0
   -1.0922   -8.3266    0.1005 H   0  0  0  0  0  0  0  0  0  0  0  0
   -2.2835   -7.0192    0.2870 H   0  0  0  0  0  0  0  0  0  0  0  0
   -0.3375   -5.0087    0.1417 N   0  0  0  0  0  0  0  0  0  0  0  0
    0.5249   -3.9974    0.7654 C   0  0  2  0  0  0  0  0  0  0  0  0
   -0.2723   -2.7035    1.0400 C   0  0  0  0  0  0  0  0  0  0  0  0
   -1.4811   -2.7533    1.2255 O   0  0  0  0  0  0  0  0  0  0  0  0
    1.7194   -3.7538   -0.1662 C   0  0  0  0  0  0  0  0  0  0  0  0
   -1.2127   -4.6741   -0.2661 H   0  0  0  0  0  0  0  0  0  0  0  0
    0.8910   -4.3606    1.7313 H   0  0  0  0  0  0  0  0  0  0  0  0
    1.3804   -3.3588   -1.1293 H   0  0  0  0  0  0  0  0  0  0  0  0
    2.4220   -3.0426    0.2769 H   0  0  0  0  0  0  0  0  0  0  0  0
    2.2526   -4.6925   -0.3465 H   0  0  0  0  0  0  0  0  0  0  0  0
    0.3454   -1.4797    1.2091 N   0  0  0  0  0  0  0  0  0  0  0  0
   -0.0294   -0.2511    0.4681 C   0  0  2  0  0  0  0  0  0  0  0  0
   -0.1149    0.9273    1.4479 C   0  0  0  0  0  0  0  0  0  0  0  0
    0.6990    1.8439    1.4130 O   0  0  0  0  0  0  0  0  0  0  0  0
   -1.2485   -0.2918   -0.4844 C   0  0  0  0  0  0  0  0  0  0  0  0
   -1.0105   -1.1982   -1.7136 C   0  0  0  0  0  0  0  0  0  0  0  0
   -2.2293   -1.2510   -2.6346 C   0  0  0  0  0  0  0  0  0  0  0  0
   -2.7495   -0.1626   -2.9850 O   0  5  0  0  0  0  0  0  0  0  0  0
   -2.6069   -2.3851   -3.0210 O   0  0  0  0  0  0  0  0  0  0  0  0
    1.3495   -1.5793    1.3166 H   0  0  0  0  0  0  0  0  0  0  0  0
    0.8201   -0.0237   -0.1841 H   0  0  0  0  0  0  0  0  0  0  0  0
   -1.4485    0.7241   -0.8434 H   0  0  0  0  0  0  0  0  0  0  0  0
   -2.1445   -0.6194    0.0520 H   0  0  0  0  0  0  0  0  0  0  0  0
   -0.1626   -0.8109   -2.2852 H   0  0  0  0  0  0  0  0  0  0  0  0
   -0.7673   -2.2170   -1.4137 H   0  0  0  0  0  0  0  0  0  0  0  0
   -1.0160    0.8587    2.4919 N   0  0  0  0  0  0  0  0  0  0  0  0
   -1.2171    1.9050    3.5047 C   0  0  2  0  0  0  0  0  0  0  0  0
   -0.1403    1.8877    4.6188 C   0  0  0  0  0  0  0  0  0  0  0  0
   -0.4346    1.8753    5.8097 O   0  0  0  0  0  0  0  0  0  0  0  0
   -2.6409    1.7335    4.0479 C   0  0  0  0  0  0  0  0  0  0  0  0
   -1.6034    0.0255    2.5165 H   0  0  0  0  0  0  0  0  0  0  0  0
   -1.1592    2.8855    3.0210 H   0  0  0  0  0  0  0  0  0  0  0  0
   -2.7448    0.7698    4.5570 H   0  0  0  0  0  0  0  0  0  0  0  0
   -2.8745    2.5303    4.7611 H   0  0  0  0  0  0  0  0  0  0  0  0
   -3.3684    1.7785    3.2313 H   0  0  0  0  0  0  0  0  0  0  0  0
    1.1939    1.9247    4.2634 N   0  0  0  0  0  0  0  0  0  0  0  0
    2.2980    1.9424    5.2109 C   0  0  0  0  0  0  0  0  0  0  0  0
    1.3867    1.9727    3.2590 H   0  0  0  0  0  0  0  0  0  0  0  0
    2.2514    2.8399    5.8362 H   0  0  0  0  0  0  0  0  0  0  0  0
    2.2625    1.0581    5.8558 H   0  0  0  0  0  0  0  0  0  0  0  0
    3.2520    1.9419    4.6753 H   0  0  0  0  0  0  0  0  0  0  0  0
  1  2  2  0  0  0  0
  1  3  1  0  0  0  0
  1  7  1  0  0  0  0
  3  4  1  0  0  0  0
  3  5  1  0  0  0  0
  3  6  1  0  0  0  0
  7  8  1  0  0  0  0
  7 12  1  0  0  0  0
  8  9  1  0  0  0  0
  8 11  1  0  0  0  0
  8 13  1  0  0  0  0
  9 10  2  0  0  0  0
  9 17  1  0  0  0  0
 11 14  1  0  0  0  0
 11 15  1  0  0  0  0
 11 16  1  0  0  0  0
 17 18  1  0  0  0  0
 17 26  1  0  0  0  0
 18 19  1  0  0  0  0
 18 21  1  0  0  0  0
 18 27  1  0  0  0  0
 19 20  2  0  0  0  0
 19 32  1  0  0  0  0
 21 22  1  0  0  0  0
 21 28  1  0  0  0  0
 21 29  1  0  0  0  0
 22 23  1  0  0  0  0
 22 30  1  0  0  0  0
 22 31  1  0  0  0  0
 23 24  1  0  0  0  0
 23 25  2  0  0  0  0
 32 33  1  0  0  0  0
 32 37  1  0  0  0  0
 33 34  1  0  0  0  0
 33 36  1  0  0  0  0
 33 38  1  0  0  0  0
 34 35  2  0  0  0  0
 34 42  1  0  0  0  0
 36 39  1  0  0  0  0
 36 40  1  0  0  0  0
 36 41  1  0  0  0  0
 42 43  1  0  0  0  0
 42 44  1  0  0  0  0
 43 45  1  0  0  0  0
 43 46  1  0  0  0  0
 43 47  1  0  0  0  0
M  CHG  1  24  -1
M  END
$$$$

  -OEChem-05262216243D

 47 46  0     1  0  0  0  0  0999 V2000
   -0.5199   -6.2566   -0.2778 C   0  0  0  0  0  0  0  0  0  0  0  0
    0.2731   -6.9942    0.2923 O   0  0  0  0  0  0  0  0  0  0  0  0
   -1.5821   -6.8329   -1.1950 C   0  0  0  0  0  0  0  0  0  0  0  0
   -1.5238   -6.3562   -2.1775 H   0  0  0  0  0  0  0  0  0  0  0  0
   -1.4395   -7.9102   -1.3139 H   0  0  0  0  0  0  0  0  0  0  0  0
   -2.5738   -6.6491   -0.7739 H   0  0  0  0  0  0  0  0  0  0  0  0
   -0.4536   -4.8940   -0.0977 N   0  0  0  0  0  0  0  0  0  0  0  0
    0.4325   -4.2112    0.8589 C   0  0  2  0  0  0  0  0  0  0  0  0
   -0.2236   -2.9089    1.3699 C   0  0  0  0  0  0  0  0  0  0  0  0
   -1.3715   -2.9245    1.7909 O   0  0  0  0  0  0  0  0  0  0  0  0
    1.7849   -3.9659    0.1761 C   0  0  0  0  0  0  0  0  0  0  0  0
   -1.1942   -4.3447   -0.5455 H   0  0  0  0  0  0  0  0  0  0  0  0
    0.5891   -4.8498    1.7349 H   0  0  0  0  0  0  0  0  0  0  0  0
    1.6663   -3.3058   -0.6893 H   0  0  0  0  0  0  0  0  0  0  0  0
    2.4939   -3.5119    0.8743 H   0  0  0  0  0  0  0  0  0  0  0  0
    2.2082   -4.9144   -0.1692 H   0  0  0  0  0  0  0  0  0  0  0  0
    0.4283   -1.6909    1.4422 N   0  0  0  0  0  0  0  0  0  0  0  0
   -0.0186   -0.4925    0.6835 C   0  0  2  0  0  0  0  0  0  0  0  0
   -0.0215    0.7434    1.5945 C   0  0  0  0  0  0  0  0  0  0  0  0
    0.5588    1.7754    1.2762 O   0  0  0  0  0  0  0  0  0  0  0  0
   -1.2838   -0.6195   -0.1983 C   0  0  0  0  0  0  0  0  0  0  0  0
   -1.0410   -1.5668   -1.3939 C   0  0  0  0  0  0  0  0  0  0  0  0
   -2.2727   -1.7445   -2.2732 C   0  0  0  0  0  0  0  0  0  0  0  0
   -2.8060   -0.7278   -2.7791 O   0  5  0  0  0  0  0  0  0  0  0  0
   -2.6544   -2.9297   -2.4517 O   0  0  0  0  0  0  0  0  0  0  0  0
    1.4342   -1.8157    1.3952 H   0  0  0  0  0  0  0  0  0  0  0  0
    0.7830   -0.2907   -0.0343 H   0  0  0  0  0  0  0  0  0  0  0  0
   -1.5474    0.3686   -0.5922 H   0  0  0  0  0  0  0  0  0  0  0  0
   -2.1373   -0.9646    0.3935 H   0  0  0  0  0  0  0  0  0  0  0  0
   -0.2446   -1.1480   -2.0157 H   0  0  0  0  0  0  0  0  0  0  0  0
   -0.7080   -2.5456   -1.0721 H   0  0  0  0  0  0  0  0  0  0  0  0
   -0.5616    0.6308    2.8604 N   0  0  0  0  0  0  0  0  0  0  0  0
   -0.6376    1.7182    3.8466 C   0  0  2  0  0  0  0  0  0  0  0  0
    0.7087    1.9749    4.5710 C   0  0  0  0  0  0  0  0  0  0  0  0
    0.7964    1.9955    5.7944 O   0  0  0  0  0  0  0  0  0  0  0  0
   -1.7774    1.3711    4.8121 C   0  0  0  0  0  0  0  0  0  0  0  0
   -0.9898   -0.2692    3.0783 H   0  0  0  0  0  0  0  0  0  0  0  0
   -0.9064    2.6470    3.3326 H   0  0  0  0  0  0  0  0  0  0  0  0
   -1.5522    0.4499    5.3592 H   0  0  0  0  0  0  0  0  0  0  0  0
   -1.9212    2.1786    5.5366 H   0  0  0  0  0  0  0  0  0  0  0  0
   -2.7132    1.2320    4.2620 H   0  0  0  0  0  0  0  0  0  0  0  0
    1.8406    2.2262    3.8200 N   0  0  0  0  0  0  0  0  0  0  0  0
    3.1509    2.5251    4.3783 C   0  0  0  0  0  0  0  0  0  0  0  0
    1.7096    2.2335    2.8043 H   0  0  0  0  0  0  0  0  0  0  0  0
    3.1165    3.4522    4.9592 H   0  0  0  0  0  0  0  0  0  0  0  0
    3.4851    1.7114    5.0299 H   0  0  0  0  0  0  0  0  0  0  0  0
    3.8829    2.6463    3.5742 H   0  0  0  0  0  0  0  0  0  0  0  0
  1  2  2  0  0  0  0
  1  3  1  0  0  0  0
  1  7  1  0  0  0  0
  3  4  1  0  0  0  0
  3  5  1  0  0  0  0
  3  6  1  0  0  0  0
  7  8  1  0  0  0  0
  7 12  1  0  0  0  0
  8  9  1  0  0  0  0
  8 11  1  0  0  0  0
  8 13  1  0  0  0  0
  9 10  2  0  0  0  0
  9 17  1  0  0  0  0
 11 14  1  0  0  0  0
 11 15  1  0  0  0  0
 11 16  1  0  0  0  0
 17 18  1  0  0  0  0
 17 26  1  0  0  0  0
 18 19  1  0  0  0  0
 18 21  1  0  0  0  0
 18 27  1  0  0  0  0
 19 20  2  0  0  0  0
 19 32  1  0  0  0  0
 21 22  1  0  0  0  0
 21 28  1  0  0  0  0
 21 29  1  0  0  0  0
 22 23  1  0  0  0  0
 22 30  1  0  0  0  0
 22 31  1  0  0  0  0
 23 24  1  0  0  0  0
 23 25  2  0  0  0  0
 32 33  1  0  0  0  0
 32 37  1  0  0  0  0
 33 34  1  0  0  0  0
 33 36  1  0  0  0  0
 33 38  1  0  0  0  0
 34 35  2  0  0  0  0
 34 42  1  0  0  0  0
 36 39  1  0  0  0  0
 36 40  1  0  0  0  0
 36 41  1  0  0  0  0
 42 43  1  0  0  0  0
 42 44  1  0  0  0  0
 43 45  1  0  0  0  0
 43 46  1  0  0  0  0
 43 47  1  0  0  0  0
M  CHG  1  24  -1
M  END
$$$$

  -OEChem-05262216243D

 47 46  0     1  0  0  0  0  0999 V2000
   -0.8039   -6.2860   -0.2792 C   0  0  0  0  0  0  0  0  0  0  0  0
   -0.0648   -7.0942    0.2675 O   0  0  0  0  0  0  0  0  0  0  0  0
   -1.9220   -6.7602   -1.1885 C   0  0  0  0  0  0  0  0  0  0  0  0
   -1.8479   -6.2628   -2.1594 H   0  0  0  0  0  0  0  0  0  0  0  0
   -1.8592   -7.8411   -1.3373 H   0  0  0  0  0  0  0  0  0  0  0  0
   -2.8903   -6.5174   -0.7432 H   0  0  0  0  0  0  0  0  0  0  0  0
   -0.6274   -4.9366   -0.0758 N   0  0  0  0  0  0  0  0  0  0  0  0
    0.3279   -4.3413    0.8734 C   0  0  2  0  0  0  0  0  0  0  0  0
   -0.2068   -2.9920    1.4057 C   0  0  0  0  0  0  0  0  0  0  0  0
   -1.3366   -2.9209    1.8670 O   0  0  0  0  0  0  0  0  0  0  0  0
    1.6894   -4.2073    0.1773 C   0  0  0  0  0  0  0  0  0  0  0  0
   -1.3211   -4.3215   -0.5145 H   0  0  0  0  0  0  0  0  0  0  0  0
    0.4397   -5.0008    1.7405 H   0  0  0  0  0  0  0  0  0  0  0  0
    1.6196   -3.5318   -0.6813 H   0  0  0  0  0  0  0  0  0  0  0  0
    2.4417   -3.8223    0.8717 H   0  0  0  0  0  0  0  0  0  0  0  0
    2.0266   -5.1854   -0.1806 H   0  0  0  0  0  0  0  0  0  0  0  0
    0.5392   -1.8277    1.4733 N   0  0  0  0  0  0  0  0  0  0  0  0
    0.1791   -0.5962    0.7161 C   0  0  2  0  0  0  0  0  0  0  0  0
    0.2723    0.6495    1.6123 C   0  0  0  0  0  0  0  0  0  0  0  0
    0.6834    1.7206    1.1812 O   0  0  0  0  0  0  0  0  0  0  0  0
   -1.0910   -0.6454   -0.1669 C   0  0  0  0  0  0  0  0  0  0  0  0
   -0.9016   -1.6085   -1.3598 C   0  0  0  0  0  0  0  0  0  0  0  0
   -2.1363   -1.7176   -2.2443 C   0  0  0  0  0  0  0  0  0  0  0  0
   -2.5721   -0.6857   -2.8085 O   0  5  0  0  0  0  0  0  0  0  0  0
   -2.6201   -2.8727   -2.3662 O   0  0  0  0  0  0  0  0  0  0  0  0
    1.5306   -2.0341    1.4052 H   0  0  0  0  0  0  0  0  0  0  0  0
    0.9931   -0.4546   -0.0022 H   0  0  0  0  0  0  0  0  0  0  0  0
   -1.2946    0.3560   -0.5629 H   0  0  0  0  0  0  0  0  0  0  0  0
   -1.9642   -0.9369    0.4250 H   0  0  0  0  0  0  0  0  0  0  0  0
   -0.0819   -1.2359   -1.9805 H   0  0  0  0  0  0  0  0  0  0  0  0
   -0.6224   -2.6029   -1.0396 H   0  0  0  0  0  0  0  0  0  0  0  0
    0.0273    0.5177    2.9650 N   0  0  0  0  0  0  0  0  0  0  0  0
    0.0158    1.6275    3.9284 C   0  0  2  0  0  0  0  0  0  0  0  0
    1.4370    2.0469    4.3821 C   0  0  0  0  0  0  0  0  0  0  0  0
    1.7478    2.1179    5.5668 O   0  0  0  0  0  0  0  0  0  0  0  0
   -0.8837    1.1971    5.0935 C   0  0  0  0  0  0  0  0  0  0  0  0
   -0.3388   -0.3896    3.2522 H   0  0  0  0  0  0  0  0  0  0  0  0
   -0.4414    2.5047    3.4587 H   0  0  0  0  0  0  0  0  0  0  0  0
   -0.4600    0.3272    5.6058 H   0  0  0  0  0  0  0  0  0  0  0  0
   -0.9850    2.0119    5.8172 H   0  0  0  0  0  0  0  0  0  0  0  0
   -1.8819    0.9361    4.7278 H   0  0  0  0  0  0  0  0  0  0  0  0
    2.3778    2.3753    3.4257 N   0  0  0  0  0  0  0  0  0  0  0  0
    3.7342    2.8122    3.7197 C   0  0  0  0  0  0  0  0  0  0  0  0
    2.0603    2.3291    2.4528 H   0  0  0  0  0  0  0  0  0  0  0  0
    3.7194    3.7532    4.2787 H   0  0  0  0  0  0  0  0  0  0  0  0
    4.2605    2.0566    4.3118 H   0  0  0  0  0  0  0  0  0  0  0  0
    4.2876    2.9694    2.7892 H   0  0  0  0  0  0  0  0  0  0  0  0
  1  2  2  0  0  0  0
  1  3  1  0  0  0  0
  1  7  1  0  0  0  0
  3  4  1  0  0  0  0
  3  5  1  0  0  0  0
  3  6  1  0  0  0  0
  7  8  1  0  0  0  0
  7 12  1  0  0  0  0
  8  9  1  0  0  0  0
  8 11  1  0  0  0  0
  8 13  1  0  0  0  0
  9 10  2  0  0  0  0
  9 17  1  0  0  0  0
 11 14  1  0  0  0  0
 11 15  1  0  0  0  0
 11 16  1  0  0  0  0
 17 18  1  0  0  0  0
 17 26  1  0  0  0  0
 18 19  1  0  0  0  0
 18 21  1  0  0  0  0
 18 27  1  0  0  0  0
 19 20  2  0  0  0  0
 19 32  1  0  0  0  0
 21 22  1  0  0  0  0
 21 28  1  0  0  0  0
 21 29  1  0  0  0  0
 22 23  1  0  0  0  0
 22 30  1  0  0  0  0
 22 31  1  0  0  0  0
 23 24  1  0  0  0  0
 23 25  2  0  0  0  0
 32 33  1  0  0  0  0
 32 37  1  0  0  0  0
 33 34  1  0  0  0  0
 33 36  1  0  0  0  0
 33 38  1  0  0  0  0
 34 35  2  0  0  0  0
 34 42  1  0  0  0  0
 36 39  1  0  0  0  0
 36 40  1  0  0  0  0
 36 41  1  0  0  0  0
 42 43  1  0  0  0  0
 42 44  1  0  0  0  0
 43 45  1  0  0  0  0
 43 46  1  0  0  0  0
 43 47  1  0  0  0  0
M  CHG  1  24  -1
M  END
$$$$

  -OEChem-05262216243D

 47 46  0     1  0  0  0  0  0999 V2000
   -1.0462   -6.2466   -0.2986 C   0  0  0  0  0  0  0  0  0  0  0  0
   -0.3897   -7.1205    0.2526 O   0  0  0  0  0  0  0  0  0  0  0  0
   -2.1506   -6.6124   -1.2722 C   0  0  0  0  0  0  0  0  0  0  0  0
   -1.9409   -6.1761   -2.2527 H   0  0  0  0  0  0  0  0  0  0  0  0
   -2.2259   -7.6981   -1.3743 H   0  0  0  0  0  0  0  0  0  0  0  0
   -3.1059   -6.2213   -0.9130 H   0  0  0  0  0  0  0  0  0  0  0  0
   -0.7819   -4.9193   -0.0502 N   0  0  0  0  0  0  0  0  0  0  0  0
    0.1947   -4.4156    0.9307 C   0  0  2  0  0  0  0  0  0  0  0  0
   -0.2265   -3.0241    1.4573 C   0  0  0  0  0  0  0  0  0  0  0  0
   -1.3367   -2.8700    1.9441 O   0  0  0  0  0  0  0  0  0  0  0  0
    1.5850   -4.4062    0.2801 C   0  0  0  0  0  0  0  0  0  0  0  0
   -1.4060   -4.2449   -0.5072 H   0  0  0  0  0  0  0  0  0  0  0  0
    0.2159   -5.0859    1.7963 H   0  0  0  0  0  0  0  0  0  0  0  0
    1.6043   -3.7307   -0.5812 H   0  0  0  0  0  0  0  0  0  0  0  0
    2.3448   -4.0874    0.9996 H   0  0  0  0  0  0  0  0  0  0  0  0
    1.8458   -5.4116   -0.0655 H   0  0  0  0  0  0  0  0  0  0  0  0
    0.6084   -1.9184    1.5028 N   0  0  0  0  0  0  0  0  0  0  0  0
    0.3203   -0.6632    0.7501 C   0  0  2  0  0  0  0  0  0  0  0  0
    0.5230    0.5900    1.6211 C   0  0  0  0  0  0  0  0  0  0  0  0
    0.7287    1.6897    1.1217 O   0  0  0  0  0  0  0  0  0  0  0  0
   -0.9498   -0.6461   -0.1352 C   0  0  0  0  0  0  0  0  0  0  0  0
   -0.7940   -1.6188   -1.3249 C   0  0  0  0  0  0  0  0  0  0  0  0
   -2.0217   -1.6784   -2.2221 C   0  0  0  0  0  0  0  0  0  0  0  0
   -2.3926   -0.6422   -2.8232 O   0  5  0  0  0  0  0  0  0  0  0  0
   -2.5659   -2.8095   -2.3157 O   0  0  0  0  0  0  0  0  0  0  0  0
    1.5768   -2.2038    1.3961 H   0  0  0  0  0  0  0  0  0  0  0  0
    1.1373   -0.5827    0.0262 H   0  0  0  0  0  0  0  0  0  0  0  0
   -1.1027    0.3634   -0.5332 H   0  0  0  0  0  0  0  0  0  0  0  0
   -1.8401   -0.8942    0.4512 H   0  0  0  0  0  0  0  0  0  0  0  0
    0.0448   -1.2807   -1.9401 H   0  0  0  0  0  0  0  0  0  0  0  0
   -0.5539   -2.6217   -1.0028 H   0  0  0  0  0  0  0  0  0  0  0  0
    0.6159    0.4544    2.9928 N   0  0  0  0  0  0  0  0  0  0  0  0
    0.7180    1.5764    3.9374 C   0  0  2  0  0  0  0  0  0  0  0  0
    2.1569    2.1416    4.0476 C   0  0  0  0  0  0  0  0  0  0  0  0
    2.7560    2.1925    5.1172 O   0  0  0  0  0  0  0  0  0  0  0  0
    0.1651    1.0832    5.2798 C   0  0  0  0  0  0  0  0  0  0  0  0
    0.3607   -0.4644    3.3507 H   0  0  0  0  0  0  0  0  0  0  0  0
    0.0774    2.3954    3.5935 H   0  0  0  0  0  0  0  0  0  0  0  0
    0.7828    0.2704    5.6748 H   0  0  0  0  0  0  0  0  0  0  0  0
    0.1557    1.8992    6.0092 H   0  0  0  0  0  0  0  0  0  0  0  0
   -0.8595    0.7178    5.1590 H   0  0  0  0  0  0  0  0  0  0  0  0
    2.7801    2.6167    2.9103 N   0  0  0  0  0  0  0  0  0  0  0  0
    4.1364    3.1417    2.8715 C   0  0  0  0  0  0  0  0  0  0  0  0
    2.2494    2.5241    2.0386 H   0  0  0  0  0  0  0  0  0  0  0  0
    4.2343    3.9985    3.5457 H   0  0  0  0  0  0  0  0  0  0  0  0
    4.8532    2.3704    3.1710 H   0  0  0  0  0  0  0  0  0  0  0  0
    4.3825    3.4699    1.8570 H   0  0  0  0  0  0  0  0  0  0  0  0
  1  2  2  0  0  0  0
  1  3  1  0  0  0  0
  1  7  1  0  0  0  0
  3  4  1  0  0  0  0
  3  5  1  0  0  0  0
  3  6  1  0  0  0  0
  7  8  1  0  0  0  0
  7 12  1  0  0  0  0
  8  9  1  0  0  0  0
  8 11  1  0  0  0  0
  8 13  1  0  0  0  0
  9 10  2  0  0  0  0
  9 17  1  0  0  0  0
 11 14  1  0  0  0  0
 11 15  1  0  0  0  0
 11 16  1  0  0  0  0
 17 18  1  0  0  0  0
 17 26  1  0  0  0  0
 18 19  1  0  0  0  0
 18 21  1  0  0  0  0
 18 27  1  0  0  0  0
 19 20  2  0  0  0  0
 19 32  1  0  0  0  0
 21 22  1  0  0  0  0
 21 28  1  0  0  0  0
 21 29  1  0  0  0  0
 22 23  1  0  0  0  0
 22 30  1  0  0  0  0
 22 31  1  0  0  0  0
 23 24  1  0  0  0  0
 23 25  2  0  0  0  0
 32 33  1  0  0  0  0
 32 37  1  0  0  0  0
 33 34  1  0  0  0  0
 33 36  1  0  0  0  0
 33 38  1  0  0  0  0
 34 35  2  0  0  0  0
 34 42  1  0  0  0  0
 36 39  1  0  0  0  0
 36 40  1  0  0  0  0
 36 41  1  0  0  0  0
 42 43  1  0  0  0  0
 42 44  1  0  0  0  0
 43 45  1  0  0  0  0
 43 46  1  0  0  0  0
 43 47  1  0  0  0  0
M  CHG  1  24  -1
M  END
$$$$

  -OEChem-05262216243D

 47 46  0     1  0  0  0  0  0999 V2000
   -0.0273   -6.4705    0.8604 C   0  0  0  0  0  0  0  0  0  0  0  0
    1.1457   -6.7706    1.0309 O   0  0  0  0  0  0  0  0  0  0  0  0
   -1.1215   -7.4760    1.1664 C   0  0  0  0  0  0  0  0  0  0  0  0
   -1.7284   -7.6490    0.2738 H   0  0  0  0  0  0  0  0  0  0  0  0
   -0.6846   -8.4256    1.4874 H   0  0  0  0  0  0  0  0  0  0  0  0
   -1.7632   -7.0944    1.9645 H   0  0  0  0  0  0  0  0  0  0  0  0
   -0.3673   -5.2165    0.4048 N   0  0  0  0  0  0  0  0  0  0  0  0
    0.5709   -4.0969    0.2657 C   0  0  2  0  0  0  0  0  0  0  0  0
   -0.1221   -2.7523    0.5796 C   0  0  0  0  0  0  0  0  0  0  0  0
   -1.2367   -2.7493    1.0849 O   0  0  0  0  0  0  0  0  0  0  0  0
    1.1260   -4.1178   -1.1632 C   0  0  0  0  0  0  0  0  0  0  0  0
   -1.3584   -4.9697    0.4208 H   0  0  0  0  0  0  0  0  0  0  0  0
    1.3966   -4.2111    0.9758 H   0  0  0  0  0  0  0  0  0  0  0  0
    0.3155   -4.0027   -1.8904 H   0  0  0  0  0  0  0  0  0  0  0  0
    1.8459   -3.3084   -1.3133 H   0  0  0  0  0  0  0  0  0  0  0  0
    1.6325   -5.0686   -1.3572 H   0  0  0  0  0  0  0  0  0  0  0  0
    0.5707   -1.5588    0.4783 N   0  0  0  0  0  0  0  0  0  0  0  0
    0.0451   -0.2953   -0.1085 C   0  0  2  0  0  0  0  0  0  0  0  0
    0.3793    0.9147    0.7924 C   0  0  0  0  0  0  0  0  0  0  0  0
    0.1916    2.0653    0.4177 O   0  0  0  0  0  0  0  0  0  0  0  0
   -1.4187   -0.2756   -0.6199 C   0  0  0  0  0  0  0  0  0  0  0  0
   -1.6147   -1.1844   -1.8562 C   0  0  0  0  0  0  0  0  0  0  0  0
   -3.0593   -1.1970   -2.3613 C   0  0  0  0  0  0  0  0  0  0  0  0
   -3.6389   -0.0947   -2.5268 O   0  5  0  0  0  0  0  0  0  0  0  0
   -3.5515   -2.3148   -2.6571 O   0  0  0  0  0  0  0  0  0  0  0  0
    1.5498   -1.7168    0.2612 H   0  0  0  0  0  0  0  0  0  0  0  0
    0.6442   -0.1251   -1.0078 H   0  0  0  0  0  0  0  0  0  0  0  0
   -1.6851    0.7476   -0.9078 H   0  0  0  0  0  0  0  0  0  0  0  0
   -2.1082   -0.5671    0.1785 H   0  0  0  0  0  0  0  0  0  0  0  0
   -0.9720   -0.8277   -2.6656 H   0  0  0  0  0  0  0  0  0  0  0  0
   -1.3245   -2.2106   -1.6333 H   0  0  0  0  0  0  0  0  0  0  0  0
    1.0784    0.7199    1.9683 N   0  0  0  0  0  0  0  0  0  0  0  0
    1.5870    1.7804    2.8441 C   0  0  2  0  0  0  0  0  0  0  0  0
    2.9058    1.3799    3.5390 C   0  0  0  0  0  0  0  0  0  0  0  0
    3.2780    0.2108    3.5575 O   0  0  0  0  0  0  0  0  0  0  0  0
    0.5033    2.0985    3.8776 C   0  0  0  0  0  0  0  0  0  0  0  0
    1.2356   -0.2469    2.2472 H   0  0  0  0  0  0  0  0  0  0  0  0
    1.7928    2.6785    2.2523 H   0  0  0  0  0  0  0  0  0  0  0  0
    0.2848    1.2157    4.4871 H   0  0  0  0  0  0  0  0  0  0  0  0
    0.8259    2.9085    4.5381 H   0  0  0  0  0  0  0  0  0  0  0  0
   -0.4175    2.4097    3.3736 H   0  0  0  0  0  0  0  0  0  0  0  0
    3.6907    2.3449    4.1448 N   0  0  0  0  0  0  0  0  0  0  0  0
    4.9587    2.0517    4.8004 C   0  0  0  0  0  0  0  0  0  0  0  0
    3.3709    3.3078    4.0940 H   0  0  0  0  0  0  0  0  0  0  0  0
    4.8157    1.3159    5.5987 H   0  0  0  0  0  0  0  0  0  0  0  0
    5.6799    1.6541    4.0787 H   0  0  0  0  0  0  0  0  0  0  0  0
    5.3750    2.9623    5.2410 H   0  0  0  0  0  0  0  0  0  0  0  0
  1  2  2  0  0  0  0
  1  3  1  0  0  0  0
  1  7  1  0  0  0  0
  3  4  1  0  0  0  0
  3  5  1  0  0  0  0
  3  6  1  0  0  0  0
  7  8  1  0  0  0  0
  7 12  1  0  0  0  0
  8  9  1  0  0  0  0
  8 11  1  0  0  0  0
  8 13  1  0  0  0  0
  9 10  2  0  0  0  0
  9 17  1  0  0  0  0
 11 14  1  0  0  0  0
 11 15  1  0  0  0  0
 11 16  1  0  0  0  0
 17 18  1  0  0  0  0
 17 26  1  0  0  0  0
 18 19  1  0  0  0  0
 18 21  1  0  0  0  0
 18 27  1  0  0  0  0
 19 20  2  0  0  0  0
 19 32  1  0  0  0  0
 21 22  1  0  0  0  0
 21 28  1  0  0  0  0
 21 29  1  0  0  0  0
 22 23  1  0  0  0  0
 22 30  1  0  0  0  0
 22 31  1  0  0  0  0
 23 24  1  0  0  0  0
 23 25  2  0  0  0  0
 32 33  1  0  0  0  0
 32 37  1  0  0  0  0
 33 34  1  0  0  0  0
 33 36  1  0  0  0  0
 33 38  1  0  0  0  0
 34 35  2  0  0  0  0
 34 42  1  0  0  0  0
 36 39  1  0  0  0  0
 36 40  1  0  0  0  0
 36 41  1  0  0  0  0
 42 43  1  0  0  0  0
 42 44  1  0  0  0  0
 43 45  1  0  0  0  0
 43 46  1  0  0  0  0
 43 47  1  0  0  0  0
M  CHG  1  24  -1
M  END
$$$$

  -OEChem-05262216243D

 47 46  0     1  0  0  0  0  0999 V2000
    0.1905   -6.3033    1.1752 C   0  0  0  0  0  0  0  0  0  0  0  0
    1.3911   -6.5053    1.2872 O   0  0  0  0  0  0  0  0  0  0  0  0
   -0.8040   -7.2950    1.7504 C   0  0  0  0  0  0  0  0  0  0  0  0
   -1.4471   -7.6807    0.9554 H   0  0  0  0  0  0  0  0  0  0  0  0
   -0.2779   -8.1322    2.2171 H   0  0  0  0  0  0  0  0  0  0  0  0
   -1.4251   -6.8043    2.5039 H   0  0  0  0  0  0  0  0  0  0  0  0
   -0.2716   -5.1726    0.5386 N   0  0  0  0  0  0  0  0  0  0  0  0
    0.5683   -4.0354    0.1433 C   0  0  2  0  0  0  0  0  0  0  0  0
   -0.1435   -2.6920    0.4165 C   0  0  0  0  0  0  0  0  0  0  0  0
   -1.2645   -2.6937    0.9071 O   0  0  0  0  0  0  0  0  0  0  0  0
    0.8975   -4.1834   -1.3450 C   0  0  0  0  0  0  0  0  0  0  0  0
   -1.2709   -4.9772    0.6148 H   0  0  0  0  0  0  0  0  0  0  0  0
    1.4981   -4.0368    0.7215 H   0  0  0  0  0  0  0  0  0  0  0  0
   -0.0210   -4.1821   -1.9417 H   0  0  0  0  0  0  0  0  0  0  0  0
    1.5335   -3.3608   -1.6845 H   0  0  0  0  0  0  0  0  0  0  0  0
    1.4263   -5.1252   -1.5224 H   0  0  0  0  0  0  0  0  0  0  0  0
    0.5545   -1.5003    0.3214 N   0  0  0  0  0  0  0  0  0  0  0  0
    0.0329   -0.2141   -0.2190 C   0  0  2  0  0  0  0  0  0  0  0  0
    0.4125    0.9649    0.7092 C   0  0  0  0  0  0  0  0  0  0  0  0
    0.0092    2.1047    0.5161 O   0  0  0  0  0  0  0  0  0  0  0  0
   -1.4356   -0.1681   -0.7185 C   0  0  0  0  0  0  0  0  0  0  0  0
   -1.6402   -1.0362   -1.9829 C   0  0  0  0  0  0  0  0  0  0  0  0
   -3.0855   -1.0313   -2.4877 C   0  0  0  0  0  0  0  0  0  0  0  0
   -3.6845    0.0705   -2.5641 O   0  5  0  0  0  0  0  0  0  0  0  0
   -3.5555   -2.1283   -2.8814 O   0  0  0  0  0  0  0  0  0  0  0  0
    1.5271   -1.6648    0.0812 H   0  0  0  0  0  0  0  0  0  0  0  0
    0.6207   -0.0248   -1.1218 H   0  0  0  0  0  0  0  0  0  0  0  0
   -1.7004    0.8640   -0.9731 H   0  0  0  0  0  0  0  0  0  0  0  0
   -2.1213   -0.4817    0.0742 H   0  0  0  0  0  0  0  0  0  0  0  0
   -0.9992   -0.6558   -2.7830 H   0  0  0  0  0  0  0  0  0  0  0  0
   -1.3516   -2.0698   -1.7915 H   0  0  0  0  0  0  0  0  0  0  0  0
    1.3850    0.7867    1.6760 N   0  0  0  0  0  0  0  0  0  0  0  0
    1.8950    1.8317    2.5693 C   0  0  2  0  0  0  0  0  0  0  0  0
    3.3308    1.5329    3.0479 C   0  0  0  0  0  0  0  0  0  0  0  0
    3.8004    0.4025    2.9592 O   0  0  0  0  0  0  0  0  0  0  0  0
    0.9433    1.9492    3.7644 C   0  0  0  0  0  0  0  0  0  0  0  0
    1.6896   -0.1688    1.8462 H   0  0  0  0  0  0  0  0  0  0  0  0
    1.9218    2.7868    2.0343 H   0  0  0  0  0  0  0  0  0  0  0  0
    0.8988    1.0028    4.3126 H   0  0  0  0  0  0  0  0  0  0  0  0
    1.2787    2.7340    4.4486 H   0  0  0  0  0  0  0  0  0  0  0  0
   -0.0661    2.1998    3.4221 H   0  0  0  0  0  0  0  0  0  0  0  0
    4.1062    2.5472    3.5803 N   0  0  0  0  0  0  0  0  0  0  0  0
    5.4775    2.3572    4.0341 C   0  0  0  0  0  0  0  0  0  0  0  0
    3.6974    3.4763    3.6185 H   0  0  0  0  0  0  0  0  0  0  0  0
    5.5121    1.6333    4.8548 H   0  0  0  0  0  0  0  0  0  0  0  0
    6.1050    1.9927    3.2141 H   0  0  0  0  0  0  0  0  0  0  0  0
    5.8913    3.3053    4.3908 H   0  0  0  0  0  0  0  0  0  0  0  0
  1  2  2  0  0  0  0
  1  3  1  0  0  0  0
  1  7  1  0  0  0  0
  3  4  1  0  0  0  0
  3  5  1  0  0  0  0
  3  6  1  0  0  0  0
  7  8  1  0  0  0  0
  7 12  1  0  0  0  0
  8  9  1  0  0  0  0
  8 11  1  0  0  0  0
  8 13  1  0  0  0  0
  9 10  2  0  0  0  0
  9 17  1  0  0  0  0
 11 14  1  0  0  0  0
 11 15  1  0  0  0  0
 11 16  1  0  0  0  0
 17 18  1  0  0  0  0
 17 26  1  0  0  0  0
 18 19  1  0  0  0  0
 18 21  1  0  0  0  0
 18 27  1  0  0  0  0
 19 20  2  0  0  0  0
 19 32  1  0  0  0  0
 21 22  1  0  0  0  0
 21 28  1  0  0  0  0
 21 29  1  0  0  0  0
 22 23  1  0  0  0  0
 22 30  1  0  0  0  0
 22 31  1  0  0  0  0
 23 24  1  0  0  0  0
 23 25  2  0  0  0  0
 32 33  1  0  0  0  0
 32 37  1  0  0  0  0
 33 34  1  0  0  0  0
 33 36  1  0  0  0  0
 33 38  1  0  0  0  0
 34 35  2  0  0  0  0
 34 42  1  0  0  0  0
 36 39  1  0  0  0  0
 36 40  1  0  0  0  0
 36 41  1  0  0  0  0
 42 43  1  0  0  0  0
 42 44  1  0  0  0  0
 43 45  1  0  0  0  0
 43 46  1  0  0  0  0
 43 47  1  0  0  0  0
M  CHG  1  24  -1
M  END
$$$$

  -OEChem-05262216243D

 47 46  0     1  0  0  0  0  0999 V2000
    0.2234   -6.2251    1.2753 C   0  0  0  0  0  0  0  0  0  0  0  0
    1.4239   -6.3990    1.4277 O   0  0  0  0  0  0  0  0  0  0  0  0
   -0.7673   -7.1912    1.8992 C   0  0  0  0  0  0  0  0  0  0  0  0
   -1.4176   -7.6095    1.1267 H   0  0  0  0  0  0  0  0  0  0  0  0
   -0.2378   -8.0088    2.3962 H   0  0  0  0  0  0  0  0  0  0  0  0
   -1.3812   -6.6681    2.6368 H   0  0  0  0  0  0  0  0  0  0  0  0
   -0.2427   -5.1475    0.5548 N   0  0  0  0  0  0  0  0  0  0  0  0
    0.5842   -4.0091    0.1358 C   0  0  2  0  0  0  0  0  0  0  0  0
   -0.1259   -2.6676    0.4250 C   0  0  0  0  0  0  0  0  0  0  0  0
   -1.2406   -2.6753    0.9300 O   0  0  0  0  0  0  0  0  0  0  0  0
    0.8735   -4.1637   -1.3603 C   0  0  0  0  0  0  0  0  0  0  0  0
   -1.2453   -4.9619    0.6120 H   0  0  0  0  0  0  0  0  0  0  0  0
    1.5296   -4.0034    0.6879 H   0  0  0  0  0  0  0  0  0  0  0  0
   -0.0606   -4.1644   -1.9322 H   0  0  0  0  0  0  0  0  0  0  0  0
    1.5005   -3.3432   -1.7210 H   0  0  0  0  0  0  0  0  0  0  0  0
    1.3958   -5.1070   -1.5482 H   0  0  0  0  0  0  0  0  0  0  0  0
    0.5660   -1.4728    0.3173 N   0  0  0  0  0  0  0  0  0  0  0  0
    0.0260   -0.1955   -0.2242 C   0  0  2  0  0  0  0  0  0  0  0  0
    0.4060    0.9929    0.6937 C   0  0  0  0  0  0  0  0  0  0  0  0
   -0.2093    2.0515    0.6954 O   0  0  0  0  0  0  0  0  0  0  0  0
   -1.4420   -0.1731   -0.7281 C   0  0  0  0  0  0  0  0  0  0  0  0
   -1.6255   -1.0453   -1.9929 C   0  0  0  0  0  0  0  0  0  0  0  0
   -3.0690   -1.0629   -2.5008 C   0  0  0  0  0  0  0  0  0  0  0  0
   -3.6490    0.0391   -2.6667 O   0  5  0  0  0  0  0  0  0  0  0  0
   -3.5535   -2.1797   -2.8133 O   0  0  0  0  0  0  0  0  0  0  0  0
    1.5318   -1.6375    0.0539 H   0  0  0  0  0  0  0  0  0  0  0  0
    0.6084   -0.0044   -1.1299 H   0  0  0  0  0  0  0  0  0  0  0  0
   -1.7234    0.8534   -0.9875 H   0  0  0  0  0  0  0  0  0  0  0  0
   -2.1257   -0.4955    0.0627 H   0  0  0  0  0  0  0  0  0  0  0  0
   -0.9895   -0.6548   -2.7921 H   0  0  0  0  0  0  0  0  0  0  0  0
   -1.3191   -2.0734   -1.8001 H   0  0  0  0  0  0  0  0  0  0  0  0
    1.5797    0.9428    1.4249 N   0  0  0  0  0  0  0  0  0  0  0  0
    2.1027    2.0289    2.2617 C   0  0  2  0  0  0  0  0  0  0  0  0
    3.6297    1.9237    2.4534 C   0  0  0  0  0  0  0  0  0  0  0  0
    4.2208    0.8770    2.2045 O   0  0  0  0  0  0  0  0  0  0  0  0
    1.3902    1.9869    3.6179 C   0  0  0  0  0  0  0  0  0  0  0  0
    2.0823    0.0595    1.4376 H   0  0  0  0  0  0  0  0  0  0  0  0
    1.8994    2.9896    1.7771 H   0  0  0  0  0  0  0  0  0  0  0  0
    1.5715    1.0288    4.1155 H   0  0  0  0  0  0  0  0  0  0  0  0
    1.7494    2.7915    4.2661 H   0  0  0  0  0  0  0  0  0  0  0  0
    0.3105    2.1102    3.4841 H   0  0  0  0  0  0  0  0  0  0  0  0
    4.3475    3.0157    2.9072 N   0  0  0  0  0  0  0  0  0  0  0  0
    5.7916    3.0038    3.1015 C   0  0  0  0  0  0  0  0  0  0  0  0
    3.8307    3.8704    3.0933 H   0  0  0  0  0  0  0  0  0  0  0  0
    6.0669    2.2857    3.8812 H   0  0  0  0  0  0  0  0  0  0  0  0
    6.3013    2.7289    2.1719 H   0  0  0  0  0  0  0  0  0  0  0  0
    6.1396    3.9960    3.4044 H   0  0  0  0  0  0  0  0  0  0  0  0
  1  2  2  0  0  0  0
  1  3  1  0  0  0  0
  1  7  1  0  0  0  0
  3  4  1  0  0  0  0
  3  5  1  0  0  0  0
  3  6  1  0  0  0  0
  7  8  1  0  0  0  0
  7 12  1  0  0  0  0
  8  9  1  0  0  0  0
  8 11  1  0  0  0  0
  8 13  1  0  0  0  0
  9 10  2  0  0  0  0
  9 17  1  0  0  0  0
 11 14  1  0  0  0  0
 11 15  1  0  0  0  0
 11 16  1  0  0  0  0
 17 18  1  0  0  0  0
 17 26  1  0  0  0  0
 18 19  1  0  0  0  0
 18 21  1  0  0  0  0
 18 27  1  0  0  0  0
 19 20  2  0  0  0  0
 19 32  1  0  0  0  0
 21 22  1  0  0  0  0
 21 28  1  0  0  0  0
 21 29  1  0  0  0  0
 22 23  1  0  0  0  0
 22 30  1  0  0  0  0
 22 31  1  0  0  0  0
 23 24  1  0  0  0  0
 23 25  2  0  0  0  0
 32 33  1  0  0  0  0
 32 37  1  0  0  0  0
 33 34  1  0  0  0  0
 33 36  1  0  0  0  0
 33 38  1  0  0  0  0
 34 35  2  0  0  0  0
 34 42  1  0  0  0  0
 36 39  1  0  0  0  0
 36 40  1  0  0  0  0
 36 41  1  0  0  0  0
 42 43  1  0  0  0  0
 42 44  1  0  0  0  0
 43 45  1  0  0  0  0
 43 46  1  0  0  0  0
 43 47  1  0  0  0  0
M  CHG  1  24  -1
M  END
$$$$

  -OEChem-05262216243D

 47 46  0     1  0  0  0  0  0999 V2000
    0.2720   -6.1463    1.3744 C   0  0  0  0  0  0  0  0  0  0  0  0
    1.4748   -6.2991    1.5327 O   0  0  0  0  0  0  0  0  0  0  0  0
   -0.7071   -7.0993    2.0347 C   0  0  0  0  0  0  0  0  0  0  0  0
   -1.2751   -7.6361    1.2713 H   0  0  0  0  0  0  0  0  0  0  0  0
   -0.1720   -7.8249    2.6534 H   0  0  0  0  0  0  0  0  0  0  0  0
   -1.4006   -6.5395    2.6677 H   0  0  0  0  0  0  0  0  0  0  0  0
   -0.2082   -5.1025    0.6149 N   0  0  0  0  0  0  0  0  0  0  0  0
    0.6008   -3.9616    0.1697 C   0  0  2  0  0  0  0  0  0  0  0  0
   -0.1263   -2.6257    0.4375 C   0  0  0  0  0  0  0  0  0  0  0  0
   -1.2501   -2.6412    0.9219 O   0  0  0  0  0  0  0  0  0  0  0  0
    0.8786   -4.1392   -1.3254 C   0  0  0  0  0  0  0  0  0  0  0  0
   -1.2130   -4.9280    0.6675 H   0  0  0  0  0  0  0  0  0  0  0  0
    1.5503   -3.9320    0.7137 H   0  0  0  0  0  0  0  0  0  0  0  0
   -0.0611   -4.1714   -1.8875 H   0  0  0  0  0  0  0  0  0  0  0  0
    1.4841   -3.3122   -1.7076 H   0  0  0  0  0  0  0  0  0  0  0  0
    1.4196   -5.0743   -1.5005 H   0  0  0  0  0  0  0  0  0  0  0  0
    0.5557   -1.4270    0.3147 N   0  0  0  0  0  0  0  0  0  0  0  0
    0.0063   -0.1604   -0.2385 C   0  0  2  0  0  0  0  0  0  0  0  0
    0.3833    1.0361    0.6685 C   0  0  0  0  0  0  0  0  0  0  0  0
   -0.3895    1.9502    0.9259 O   0  0  0  0  0  0  0  0  0  0  0  0
   -1.4559   -0.1533   -0.7576 C   0  0  0  0  0  0  0  0  0  0  0  0
   -1.6092   -1.0352   -2.0204 C   0  0  0  0  0  0  0  0  0  0  0  0
   -3.0423   -1.0766   -2.5541 C   0  0  0  0  0  0  0  0  0  0  0  0
   -3.6326    0.0168   -2.7398 O   0  5  0  0  0  0  0  0  0  0  0  0
   -3.5033   -2.2015   -2.8732 O   0  0  0  0  0  0  0  0  0  0  0  0
    1.5285   -1.5837    0.0767 H   0  0  0  0  0  0  0  0  0  0  0  0
    0.5904    0.0260   -1.1442 H   0  0  0  0  0  0  0  0  0  0  0  0
   -1.7423    0.8704   -1.0229 H   0  0  0  0  0  0  0  0  0  0  0  0
   -2.1468   -0.4797    0.0259 H   0  0  0  0  0  0  0  0  0  0  0  0
   -0.9642   -0.6433   -2.8115 H   0  0  0  0  0  0  0  0  0  0  0  0
   -1.2934   -2.0580   -1.8146 H   0  0  0  0  0  0  0  0  0  0  0  0
    1.6791    1.1440    1.1434 N   0  0  0  0  0  0  0  0  0  0  0  0
    2.1910    2.2487    1.9625 C   0  0  2  0  0  0  0  0  0  0  0  0
    3.7213    2.3941    1.8318 C   0  0  0  0  0  0  0  0  0  0  0  0
    4.3932    1.4895    1.3447 O   0  0  0  0  0  0  0  0  0  0  0  0
    1.8071    1.9914    3.4235 C   0  0  0  0  0  0  0  0  0  0  0  0
    2.3391    0.4166    0.8829 H   0  0  0  0  0  0  0  0  0  0  0  0
    1.7396    3.1893    1.6294 H   0  0  0  0  0  0  0  0  0  0  0  0
    2.2598    1.0602    3.7791 H   0  0  0  0  0  0  0  0  0  0  0  0
    2.1485    2.8122    4.0609 H   0  0  0  0  0  0  0  0  0  0  0  0
    0.7199    1.9094    3.5223 H   0  0  0  0  0  0  0  0  0  0  0  0
    4.3500    3.5471    2.2666 N   0  0  0  0  0  0  0  0  0  0  0  0
    5.7846    3.7729    2.1482 C   0  0  0  0  0  0  0  0  0  0  0  0
    3.7614    4.2909    2.6309 H   0  0  0  0  0  0  0  0  0  0  0  0
    6.3425    2.9614    2.6272 H   0  0  0  0  0  0  0  0  0  0  0  0
    6.0762    3.8279    1.0945 H   0  0  0  0  0  0  0  0  0  0  0  0
    6.0600    4.7133    2.6350 H   0  0  0  0  0  0  0  0  0  0  0  0
  1  2  2  0  0  0  0
  1  3  1  0  0  0  0
  1  7  1  0  0  0  0
  3  4  1  0  0  0  0
  3  5  1  0  0  0  0
  3  6  1  0  0  0  0
  7  8  1  0  0  0  0
  7 12  1  0  0  0  0
  8  9  1  0  0  0  0
  8 11  1  0  0  0  0
  8 13  1  0  0  0  0
  9 10  2  0  0  0  0
  9 17  1  0  0  0  0
 11 14  1  0  0  0  0
 11 15  1  0  0  0  0
 11 16  1  0  0  0  0
 17 18  1  0  0  0  0
 17 26  1  0  0  0  0
 18 19  1  0  0  0  0
 18 21  1  0  0  0  0
 18 27  1  0  0  0  0
 19 20  2  0  0  0  0
 19 32  1  0  0  0  0
 21 22  1  0  0  0  0
 21 28  1  0  0  0  0
 21 29  1  0  0  0  0
 22 23  1  0  0  0  0
 22 30  1  0  0  0  0
 22 31  1  0  0  0  0
 23 24  1  0  0  0  0
 23 25  2  0  0  0  0
 32 33  1  0  0  0  0
 32 37  1  0  0  0  0
 33 34  1  0  0  0  0
 33 36  1  0  0  0  0
 33 38  1  0  0  0  0
 34 35  2  0  0  0  0
 34 42  1  0  0  0  0
 36 39  1  0  0  0  0
 36 40  1  0  0  0  0
 36 41  1  0  0  0  0
 42 43  1  0  0  0  0
 42 44  1  0  0  0  0
 43 45  1  0  0  0  0
 43 46  1  0  0  0  0
 43 47  1  0  0  0  0
M  CHG  1  24  -1
M  END
$$$$

  -OEChem-05262216243D

 47 46  0     1  0  0  0  0  0999 V2000
    0.2794   -6.1305    1.4196 C   0  0  0  0  0  0  0  0  0  0  0  0
    1.4751   -6.2671    1.6373 O   0  0  0  0  0  0  0  0  0  0  0  0
   -0.7162   -7.1186    1.9992 C   0  0  0  0  0  0  0  0  0  0  0  0
   -1.3148   -7.5579    1.1972 H   0  0  0  0  0  0  0  0  0  0  0  0
   -0.1913   -7.9191    2.5276 H   0  0  0  0  0  0  0  0  0  0  0  0
   -1.3814   -6.6083    2.7006 H   0  0  0  0  0  0  0  0  0  0  0  0
   -0.1775   -5.0781    0.6581 N   0  0  0  0  0  0  0  0  0  0  0  0
    0.6402   -3.9269    0.2582 C   0  0  2  0  0  0  0  0  0  0  0  0
   -0.1286   -2.6016    0.4511 C   0  0  0  0  0  0  0  0  0  0  0  0
   -1.2835   -2.6355    0.8533 O   0  0  0  0  0  0  0  0  0  0  0  0
    1.0323   -4.1167   -1.2098 C   0  0  0  0  0  0  0  0  0  0  0  0
   -1.1863   -4.9180    0.6593 H   0  0  0  0  0  0  0  0  0  0  0  0
    1.5452   -3.8727    0.8718 H   0  0  0  0  0  0  0  0  0  0  0  0
    0.1384   -4.1582   -1.8416 H   0  0  0  0  0  0  0  0  0  0  0  0
    1.6620   -3.2904   -1.5523 H   0  0  0  0  0  0  0  0  0  0  0  0
    1.5893   -5.0507   -1.3339 H   0  0  0  0  0  0  0  0  0  0  0  0
    0.5389   -1.3942    0.3295 N   0  0  0  0  0  0  0  0  0  0  0  0
   -0.0062   -0.1302   -0.2303 C   0  0  2  0  0  0  0  0  0  0  0  0
    0.3608    1.0623    0.6825 C   0  0  0  0  0  0  0  0  0  0  0  0
   -0.4755    1.8001    1.1878 O   0  0  0  0  0  0  0  0  0  0  0  0
   -1.4627   -0.1134   -0.7597 C   0  0  0  0  0  0  0  0  0  0  0  0
   -1.6133   -0.9952   -2.0232 C   0  0  0  0  0  0  0  0  0  0  0  0
   -3.0440   -1.0233   -2.5639 C   0  0  0  0  0  0  0  0  0  0  0  0
   -3.5983    0.0795   -2.8010 O   0  5  0  0  0  0  0  0  0  0  0  0
   -3.5358   -2.1458   -2.8430 O   0  0  0  0  0  0  0  0  0  0  0  0
    1.5302   -1.5267    0.1656 H   0  0  0  0  0  0  0  0  0  0  0  0
    0.5826    0.0537   -1.1333 H   0  0  0  0  0  0  0  0  0  0  0  0
   -1.7403    0.9134   -1.0230 H   0  0  0  0  0  0  0  0  0  0  0  0
   -2.1592   -0.4372    0.0196 H   0  0  0  0  0  0  0  0  0  0  0  0
   -0.9607   -0.6087   -2.8105 H   0  0  0  0  0  0  0  0  0  0  0  0
   -1.3054   -2.0208   -1.8155 H   0  0  0  0  0  0  0  0  0  0  0  0
    1.6956    1.3475    0.9143 N   0  0  0  0  0  0  0  0  0  0  0  0
    2.1848    2.4939    1.6887 C   0  0  2  0  0  0  0  0  0  0  0  0
    3.6068    2.9059    1.2558 C   0  0  0  0  0  0  0  0  0  0  0  0
    4.3032    2.1371    0.5995 O   0  0  0  0  0  0  0  0  0  0  0  0
    2.1700    2.1239    3.1756 C   0  0  0  0  0  0  0  0  0  0  0  0
    2.3901    0.8117    0.3995 H   0  0  0  0  0  0  0  0  0  0  0  0
    1.5269    3.3537    1.5230 H   0  0  0  0  0  0  0  0  0  0  0  0
    2.8234    1.2659    3.3627 H   0  0  0  0  0  0  0  0  0  0  0  0
    2.5146    2.9648    3.7848 H   0  0  0  0  0  0  0  0  0  0  0  0
    1.1550    1.8633    3.4922 H   0  0  0  0  0  0  0  0  0  0  0  0
    4.1102    4.1456    1.6066 N   0  0  0  0  0  0  0  0  0  0  0  0
    5.4349    4.6121    1.2186 C   0  0  0  0  0  0  0  0  0  0  0  0
    3.4961    4.7719    2.1197 H   0  0  0  0  0  0  0  0  0  0  0  0
    6.2065    3.9427    1.6131 H   0  0  0  0  0  0  0  0  0  0  0  0
    5.5241    4.6498    0.1278 H   0  0  0  0  0  0  0  0  0  0  0  0
    5.6128    5.6162    1.6154 H   0  0  0  0  0  0  0  0  0  0  0  0
  1  2  2  0  0  0  0
  1  3  1  0  0  0  0
  1  7  1  0  0  0  0
  3  4  1  0  0  0  0
  3  5  1  0  0  0  0
  3  6  1  0  0  0  0
  7  8  1  0  0  0  0
  7 12  1  0  0  0  0
  8  9  1  0  0  0  0
  8 11  1  0  0  0  0
  8 13  1  0  0  0  0
  9 10  2  0  0  0  0
  9 17  1  0  0  0  0
 11 14  1  0  0  0  0
 11 15  1  0  0  0  0
 11 16  1  0  0  0  0
 17 18  1  0  0  0  0
 17 26  1  0  0  0  0
 18 19  1  0  0  0  0
 18 21  1  0  0  0  0
 18 27  1  0  0  0  0
 19 20  2  0  0  0  0
 19 32  1  0  0  0  0
 21 22  1  0  0  0  0
 21 28  1  0  0  0  0
 21 29  1  0  0  0  0
 22 23  1  0  0  0  0
 22 30  1  0  0  0  0
 22 31  1  0  0  0  0
 23 24  1  0  0  0  0
 23 25  2  0  0  0  0
 32 33  1  0  0  0  0
 32 37  1  0  0  0  0
 33 34  1  0  0  0  0
 33 36  1  0  0  0  0
 33 38  1  0  0  0  0
 34 35  2  0  0  0  0
 34 42  1  0  0  0  0
 36 39  1  0  0  0  0
 36 40  1  0  0  0  0
 36 41  1  0  0  0  0
 42 43  1  0  0  0  0
 42 44  1  0  0  0  0
 43 45  1  0  0  0  0
 43 46  1  0  0  0  0
 43 47  1  0  0  0  0
M  CHG  1  24  -1
M  END
$$$$

  -OEChem-05262216243D

 47 46  0     1  0  0  0  0  0999 V2000
    0.3243   -6.0817    1.4985 C   0  0  0  0  0  0  0  0  0  0  0  0
    1.5169   -6.1947    1.7443 O   0  0  0  0  0  0  0  0  0  0  0  0
   -0.6658   -7.0836    2.0626 C   0  0  0  0  0  0  0  0  0  0  0  0
   -1.2170   -7.5604    1.2483 H   0  0  0  0  0  0  0  0  0  0  0  0
   -0.1415   -7.8546    2.6337 H   0  0  0  0  0  0  0  0  0  0  0  0
   -1.3740   -6.5754    2.7219 H   0  0  0  0  0  0  0  0  0  0  0  0
   -0.1325   -5.0442    0.7168 N   0  0  0  0  0  0  0  0  0  0  0  0
    0.6776   -3.8889    0.3138 C   0  0  2  0  0  0  0  0  0  0  0  0
   -0.1389   -2.5810    0.3942 C   0  0  0  0  0  0  0  0  0  0  0  0
   -1.3213   -2.6404    0.7021 O   0  0  0  0  0  0  0  0  0  0  0  0
    1.1715   -4.1278   -1.1159 C   0  0  0  0  0  0  0  0  0  0  0  0
   -1.1433   -4.8984    0.6921 H   0  0  0  0  0  0  0  0  0  0  0  0
    1.5375   -3.7811    0.9826 H   0  0  0  0  0  0  0  0  0  0  0  0
    0.3228   -4.2142   -1.8030 H   0  0  0  0  0  0  0  0  0  0  0  0
    1.8048   -3.3006   -1.4491 H   0  0  0  0  0  0  0  0  0  0  0  0
    1.7555   -5.0522   -1.1645 H   0  0  0  0  0  0  0  0  0  0  0  0
    0.5107   -1.3636    0.2743 N   0  0  0  0  0  0  0  0  0  0  0  0
   -0.0325   -0.0954   -0.2729 C   0  0  2  0  0  0  0  0  0  0  0  0
    0.3364    1.0863    0.6495 C   0  0  0  0  0  0  0  0  0  0  0  0
   -0.4688    1.6177    1.4031 O   0  0  0  0  0  0  0  0  0  0  0  0
   -1.4890   -0.0536   -0.7940 C   0  0  0  0  0  0  0  0  0  0  0  0
   -1.6621   -0.9189   -2.0656 C   0  0  0  0  0  0  0  0  0  0  0  0
   -3.0973   -0.9196   -2.5973 C   0  0  0  0  0  0  0  0  0  0  0  0
   -3.6790    0.1889   -2.7119 O   0  5  0  0  0  0  0  0  0  0  0  0
   -3.5635   -2.0149   -2.9994 O   0  0  0  0  0  0  0  0  0  0  0  0
    1.5147   -1.4667    0.1817 H   0  0  0  0  0  0  0  0  0  0  0  0
    0.5522    0.0881   -1.1784 H   0  0  0  0  0  0  0  0  0  0  0  0
   -1.7525    0.9806   -1.0411 H   0  0  0  0  0  0  0  0  0  0  0  0
   -2.1836   -0.3793   -0.0133 H   0  0  0  0  0  0  0  0  0  0  0  0
   -1.0107   -0.5302   -2.8526 H   0  0  0  0  0  0  0  0  0  0  0  0
   -1.3650   -1.9511   -1.8724 H   0  0  0  0  0  0  0  0  0  0  0  0
    1.6343    1.5675    0.6412 N   0  0  0  0  0  0  0  0  0  0  0  0
    2.1005    2.7183    1.4236 C   0  0  2  0  0  0  0  0  0  0  0  0
    3.3133    3.4049    0.7626 C   0  0  0  0  0  0  0  0  0  0  0  0
    3.9697    2.8173   -0.0920 O   0  0  0  0  0  0  0  0  0  0  0  0
    2.4654    2.2364    2.8317 C   0  0  0  0  0  0  0  0  0  0  0  0
    2.2648    1.2130   -0.0750 H   0  0  0  0  0  0  0  0  0  0  0  0
    1.2989    3.4615    1.4917 H   0  0  0  0  0  0  0  0  0  0  0  0
    3.2670    1.4925    2.7859 H   0  0  0  0  0  0  0  0  0  0  0  0
    2.8009    3.0746    3.4493 H   0  0  0  0  0  0  0  0  0  0  0  0
    1.5951    1.7807    3.3148 H   0  0  0  0  0  0  0  0  0  0  0  0
    3.6724    4.6887    1.1317 N   0  0  0  0  0  0  0  0  0  0  0  0
    4.7789    5.4185    0.5265 C   0  0  0  0  0  0  0  0  0  0  0  0
    3.0826    5.1614    1.8106 H   0  0  0  0  0  0  0  0  0  0  0  0
    5.7157    4.8647    0.6478 H   0  0  0  0  0  0  0  0  0  0  0  0
    4.5962    5.5741   -0.5419 H   0  0  0  0  0  0  0  0  0  0  0  0
    4.8922    6.3960    1.0048 H   0  0  0  0  0  0  0  0  0  0  0  0
  1  2  2  0  0  0  0
  1  3  1  0  0  0  0
  1  7  1  0  0  0  0
  3  4  1  0  0  0  0
  3  5  1  0  0  0  0
  3  6  1  0  0  0  0
  7  8  1  0  0  0  0
  7 12  1  0  0  0  0
  8  9  1  0  0  0  0
  8 11  1  0  0  0  0
  8 13  1  0  0  0  0
  9 10  2  0  0  0  0
  9 17  1  0  0  0  0
 11 14  1  0  0  0  0
 11 15  1  0  0  0  0
 11 16  1  0  0  0  0
 17 18  1  0  0  0  0
 17 26  1  0  0  0  0
 18 19  1  0  0  0  0
 18 21  1  0  0  0  0
 18 27  1  0  0  0  0
 19 20  2  0  0  0  0
 19 32  1  0  0  0  0
 21 22  1  0  0  0  0
 21 28  1  0  0  0  0
 21 29  1  0  0  0  0
 22 23  1  0  0  0  0
 22 30  1  0  0  0  0
 22 31  1  0  0  0  0
 23 24  1  0  0  0  0
 23 25  2  0  0  0  0
 32 33  1  0  0  0  0
 32 37  1  0  0  0  0
 33 34  1  0  0  0  0
 33 36  1  0  0  0  0
 33 38  1  0  0  0  0
 34 35  2  0  0  0  0
 34 42  1  0  0  0  0
 36 39  1  0  0  0  0
 36 40  1  0  0  0  0
 36 41  1  0  0  0  0
 42 43  1  0  0  0  0
 42 44  1  0  0  0  0
 43 45  1  0  0  0  0
 43 46  1  0  0  0  0
 43 47  1  0  0  0  0
M  CHG  1  24  -1
M  END
$$$$

  -OEChem-05262216243D

 47 46  0     1  0  0  0  0  0999 V2000
    0.3294   -6.0852    1.5079 C   0  0  0  0  0  0  0  0  0  0  0  0
    1.5209   -6.2068    1.7545 O   0  0  0  0  0  0  0  0  0  0  0  0
   -0.6666   -7.0879    2.0612 C   0  0  0  0  0  0  0  0  0  0  0  0
   -1.2503   -7.5234    1.2463 H   0  0  0  0  0  0  0  0  0  0  0  0
   -0.1431   -7.8904    2.5881 H   0  0  0  0  0  0  0  0  0  0  0  0
   -1.3451   -6.5907    2.7590 H   0  0  0  0  0  0  0  0  0  0  0  0
   -0.1202   -5.0330    0.7414 N   0  0  0  0  0  0  0  0  0  0  0  0
    0.6971   -3.8776    0.3529 C   0  0  2  0  0  0  0  0  0  0  0  0
   -0.1325   -2.5753    0.3737 C   0  0  0  0  0  0  0  0  0  0  0  0
   -1.3280   -2.6434    0.6235 O   0  0  0  0  0  0  0  0  0  0  0  0
    1.2546   -4.1366   -1.0500 C   0  0  0  0  0  0  0  0  0  0  0  0
   -1.1308   -4.8878    0.7018 H   0  0  0  0  0  0  0  0  0  0  0  0
    1.5251   -3.7511    1.0581 H   0  0  0  0  0  0  0  0  0  0  0  0
    0.4365   -4.2436   -1.7705 H   0  0  0  0  0  0  0  0  0  0  0  0
    1.8943   -3.3094   -1.3712 H   0  0  0  0  0  0  0  0  0  0  0  0
    1.8487   -5.0558   -1.0579 H   0  0  0  0  0  0  0  0  0  0  0  0
    0.5138   -1.3553    0.2591 N   0  0  0  0  0  0  0  0  0  0  0  0
   -0.0226   -0.0813   -0.2794 C   0  0  2  0  0  0  0  0  0  0  0  0
    0.3444    1.1000    0.6436 C   0  0  0  0  0  0  0  0  0  0  0  0
   -0.3481    1.4226    1.6001 O   0  0  0  0  0  0  0  0  0  0  0  0
   -1.4777   -0.0155   -0.7975 C   0  0  0  0  0  0  0  0  0  0  0  0
   -1.6726   -0.8657   -2.0763 C   0  0  0  0  0  0  0  0  0  0  0  0
   -3.1128   -0.8328   -2.5944 C   0  0  0  0  0  0  0  0  0  0  0  0
   -3.6740    0.2894   -2.6812 O   0  5  0  0  0  0  0  0  0  0  0  0
   -3.6034   -1.9104   -3.0152 O   0  0  0  0  0  0  0  0  0  0  0  0
    1.5223   -1.4451    0.2139 H   0  0  0  0  0  0  0  0  0  0  0  0
    0.5622    0.0977   -1.1857 H   0  0  0  0  0  0  0  0  0  0  0  0
   -1.7297    1.0248   -1.0305 H   0  0  0  0  0  0  0  0  0  0  0  0
   -2.1721   -0.3421   -0.0167 H   0  0  0  0  0  0  0  0  0  0  0  0
   -1.0200   -0.4816   -2.8650 H   0  0  0  0  0  0  0  0  0  0  0  0
   -1.3934   -1.9052   -1.8948 H   0  0  0  0  0  0  0  0  0  0  0  0
    1.5255    1.7909    0.4334 N   0  0  0  0  0  0  0  0  0  0  0  0
    1.9469    2.9651    1.2078 C   0  0  2  0  0  0  0  0  0  0  0  0
    2.8617    3.8940    0.3840 C   0  0  0  0  0  0  0  0  0  0  0  0
    3.4539    3.4660   -0.6018 O   0  0  0  0  0  0  0  0  0  0  0  0
    2.6741    2.4869    2.4688 C   0  0  0  0  0  0  0  0  0  0  0  0
    2.0363    1.6003   -0.4271 H   0  0  0  0  0  0  0  0  0  0  0  0
    1.0649    3.5467    1.4974 H   0  0  0  0  0  0  0  0  0  0  0  0
    3.5604    1.9034    2.2009 H   0  0  0  0  0  0  0  0  0  0  0  0
    2.9881    3.3400    3.0771 H   0  0  0  0  0  0  0  0  0  0  0  0
    2.0126    1.8586    3.0737 H   0  0  0  0  0  0  0  0  0  0  0  0
    3.0256    5.2166    0.7542 N   0  0  0  0  0  0  0  0  0  0  0  0
    3.8274    6.1672   -0.0055 C   0  0  0  0  0  0  0  0  0  0  0  0
    2.4795    5.5515    1.5430 H   0  0  0  0  0  0  0  0  0  0  0  0
    4.8639    5.8218   -0.0797 H   0  0  0  0  0  0  0  0  0  0  0  0
    3.4228    6.2877   -1.0159 H   0  0  0  0  0  0  0  0  0  0  0  0
    3.8236    7.1436    0.4882 H   0  0  0  0  0  0  0  0  0  0  0  0
  1  2  2  0  0  0  0
  1  3  1  0  0  0  0
  1  7  1  0  0  0  0
  3  4  1  0  0  0  0
  3  5  1  0  0  0  0
  3  6  1  0  0  0  0
  7  8  1  0  0  0  0
  7 12  1  0  0  0  0
  8  9  1  0  0  0  0
  8 11  1  0  0  0  0
  8 13  1  0  0  0  0
  9 10  2  0  0  0  0
  9 17  1  0  0  0  0
 11 14  1  0  0  0  0
 11 15  1  0  0  0  0
 11 16  1  0  0  0  0
 17 18  1  0  0  0  0
 17 26  1  0  0  0  0
 18 19  1  0  0  0  0
 18 21  1  0  0  0  0
 18 27  1  0  0  0  0
 19 20  2  0  0  0  0
 19 32  1  0  0  0  0
 21 22  1  0  0  0  0
 21 28  1  0  0  0  0
 21 29  1  0  0  0  0
 22 23  1  0  0  0  0
 22 30  1  0  0  0  0
 22 31  1  0  0  0  0
 23 24  1  0  0  0  0
 23 25  2  0  0  0  0
 32 33  1  0  0  0  0
 32 37  1  0  0  0  0
 33 34  1  0  0  0  0
 33 36  1  0  0  0  0
 33 38  1  0  0  0  0
 34 35  2  0  0  0  0
 34 42  1  0  0  0  0
 36 39  1  0  0  0  0
 36 40  1  0  0  0  0
 36 41  1  0  0  0  0
 42 43  1  0  0  0  0
 42 44  1  0  0  0  0
 43 45  1  0  0  0  0
 43 46  1  0  0  0  0
 43 47  1  0  0  0  0
M  CHG  1  24  -1
M  END
$$$$

  -OEChem-05262216243D

 47 46  0     1  0  0  0  0  0999 V2000
    0.3380   -6.0630    1.5404 C   0  0  0  0  0  0  0  0  0  0  0  0
    1.5245   -6.1791    1.8123 O   0  0  0  0  0  0  0  0  0  0  0  0
   -0.6654   -7.0694    2.0728 C   0  0  0  0  0  0  0  0  0  0  0  0
   -1.2350   -7.5005    1.2459 H   0  0  0  0  0  0  0  0  0  0  0  0
   -0.1496   -7.8745    2.6034 H   0  0  0  0  0  0  0  0  0  0  0  0
   -1.3560   -6.5762    2.7617 H   0  0  0  0  0  0  0  0  0  0  0  0
   -0.0999   -5.0141    0.7633 N   0  0  0  0  0  0  0  0  0  0  0  0
    0.7195   -3.8562    0.3882 C   0  0  2  0  0  0  0  0  0  0  0  0
   -0.1298   -2.5676    0.3404 C   0  0  0  0  0  0  0  0  0  0  0  0
   -1.3350   -2.6517    0.5329 O   0  0  0  0  0  0  0  0  0  0  0  0
    1.3501   -4.1331   -0.9797 C   0  0  0  0  0  0  0  0  0  0  0  0
   -1.1101   -4.8742    0.6988 H   0  0  0  0  0  0  0  0  0  0  0  0
    1.5090   -3.7027    1.1311 H   0  0  0  0  0  0  0  0  0  0  0  0
    0.5706   -4.2657   -1.7375 H   0  0  0  0  0  0  0  0  0  0  0  0
    1.9932   -3.3023   -1.2841 H   0  0  0  0  0  0  0  0  0  0  0  0
    1.9572   -5.0427   -0.9399 H   0  0  0  0  0  0  0  0  0  0  0  0
    0.5066   -1.3429    0.2260 N   0  0  0  0  0  0  0  0  0  0  0  0
   -0.0322   -0.0656   -0.3002 C   0  0  2  0  0  0  0  0  0  0  0  0
    0.3354    1.1157    0.6210 C   0  0  0  0  0  0  0  0  0  0  0  0
   -0.1404    1.2324    1.7433 O   0  0  0  0  0  0  0  0  0  0  0  0
   -1.4888    0.0174   -0.8073 C   0  0  0  0  0  0  0  0  0  0  0  0
   -1.7069   -0.8179   -2.0915 C   0  0  0  0  0  0  0  0  0  0  0  0
   -3.1527   -0.7627   -2.5932 C   0  0  0  0  0  0  0  0  0  0  0  0
   -3.7264    0.3566   -2.5984 O   0  5  0  0  0  0  0  0  0  0  0  0
   -3.6382   -1.8148   -3.0789 O   0  0  0  0  0  0  0  0  0  0  0  0
    1.5176   -1.4130    0.2316 H   0  0  0  0  0  0  0  0  0  0  0  0
    0.5502    0.1097   -1.2088 H   0  0  0  0  0  0  0  0  0  0  0  0
   -1.7324    1.0624   -1.0279 H   0  0  0  0  0  0  0  0  0  0  0  0
   -2.1789   -0.3110   -0.0231 H   0  0  0  0  0  0  0  0  0  0  0  0
   -1.0577   -0.4329   -2.8828 H   0  0  0  0  0  0  0  0  0  0  0  0
   -1.4372   -1.8618   -1.9235 H   0  0  0  0  0  0  0  0  0  0  0  0
    1.3264    2.0030    0.2397 N   0  0  0  0  0  0  0  0  0  0  0  0
    1.7228    3.1813    1.0203 C   0  0  2  0  0  0  0  0  0  0  0  0
    2.2627    4.3101    0.1191 C   0  0  0  0  0  0  0  0  0  0  0  0
    2.7056    4.0546   -0.9961 O   0  0  0  0  0  0  0  0  0  0  0  0
    2.7890    2.7595    2.0360 C   0  0  0  0  0  0  0  0  0  0  0  0
    1.6399    1.9674   -0.7293 H   0  0  0  0  0  0  0  0  0  0  0  0
    0.8505    3.5754    1.5530 H   0  0  0  0  0  0  0  0  0  0  0  0
    3.6696    2.3620    1.5216 H   0  0  0  0  0  0  0  0  0  0  0  0
    3.0961    3.6136    2.6466 H   0  0  0  0  0  0  0  0  0  0  0  0
    2.3943    1.9851    2.7014 H   0  0  0  0  0  0  0  0  0  0  0  0
    2.2587    5.6187    0.5669 N   0  0  0  0  0  0  0  0  0  0  0  0
    2.6882    6.7453   -0.2511 C   0  0  0  0  0  0  0  0  0  0  0  0
    1.8284    5.8014    1.4689 H   0  0  0  0  0  0  0  0  0  0  0  0
    3.7304    6.6182   -0.5622 H   0  0  0  0  0  0  0  0  0  0  0  0
    2.0605    6.8306   -1.1443 H   0  0  0  0  0  0  0  0  0  0  0  0
    2.6096    7.6763    0.3183 H   0  0  0  0  0  0  0  0  0  0  0  0
  1  2  2  0  0  0  0
  1  3  1  0  0  0  0
  1  7  1  0  0  0  0
  3  4  1  0  0  0  0
  3  5  1  0  0  0  0
  3  6  1  0  0  0  0
  7  8  1  0  0  0  0
  7 12  1  0  0  0  0
  8  9  1  0  0  0  0
  8 11  1  0  0  0  0
  8 13  1  0  0  0  0
  9 10  2  0  0  0  0
  9 17  1  0  0  0  0
 11 14  1  0  0  0  0
 11 15  1  0  0  0  0
 11 16  1  0  0  0  0
 17 18  1  0  0  0  0
 17 26  1  0  0  0  0
 18 19  1  0  0  0  0
 18 21  1  0  0  0  0
 18 27  1  0  0  0  0
 19 20  2  0  0  0  0
 19 32  1  0  0  0  0
 21 22  1  0  0  0  0
 21 28  1  0  0  0  0
 21 29  1  0  0  0  0
 22 23  1  0  0  0  0
 22 30  1  0  0  0  0
 22 31  1  0  0  0  0
 23 24  1  0  0  0  0
 23 25  2  0  0  0  0
 32 33  1  0  0  0  0
 32 37  1  0  0  0  0
 33 34  1  0  0  0  0
 33 36  1  0  0  0  0
 33 38  1  0  0  0  0
 34 35  2  0  0  0  0
 34 42  1  0  0  0  0
 36 39  1  0  0  0  0
 36 40  1  0  0  0  0
 36 41  1  0  0  0  0
 42 43  1  0  0  0  0
 42 44  1  0  0  0  0
 43 45  1  0  0  0  0
 43 46  1  0  0  0  0
 43 47  1  0  0  0  0
M  CHG  1  24  -1
M  END
$$$$

  -OEChem-05262216243D

 47 46  0     1  0  0  0  0  0999 V2000
    0.3494   -6.0301    1.5854 C   0  0  0  0  0  0  0  0  0  0  0  0
    1.5236   -6.1184    1.9149 O   0  0  0  0  0  0  0  0  0  0  0  0
   -0.6583   -7.0496    2.0835 C   0  0  0  0  0  0  0  0  0  0  0  0
   -1.1737   -7.5100    1.2370 H   0  0  0  0  0  0  0  0  0  0  0  0
   -0.1539   -7.8319    2.6567 H   0  0  0  0  0  0  0  0  0  0  0  0
   -1.3949   -6.5597    2.7253 H   0  0  0  0  0  0  0  0  0  0  0  0
   -0.0717   -5.0012    0.7728 N   0  0  0  0  0  0  0  0  0  0  0  0
    0.7421   -3.8309    0.4233 C   0  0  2  0  0  0  0  0  0  0  0  0
   -0.1310   -2.5629    0.3000 C   0  0  0  0  0  0  0  0  0  0  0  0
   -1.3417   -2.6703    0.4404 O   0  0  0  0  0  0  0  0  0  0  0  0
    1.4621   -4.1203   -0.8972 C   0  0  0  0  0  0  0  0  0  0  0  0
   -1.0804   -4.8803    0.6637 H   0  0  0  0  0  0  0  0  0  0  0  0
    1.4813   -3.6445    1.2092 H   0  0  0  0  0  0  0  0  0  0  0  0
    0.7345   -4.2873   -1.6982 H   0  0  0  0  0  0  0  0  0  0  0  0
    2.1036   -3.2805   -1.1797 H   0  0  0  0  0  0  0  0  0  0  0  0
    2.0855   -5.0146   -0.8005 H   0  0  0  0  0  0  0  0  0  0  0  0
    0.4858   -1.3287    0.1807 N   0  0  0  0  0  0  0  0  0  0  0  0
   -0.0653   -0.0501   -0.3284 C   0  0  2  0  0  0  0  0  0  0  0  0
    0.3036    1.1335    0.5892 C   0  0  0  0  0  0  0  0  0  0  0  0
    0.1235    1.0850    1.8002 O   0  0  0  0  0  0  0  0  0  0  0  0
   -1.5257    0.0371   -0.8202 C   0  0  0  0  0  0  0  0  0  0  0  0
   -1.7607   -0.7830   -2.1112 C   0  0  0  0  0  0  0  0  0  0  0  0
   -3.2123   -0.7228   -2.5972 C   0  0  0  0  0  0  0  0  0  0  0  0
   -3.8272    0.3682   -2.4770 O   0  5  0  0  0  0  0  0  0  0  0  0
   -3.6631   -1.7327   -3.1934 O   0  0  0  0  0  0  0  0  0  0  0  0
    1.4960   -1.3667    0.2552 H   0  0  0  0  0  0  0  0  0  0  0  0
    0.5113    0.1290   -1.2401 H   0  0  0  0  0  0  0  0  0  0  0  0
   -1.7723    1.0841   -1.0266 H   0  0  0  0  0  0  0  0  0  0  0  0
   -2.2057   -0.3021   -0.0318 H   0  0  0  0  0  0  0  0  0  0  0  0
   -1.1217   -0.3869   -2.9050 H   0  0  0  0  0  0  0  0  0  0  0  0
   -1.4881   -1.8288   -1.9607 H   0  0  0  0  0  0  0  0  0  0  0  0
    1.0374    2.1934    0.0866 N   0  0  0  0  0  0  0  0  0  0  0  0
    1.4318    3.3673    0.8752 C   0  0  2  0  0  0  0  0  0  0  0  0
    1.5739    4.6282   -0.0007 C   0  0  0  0  0  0  0  0  0  0  0  0
    1.8262    4.5267   -1.1965 O   0  0  0  0  0  0  0  0  0  0  0  0
    2.7575    3.0633    1.5794 C   0  0  0  0  0  0  0  0  0  0  0  0
    1.1065    2.2753   -0.9274 H   0  0  0  0  0  0  0  0  0  0  0  0
    0.6623    3.5745    1.6266 H   0  0  0  0  0  0  0  0  0  0  0  0
    3.5410    2.8542    0.8442 H   0  0  0  0  0  0  0  0  0  0  0  0
    3.0692    3.9151    2.1908 H   0  0  0  0  0  0  0  0  0  0  0  0
    2.6501    2.1918    2.2328 H   0  0  0  0  0  0  0  0  0  0  0  0
    1.4302    5.8840    0.5613 N   0  0  0  0  0  0  0  0  0  0  0  0
    1.4744    7.1164   -0.2147 C   0  0  0  0  0  0  0  0  0  0  0  0
    1.1511    5.9281    1.5370 H   0  0  0  0  0  0  0  0  0  0  0  0
    2.4398    7.2163   -0.7217 H   0  0  0  0  0  0  0  0  0  0  0  0
    0.6778    7.1245   -0.9661 H   0  0  0  0  0  0  0  0  0  0  0  0
    1.3394    7.9806    0.4428 H   0  0  0  0  0  0  0  0  0  0  0  0
  1  2  2  0  0  0  0
  1  3  1  0  0  0  0
  1  7  1  0  0  0  0
  3  4  1  0  0  0  0
  3  5  1  0  0  0  0
  3  6  1  0  0  0  0
  7  8  1  0  0  0  0
  7 12  1  0  0  0  0
  8  9  1  0  0  0  0
  8 11  1  0  0  0  0
  8 13  1  0  0  0  0
  9 10  2  0  0  0  0
  9 17  1  0  0  0  0
 11 14  1  0  0  0  0
 11 15  1  0  0  0  0
 11 16  1  0  0  0  0
 17 18  1  0  0  0  0
 17 26  1  0  0  0  0
 18 19  1  0  0  0  0
 18 21  1  0  0  0  0
 18 27  1  0  0  0  0
 19 20  2  0  0  0  0
 19 32  1  0  0  0  0
 21 22  1  0  0  0  0
 21 28  1  0  0  0  0
 21 29  1  0  0  0  0
 22 23  1  0  0  0  0
 22 30  1  0  0  0  0
 22 31  1  0  0  0  0
 23 24  1  0  0  0  0
 23 25  2  0  0  0  0
 32 33  1  0  0  0  0
 32 37  1  0  0  0  0
 33 34  1  0  0  0  0
 33 36  1  0  0  0  0
 33 38  1  0  0  0  0
 34 35  2  0  0  0  0
 34 42  1  0  0  0  0
 36 39  1  0  0  0  0
 36 40  1  0  0  0  0
 36 41  1  0  0  0  0
 42 43  1  0  0  0  0
 42 44  1  0  0  0  0
 43 45  1  0  0  0  0
 43 46  1  0  0  0  0
 43 47  1  0  0  0  0
M  CHG  1  24  -1
M  END
$$$$

  -OEChem-05262216243D

 47 46  0     1  0  0  0  0  0999 V2000
    0.3778   -5.9973    1.6293 C   0  0  0  0  0  0  0  0  0  0  0  0
    1.5477   -6.0631    1.9788 O   0  0  0  0  0  0  0  0  0  0  0  0
   -0.6197   -7.0334    2.1133 C   0  0  0  0  0  0  0  0  0  0  0  0
   -1.0211   -7.5882    1.2619 H   0  0  0  0  0  0  0  0  0  0  0  0
   -0.1352   -7.7359    2.7969 H   0  0  0  0  0  0  0  0  0  0  0  0
   -1.4431   -6.5416    2.6378 H   0  0  0  0  0  0  0  0  0  0  0  0
   -0.0475   -4.9824    0.8014 N   0  0  0  0  0  0  0  0  0  0  0  0
    0.7527   -3.8044    0.4470 C   0  0  2  0  0  0  0  0  0  0  0  0
   -0.1438   -2.5624    0.2485 C   0  0  0  0  0  0  0  0  0  0  0  0
   -1.3569   -2.6997    0.3314 O   0  0  0  0  0  0  0  0  0  0  0  0
    1.5345   -4.1149   -0.8333 C   0  0  0  0  0  0  0  0  0  0  0  0
   -1.0553   -4.8845    0.6643 H   0  0  0  0  0  0  0  0  0  0  0  0
    1.4534   -3.5768    1.2569 H   0  0  0  0  0  0  0  0  0  0  0  0
    0.8459   -4.3268   -1.6581 H   0  0  0  0  0  0  0  0  0  0  0  0
    2.1654   -3.2669   -1.1152 H   0  0  0  0  0  0  0  0  0  0  0  0
    2.1773   -4.9876   -0.6822 H   0  0  0  0  0  0  0  0  0  0  0  0
    0.4492   -1.3161    0.1345 N   0  0  0  0  0  0  0  0  0  0  0  0
   -0.1159   -0.0359   -0.3562 C   0  0  2  0  0  0  0  0  0  0  0  0
    0.2451    1.1460    0.5689 C   0  0  0  0  0  0  0  0  0  0  0  0
    0.3720    0.9922    1.7790 O   0  0  0  0  0  0  0  0  0  0  0  0
   -1.5776    0.0400   -0.8482 C   0  0  0  0  0  0  0  0  0  0  0  0
   -1.8074   -0.7621   -2.1520 C   0  0  0  0  0  0  0  0  0  0  0  0
   -3.2605   -0.7123   -2.6368 C   0  0  0  0  0  0  0  0  0  0  0  0
   -3.9308    0.3246   -2.3945 O   0  5  0  0  0  0  0  0  0  0  0  0
   -3.6594   -1.6671   -3.3492 O   0  0  0  0  0  0  0  0  0  0  0  0
    1.4501   -1.3161    0.2967 H   0  0  0  0  0  0  0  0  0  0  0  0
    0.4602    0.1607   -1.2649 H   0  0  0  0  0  0  0  0  0  0  0  0
   -1.8403    1.0865   -1.0370 H   0  0  0  0  0  0  0  0  0  0  0  0
   -2.2522   -0.3224   -0.0655 H   0  0  0  0  0  0  0  0  0  0  0  0
   -1.1757   -0.3437   -2.9401 H   0  0  0  0  0  0  0  0  0  0  0  0
   -1.5209   -1.8068   -2.0217 H   0  0  0  0  0  0  0  0  0  0  0  0
    0.6798    2.3402    0.0217 N   0  0  0  0  0  0  0  0  0  0  0  0
    1.0811    3.5135    0.8086 C   0  0  2  0  0  0  0  0  0  0  0  0
    0.8304    4.8303    0.0468 C   0  0  0  0  0  0  0  0  0  0  0  0
    0.8621    4.8514   -1.1786 O   0  0  0  0  0  0  0  0  0  0  0  0
    2.5676    3.3876    1.1580 C   0  0  0  0  0  0  0  0  0  0  0  0
    0.5093    2.4870   -0.9734 H   0  0  0  0  0  0  0  0  0  0  0  0
    0.4935    3.5501    1.7322 H   0  0  0  0  0  0  0  0  0  0  0  0
    3.1712    3.3413    0.2459 H   0  0  0  0  0  0  0  0  0  0  0  0
    2.8958    4.2469    1.7506 H   0  0  0  0  0  0  0  0  0  0  0  0
    2.7459    2.4786    1.7408 H   0  0  0  0  0  0  0  0  0  0  0  0
    0.5945    6.0031    0.7414 N   0  0  0  0  0  0  0  0  0  0  0  0
    0.2805    7.2661    0.0863 C   0  0  0  0  0  0  0  0  0  0  0  0
    0.4996    5.9360    1.7505 H   0  0  0  0  0  0  0  0  0  0  0  0
    1.0871    7.5552   -0.5956 H   0  0  0  0  0  0  0  0  0  0  0  0
   -0.6502    7.1796   -0.4841 H   0  0  0  0  0  0  0  0  0  0  0  0
    0.1587    8.0578    0.8315 H   0  0  0  0  0  0  0  0  0  0  0  0
  1  2  2  0  0  0  0
  1  3  1  0  0  0  0
  1  7  1  0  0  0  0
  3  4  1  0  0  0  0
  3  5  1  0  0  0  0
  3  6  1  0  0  0  0
  7  8  1  0  0  0  0
  7 12  1  0  0  0  0
  8  9  1  0  0  0  0
  8 11  1  0  0  0  0
  8 13  1  0  0  0  0
  9 10  2  0  0  0  0
  9 17  1  0  0  0  0
 11 14  1  0  0  0  0
 11 15  1  0  0  0  0
 11 16  1  0  0  0  0
 17 18  1  0  0  0  0
 17 26  1  0  0  0  0
 18 19  1  0  0  0  0
 18 21  1  0  0  0  0
 18 27  1  0  0  0  0
 19 20  2  0  0  0  0
 19 32  1  0  0  0  0
 21 22  1  0  0  0  0
 21 28  1  0  0  0  0
 21 29  1  0  0  0  0
 22 23  1  0  0  0  0
 22 30  1  0  0  0  0
 22 31  1  0  0  0  0
 23 24  1  0  0  0  0
 23 25  2  0  0  0  0
 32 33  1  0  0  0  0
 32 37  1  0  0  0  0
 33 34  1  0  0  0  0
 33 36  1  0  0  0  0
 33 38  1  0  0  0  0
 34 35  2  0  0  0  0
 34 42  1  0  0  0  0
 36 39  1  0  0  0  0
 36 40  1  0  0  0  0
 36 41  1  0  0  0  0
 42 43  1  0  0  0  0
 42 44  1  0  0  0  0
 43 45  1  0  0  0  0
 43 46  1  0  0  0  0
 43 47  1  0  0  0  0
M  CHG  1  24  -1
M  END
$$$$

  -OEChem-05262216243D

 47 46  0     1  0  0  0  0  0999 V2000
    0.3931   -5.9762    1.6494 C   0  0  0  0  0  0  0  0  0  0  0  0
    1.5546   -6.0172    2.0284 O   0  0  0  0  0  0  0  0  0  0  0  0
   -0.5935   -7.0326    2.1120 C   0  0  0  0  0  0  0  0  0  0  0  0
   -0.9683   -7.5933    1.2521 H   0  0  0  0  0  0  0  0  0  0  0  0
   -0.1083   -7.7271    2.8034 H   0  0  0  0  0  0  0  0  0  0  0  0
   -1.4355   -6.5581    2.6224 H   0  0  0  0  0  0  0  0  0  0  0  0
   -0.0307   -4.9728    0.8064 N   0  0  0  0  0  0  0  0  0  0  0  0
    0.7578   -3.7831    0.4628 C   0  0  2  0  0  0  0  0  0  0  0  0
   -0.1533   -2.5581    0.2262 C   0  0  0  0  0  0  0  0  0  0  0  0
   -1.3653   -2.7116    0.2944 O   0  0  0  0  0  0  0  0  0  0  0  0
    1.5819   -4.0914   -0.7913 C   0  0  0  0  0  0  0  0  0  0  0  0
   -1.0363   -4.8940    0.6446 H   0  0  0  0  0  0  0  0  0  0  0  0
    1.4314   -3.5353    1.2896 H   0  0  0  0  0  0  0  0  0  0  0  0
    0.9215   -4.3279   -1.6323 H   0  0  0  0  0  0  0  0  0  0  0  0
    2.2018   -3.2328   -1.0658 H   0  0  0  0  0  0  0  0  0  0  0  0
    2.2397   -4.9477   -0.6121 H   0  0  0  0  0  0  0  0  0  0  0  0
    0.4227   -1.3045    0.1045 N   0  0  0  0  0  0  0  0  0  0  0  0
   -0.1513   -0.0272   -0.3841 C   0  0  2  0  0  0  0  0  0  0  0  0
    0.2105    1.1555    0.5413 C   0  0  0  0  0  0  0  0  0  0  0  0
    0.6099    0.9647    1.6862 O   0  0  0  0  0  0  0  0  0  0  0  0
   -1.6177    0.0332   -0.8670 C   0  0  0  0  0  0  0  0  0  0  0  0
   -1.8490   -0.7735   -2.1676 C   0  0  0  0  0  0  0  0  0  0  0  0
   -3.3058   -0.7392   -2.6428 C   0  0  0  0  0  0  0  0  0  0  0  0
   -3.9971    0.2757   -2.3676 O   0  5  0  0  0  0  0  0  0  0  0  0
   -3.6902   -1.6855   -3.3745 O   0  0  0  0  0  0  0  0  0  0  0  0
    1.4144   -1.2786    0.3168 H   0  0  0  0  0  0  0  0  0  0  0  0
    0.4189    0.1775   -1.2948 H   0  0  0  0  0  0  0  0  0  0  0  0
   -1.8946    1.0755   -1.0572 H   0  0  0  0  0  0  0  0  0  0  0  0
   -2.2828   -0.3354   -0.0791 H   0  0  0  0  0  0  0  0  0  0  0  0
   -1.2267   -0.3496   -2.9601 H   0  0  0  0  0  0  0  0  0  0  0  0
   -1.5509   -1.8150   -2.0393 H   0  0  0  0  0  0  0  0  0  0  0  0
    0.3365    2.4310    0.0202 N   0  0  0  0  0  0  0  0  0  0  0  0
    0.7069    3.6132    0.8094 C   0  0  2  0  0  0  0  0  0  0  0  0
    0.1135    4.9093    0.2224 C   0  0  0  0  0  0  0  0  0  0  0  0
   -0.0516    5.0222   -0.9866 O   0  0  0  0  0  0  0  0  0  0  0  0
    2.2348    3.7151    0.8608 C   0  0  0  0  0  0  0  0  0  0  0  0
   -0.0430    2.5938   -0.9132 H   0  0  0  0  0  0  0  0  0  0  0  0
    0.3178    3.5058    1.8274 H   0  0  0  0  0  0  0  0  0  0  0  0
    2.6447    3.8115   -0.1496 H   0  0  0  0  0  0  0  0  0  0  0  0
    2.5407    4.5874    1.4462 H   0  0  0  0  0  0  0  0  0  0  0  0
    2.6615    2.8210    1.3260 H   0  0  0  0  0  0  0  0  0  0  0  0
   -0.2139    5.9647    1.0547 N   0  0  0  0  0  0  0  0  0  0  0  0
   -0.8563    7.1828    0.5783 C   0  0  0  0  0  0  0  0  0  0  0  0
   -0.1335    5.8112    2.0554 H   0  0  0  0  0  0  0  0  0  0  0  0
   -0.2286    7.6799   -0.1687 H   0  0  0  0  0  0  0  0  0  0  0  0
   -1.8271    6.9519    0.1271 H   0  0  0  0  0  0  0  0  0  0  0  0
   -1.0170    7.8753    1.4100 H   0  0  0  0  0  0  0  0  0  0  0  0
  1  2  2  0  0  0  0
  1  3  1  0  0  0  0
  1  7  1  0  0  0  0
  3  4  1  0  0  0  0
  3  5  1  0  0  0  0
  3  6  1  0  0  0  0
  7  8  1  0  0  0  0
  7 12  1  0  0  0  0
  8  9  1  0  0  0  0
  8 11  1  0  0  0  0
  8 13  1  0  0  0  0
  9 10  2  0  0  0  0
  9 17  1  0  0  0  0
 11 14  1  0  0  0  0
 11 15  1  0  0  0  0
 11 16  1  0  0  0  0
 17 18  1  0  0  0  0
 17 26  1  0  0  0  0
 18 19  1  0  0  0  0
 18 21  1  0  0  0  0
 18 27  1  0  0  0  0
 19 20  2  0  0  0  0
 19 32  1  0  0  0  0
 21 22  1  0  0  0  0
 21 28  1  0  0  0  0
 21 29  1  0  0  0  0
 22 23  1  0  0  0  0
 22 30  1  0  0  0  0
 22 31  1  0  0  0  0
 23 24  1  0  0  0  0
 23 25  2  0  0  0  0
 32 33  1  0  0  0  0
 32 37  1  0  0  0  0
 33 34  1  0  0  0  0
 33 36  1  0  0  0  0
 33 38  1  0  0  0  0
 34 35  2  0  0  0  0
 34 42  1  0  0  0  0
 36 39  1  0  0  0  0
 36 40  1  0  0  0  0
 36 41  1  0  0  0  0
 42 43  1  0  0  0  0
 42 44  1  0  0  0  0
 43 45  1  0  0  0  0
 43 46  1  0  0  0  0
 43 47  1  0  0  0  0
M  CHG  1  24  -1
M  END
$$$$

  -OEChem-05262216243D

 47 46  0     1  0  0  0  0  0999 V2000
    0.4101   -5.9508    1.6665 C   0  0  0  0  0  0  0  0  0  0  0  0
    1.5671   -5.9762    2.0609 O   0  0  0  0  0  0  0  0  0  0  0  0
   -0.5737   -7.0107    2.1267 C   0  0  0  0  0  0  0  0  0  0  0  0
   -0.9313   -7.5838    1.2678 H   0  0  0  0  0  0  0  0  0  0  0  0
   -0.0920   -7.6932    2.8320 H   0  0  0  0  0  0  0  0  0  0  0  0
   -1.4270   -6.5380    2.6197 H   0  0  0  0  0  0  0  0  0  0  0  0
   -0.0131   -4.9612    0.8076 N   0  0  0  0  0  0  0  0  0  0  0  0
    0.7640   -3.7631    0.4677 C   0  0  2  0  0  0  0  0  0  0  0  0
   -0.1625   -2.5525    0.2186 C   0  0  0  0  0  0  0  0  0  0  0  0
   -1.3727   -2.7215    0.2858 O   0  0  0  0  0  0  0  0  0  0  0  0
    1.6028   -4.0664   -0.7773 C   0  0  0  0  0  0  0  0  0  0  0  0
   -1.0177   -4.8948    0.6342 H   0  0  0  0  0  0  0  0  0  0  0  0
    1.4269   -3.5033    1.2996 H   0  0  0  0  0  0  0  0  0  0  0  0
    0.9533   -4.3155   -1.6228 H   0  0  0  0  0  0  0  0  0  0  0  0
    2.2134   -3.2009   -1.0503 H   0  0  0  0  0  0  0  0  0  0  0  0
    2.2694   -4.9135   -0.5875 H   0  0  0  0  0  0  0  0  0  0  0  0
    0.3952   -1.2918    0.0909 N   0  0  0  0  0  0  0  0  0  0  0  0
   -0.1893   -0.0247   -0.4104 C   0  0  2  0  0  0  0  0  0  0  0  0
    0.1591    1.1603    0.5185 C   0  0  0  0  0  0  0  0  0  0  0  0
    0.7879    0.9782    1.5581 O   0  0  0  0  0  0  0  0  0  0  0  0
   -1.6554    0.0037   -0.9017 C   0  0  0  0  0  0  0  0  0  0  0  0
   -1.8642   -0.8196   -2.1958 C   0  0  0  0  0  0  0  0  0  0  0  0
   -3.3188   -0.8171   -2.6785 C   0  0  0  0  0  0  0  0  0  0  0  0
   -4.0379    0.1756   -2.3948 O   0  5  0  0  0  0  0  0  0  0  0  0
   -3.6750   -1.7644   -3.4228 O   0  0  0  0  0  0  0  0  0  0  0  0
    1.3800   -1.2424    0.3323 H   0  0  0  0  0  0  0  0  0  0  0  0
    0.3830    0.1895   -1.3174 H   0  0  0  0  0  0  0  0  0  0  0  0
   -1.9553    1.0363   -1.1062 H   0  0  0  0  0  0  0  0  0  0  0  0
   -2.3172   -0.3696   -0.1134 H   0  0  0  0  0  0  0  0  0  0  0  0
   -1.2462   -0.3906   -2.9891 H   0  0  0  0  0  0  0  0  0  0  0  0
   -1.5471   -1.8540   -2.0575 H   0  0  0  0  0  0  0  0  0  0  0  0
   -0.0154    2.4649    0.0926 N   0  0  0  0  0  0  0  0  0  0  0  0
    0.3167    3.6490    0.8957 C   0  0  2  0  0  0  0  0  0  0  0  0
   -0.5754    4.8551    0.5421 C   0  0  0  0  0  0  0  0  0  0  0  0
   -0.9353    5.0399   -0.6142 O   0  0  0  0  0  0  0  0  0  0  0  0
    1.7896    4.0040    0.6675 C   0  0  0  0  0  0  0  0  0  0  0  0
   -0.5684    2.6120   -0.7532 H   0  0  0  0  0  0  0  0  0  0  0  0
    0.1599    3.4240    1.9559 H   0  0  0  0  0  0  0  0  0  0  0  0
    1.9711    4.2182   -0.3907 H   0  0  0  0  0  0  0  0  0  0  0  0
    2.0653    4.8852    1.2542 H   0  0  0  0  0  0  0  0  0  0  0  0
    2.4337    3.1726    0.9700 H   0  0  0  0  0  0  0  0  0  0  0  0
   -0.9472    5.7583    1.5217 N   0  0  0  0  0  0  0  0  0  0  0  0
   -1.8358    6.8845    1.2659 C   0  0  0  0  0  0  0  0  0  0  0  0
   -0.6932    5.5389    2.4802 H   0  0  0  0  0  0  0  0  0  0  0  0
   -1.4007    7.5509    0.5138 H   0  0  0  0  0  0  0  0  0  0  0  0
   -2.8074    6.5311    0.9042 H   0  0  0  0  0  0  0  0  0  0  0  0
   -1.9954    7.4571    2.1845 H   0  0  0  0  0  0  0  0  0  0  0  0
  1  2  2  0  0  0  0
  1  3  1  0  0  0  0
  1  7  1  0  0  0  0
  3  4  1  0  0  0  0
  3  5  1  0  0  0  0
  3  6  1  0  0  0  0
  7  8  1  0  0  0  0
  7 12  1  0  0  0  0
  8  9  1  0  0  0  0
  8 11  1  0  0  0  0
  8 13  1  0  0  0  0
  9 10  2  0  0  0  0
  9 17  1  0  0  0  0
 11 14  1  0  0  0  0
 11 15  1  0  0  0  0
 11 16  1  0  0  0  0
 17 18  1  0  0  0  0
 17 26  1  0  0  0  0
 18 19  1  0  0  0  0
 18 21  1  0  0  0  0
 18 27  1  0  0  0  0
 19 20  2  0  0  0  0
 19 32  1  0  0  0  0
 21 22  1  0  0  0  0
 21 28  1  0  0  0  0
 21 29  1  0  0  0  0
 22 23  1  0  0  0  0
 22 30  1  0  0  0  0
 22 31  1  0  0  0  0
 23 24  1  0  0  0  0
 23 25  2  0  0  0  0
 32 33  1  0  0  0  0
 32 37  1  0  0  0  0
 33 34  1  0  0  0  0
 33 36  1  0  0  0  0
 33 38  1  0  0  0  0
 34 35  2  0  0  0  0
 34 42  1  0  0  0  0
 36 39  1  0  0  0  0
 36 40  1  0  0  0  0
 36 41  1  0  0  0  0
 42 43  1  0  0  0  0
 42 44  1  0  0  0  0
 43 45  1  0  0  0  0
 43 46  1  0  0  0  0
 43 47  1  0  0  0  0
M  CHG  1  24  -1
M  END
$$$$

  -OEChem-05262216243D

 47 46  0     1  0  0  0  0  0999 V2000
   -0.7040   -5.2544    1.1215 C   0  0  0  0  0  0  0  0  0  0  0  0
    0.2973   -5.8937    1.4047 O   0  0  0  0  0  0  0  0  0  0  0  0
   -2.0418   -5.7110    1.6753 C   0  0  0  0  0  0  0  0  0  0  0  0
   -1.9047   -6.5636    2.3460 H   0  0  0  0  0  0  0  0  0  0  0  0
   -2.5088   -4.8959    2.2344 H   0  0  0  0  0  0  0  0  0  0  0  0
   -2.7042   -6.0058    0.8577 H   0  0  0  0  0  0  0  0  0  0  0  0
   -0.6938   -4.1647    0.2693 N   0  0  0  0  0  0  0  0  0  0  0  0
    0.4659   -3.3288   -0.1195 C   0  0  2  0  0  0  0  0  0  0  0  0
    0.7538   -2.1921    0.8978 C   0  0  0  0  0  0  0  0  0  0  0  0
    0.9497   -2.4277    2.0795 O   0  0  0  0  0  0  0  0  0  0  0  0
    1.7474   -4.1249   -0.4096 C   0  0  0  0  0  0  0  0  0  0  0  0
   -1.6084   -3.7231    0.1683 H   0  0  0  0  0  0  0  0  0  0  0  0
    0.2031   -2.8534   -1.0674 H   0  0  0  0  0  0  0  0  0  0  0  0
    1.5273   -4.9797   -1.0561 H   0  0  0  0  0  0  0  0  0  0  0  0
    2.4796   -3.4870   -0.9132 H   0  0  0  0  0  0  0  0  0  0  0  0
    2.2010   -4.4908    0.5168 H   0  0  0  0  0  0  0  0  0  0  0  0
    1.2537   -0.9713    0.5078 N   0  0  0  0  0  0  0  0  0  0  0  0
    0.6226    0.0590   -0.3500 C   0  0  2  0  0  0  0  0  0  0  0  0
    1.1568    1.4499    0.0907 C   0  0  0  0  0  0  0  0  0  0  0  0
    1.9408    1.5488    1.0269 O   0  0  0  0  0  0  0  0  0  0  0  0
   -0.9275    0.2030   -0.2635 C   0  0  0  0  0  0  0  0  0  0  0  0
   -1.7790   -0.9614   -0.7821 C   0  0  0  0  0  0  0  0  0  0  0  0
   -3.2766   -0.7066   -0.6231 C   0  0  0  0  0  0  0  0  0  0  0  0
   -3.7051    0.4592   -0.8101 O   0  5  0  0  0  0  0  0  0  0  0  0
   -3.9851   -1.7005   -0.3326 O   0  0  0  0  0  0  0  0  0  0  0  0
    1.7424   -0.5504    1.3019 H   0  0  0  0  0  0  0  0  0  0  0  0
    0.9102   -0.1192   -1.3900 H   0  0  0  0  0  0  0  0  0  0  0  0
   -1.2390    1.0820   -0.8362 H   0  0  0  0  0  0  0  0  0  0  0  0
   -1.2004    0.3809    0.7835 H   0  0  0  0  0  0  0  0  0  0  0  0
   -1.5758   -1.8456   -0.1965 H   0  0  0  0  0  0  0  0  0  0  0  0
   -1.5489   -1.1585   -1.8327 H   0  0  0  0  0  0  0  0  0  0  0  0
    0.7388    2.6109   -0.5402 N   0  0  0  0  0  0  0  0  0  0  0  0
    1.0603    3.9727   -0.0779 C   0  0  2  0  0  0  0  0  0  0  0  0
   -0.0252    4.5801    0.8432 C   0  0  0  0  0  0  0  0  0  0  0  0
    0.0536    5.7509    1.1970 O   0  0  0  0  0  0  0  0  0  0  0  0
    1.2719    4.8309   -1.3295 C   0  0  0  0  0  0  0  0  0  0  0  0
    0.0322    2.5080   -1.2648 H   0  0  0  0  0  0  0  0  0  0  0  0
    1.9960    3.9667    0.4916 H   0  0  0  0  0  0  0  0  0  0  0  0
    0.3445    4.9067   -1.9056 H   0  0  0  0  0  0  0  0  0  0  0  0
    1.5900    5.8402   -1.0496 H   0  0  0  0  0  0  0  0  0  0  0  0
    2.0463    4.3914   -1.9655 H   0  0  0  0  0  0  0  0  0  0  0  0
   -1.1361    3.8403    1.2099 N   0  0  0  0  0  0  0  0  0  0  0  0
   -2.2208    4.3540    2.0339 C   0  0  0  0  0  0  0  0  0  0  0  0
   -1.1704    2.8692    0.9129 H   0  0  0  0  0  0  0  0  0  0  0  0
   -1.8511    4.6228    3.0286 H   0  0  0  0  0  0  0  0  0  0  0  0
   -2.6692    5.2387    1.5703 H   0  0  0  0  0  0  0  0  0  0  0  0
   -2.9989    3.5924    2.1468 H   0  0  0  0  0  0  0  0  0  0  0  0
  1  2  2  0  0  0  0
  1  3  1  0  0  0  0
  1  7  1  0  0  0  0
  3  4  1  0  0  0  0
  3  5  1  0  0  0  0
  3  6  1  0  0  0  0
  7  8  1  0  0  0  0
  7 12  1  0  0  0  0
  8  9  1  0  0  0  0
  8 11  1  0  0  0  0
  8 13  1  0  0  0  0
  9 10  2  0  0  0  0
  9 17  1  0  0  0  0
 11 14  1  0  0  0  0
 11 15  1  0  0  0  0
 11 16  1  0  0  0  0
 17 18  1  0  0  0  0
 17 26  1  0  0  0  0
 18 19  1  0  0  0  0
 18 21  1  0  0  0  0
 18 27  1  0  0  0  0
 19 20  2  0  0  0  0
 19 32  1  0  0  0  0
 21 22  1  0  0  0  0
 21 28  1  0  0  0  0
 21 29  1  0  0  0  0
 22 23  1  0  0  0  0
 22 30  1  0  0  0  0
 22 31  1  0  0  0  0
 23 24  1  0  0  0  0
 23 25  2  0  0  0  0
 32 33  1  0  0  0  0
 32 37  1  0  0  0  0
 33 34  1  0  0  0  0
 33 36  1  0  0  0  0
 33 38  1  0  0  0  0
 34 35  2  0  0  0  0
 34 42  1  0  0  0  0
 36 39  1  0  0  0  0
 36 40  1  0  0  0  0
 36 41  1  0  0  0  0
 42 43  1  0  0  0  0
 42 44  1  0  0  0  0
 43 45  1  0  0  0  0
 43 46  1  0  0  0  0
 43 47  1  0  0  0  0
M  CHG  1  24  -1
M  END
$$$$

  -OEChem-05262216243D

 47 46  0     1  0  0  0  0  0999 V2000
   -0.7938   -5.2789    1.1096 C   0  0  0  0  0  0  0  0  0  0  0  0
    0.1123   -5.7731    1.7624 O   0  0  0  0  0  0  0  0  0  0  0  0
   -2.1854   -5.8745    1.2212 C   0  0  0  0  0  0  0  0  0  0  0  0
   -2.2088   -6.6433    1.9982 H   0  0  0  0  0  0  0  0  0  0  0  0
   -2.9043   -5.0918    1.4784 H   0  0  0  0  0  0  0  0  0  0  0  0
   -2.4766   -6.3232    0.2683 H   0  0  0  0  0  0  0  0  0  0  0  0
   -0.6081   -4.2374    0.2194 N   0  0  0  0  0  0  0  0  0  0  0  0
    0.5362   -3.2994    0.1344 C   0  0  2  0  0  0  0  0  0  0  0  0
    0.4029   -2.0866    1.0952 C   0  0  0  0  0  0  0  0  0  0  0  0
    0.3830   -2.2345    2.3072 O   0  0  0  0  0  0  0  0  0  0  0  0
    1.9063   -3.9737    0.3043 C   0  0  0  0  0  0  0  0  0  0  0  0
   -1.4768   -3.9171   -0.2122 H   0  0  0  0  0  0  0  0  0  0  0  0
    0.5353   -2.8994   -0.8829 H   0  0  0  0  0  0  0  0  0  0  0  0
    1.9670   -4.8755   -0.3120 H   0  0  0  0  0  0  0  0  0  0  0  0
    2.7021   -3.2882   -0.0013 H   0  0  0  0  0  0  0  0  0  0  0  0
    2.0822   -4.2488    1.3488 H   0  0  0  0  0  0  0  0  0  0  0  0
    0.8127   -0.8212    0.7421 N   0  0  0  0  0  0  0  0  0  0  0  0
    0.2652    0.1030   -0.2816 C   0  0  2  0  0  0  0  0  0  0  0  0
    0.5323    1.5570    0.2061 C   0  0  0  0  0  0  0  0  0  0  0  0
    1.3584    1.7689    1.0899 O   0  0  0  0  0  0  0  0  0  0  0  0
   -1.2574    0.0070   -0.6003 C   0  0  0  0  0  0  0  0  0  0  0  0
   -1.7274   -1.2820   -1.2819 C   0  0  0  0  0  0  0  0  0  0  0  0
   -3.2307   -1.3063   -1.5406 C   0  0  0  0  0  0  0  0  0  0  0  0
   -3.7702   -0.2733   -2.0063 O   0  5  0  0  0  0  0  0  0  0  0  0
   -3.8218   -2.3868   -1.2968 O   0  0  0  0  0  0  0  0  0  0  0  0
    1.1080   -0.3261    1.5851 H   0  0  0  0  0  0  0  0  0  0  0  0
    0.8178   -0.0470   -1.2136 H   0  0  0  0  0  0  0  0  0  0  0  0
   -1.5425    0.8222   -1.2719 H   0  0  0  0  0  0  0  0  0  0  0  0
   -1.8211    0.1342    0.3312 H   0  0  0  0  0  0  0  0  0  0  0  0
   -1.5381   -2.1161   -0.6284 H   0  0  0  0  0  0  0  0  0  0  0  0
   -1.1907   -1.4300   -2.2230 H   0  0  0  0  0  0  0  0  0  0  0  0
   -0.1005    2.6610   -0.3422 N   0  0  0  0  0  0  0  0  0  0  0  0
    0.2198    4.0631   -0.0231 C   0  0  2  0  0  0  0  0  0  0  0  0
   -0.3815    4.5508    1.3207 C   0  0  0  0  0  0  0  0  0  0  0  0
   -0.9967    5.6087    1.4048 O   0  0  0  0  0  0  0  0  0  0  0  0
   -0.2463    4.9038   -1.2186 C   0  0  0  0  0  0  0  0  0  0  0  0
   -0.8570    2.4793   -0.9986 H   0  0  0  0  0  0  0  0  0  0  0  0
    1.3063    4.1726    0.0587 H   0  0  0  0  0  0  0  0  0  0  0  0
   -1.3348    4.8492   -1.3251 H   0  0  0  0  0  0  0  0  0  0  0  0
    0.0365    5.9521   -1.0798 H   0  0  0  0  0  0  0  0  0  0  0  0
    0.2151    4.5430   -2.1430 H   0  0  0  0  0  0  0  0  0  0  0  0
   -0.1782    3.8052    2.4653 N   0  0  0  0  0  0  0  0  0  0  0  0
   -0.6822    4.1659    3.7822 C   0  0  0  0  0  0  0  0  0  0  0  0
    0.3864    2.9586    2.3569 H   0  0  0  0  0  0  0  0  0  0  0  0
   -0.2397    5.1099    4.1158 H   0  0  0  0  0  0  0  0  0  0  0  0
   -1.7715    4.2733    3.7589 H   0  0  0  0  0  0  0  0  0  0  0  0
   -0.4275    3.3875    4.5076 H   0  0  0  0  0  0  0  0  0  0  0  0
  1  2  2  0  0  0  0
  1  3  1  0  0  0  0
  1  7  1  0  0  0  0
  3  4  1  0  0  0  0
  3  5  1  0  0  0  0
  3  6  1  0  0  0  0
  7  8  1  0  0  0  0
  7 12  1  0  0  0  0
  8  9  1  0  0  0  0
  8 11  1  0  0  0  0
  8 13  1  0  0  0  0
  9 10  2  0  0  0  0
  9 17  1  0  0  0  0
 11 14  1  0  0  0  0
 11 15  1  0  0  0  0
 11 16  1  0  0  0  0
 17 18  1  0  0  0  0
 17 26  1  0  0  0  0
 18 19  1  0  0  0  0
 18 21  1  0  0  0  0
 18 27  1  0  0  0  0
 19 20  2  0  0  0  0
 19 32  1  0  0  0  0
 21 22  1  0  0  0  0
 21 28  1  0  0  0  0
 21 29  1  0  0  0  0
 22 23  1  0  0  0  0
 22 30  1  0  0  0  0
 22 31  1  0  0  0  0
 23 24  1  0  0  0  0
 23 25  2  0  0  0  0
 32 33  1  0  0  0  0
 32 37  1  0  0  0  0
 33 34  1  0  0  0  0
 33 36  1  0  0  0  0
 33 38  1  0  0  0  0
 34 35  2  0  0  0  0
 34 42  1  0  0  0  0
 36 39  1  0  0  0  0
 36 40  1  0  0  0  0
 36 41  1  0  0  0  0
 42 43  1  0  0  0  0
 42 44  1  0  0  0  0
 43 45  1  0  0  0  0
 43 46  1  0  0  0  0
 43 47  1  0  0  0  0
M  CHG  1  24  -1
M  END
$$$$

  -OEChem-05262216243D

 47 46  0     1  0  0  0  0  0999 V2000
   -0.4036   -5.5838    0.8736 C   0  0  0  0  0  0  0  0  0  0  0  0
    0.6470   -6.0943    1.2303 O   0  0  0  0  0  0  0  0  0  0  0  0
   -1.7107   -6.2242    1.3036 C   0  0  0  0  0  0  0  0  0  0  0  0
   -2.2680   -6.5617    0.4262 H   0  0  0  0  0  0  0  0  0  0  0  0
   -1.5185   -7.0819    1.9535 H   0  0  0  0  0  0  0  0  0  0  0  0
   -2.3166   -5.4967    1.8501 H   0  0  0  0  0  0  0  0  0  0  0  0
   -0.4703   -4.4790    0.0451 N   0  0  0  0  0  0  0  0  0  0  0  0
    0.6017   -3.5051   -0.2696 C   0  0  2  0  0  0  0  0  0  0  0  0
    0.7235   -2.3722    0.7859 C   0  0  0  0  0  0  0  0  0  0  0  0
    1.0613   -2.6121    1.9349 O   0  0  0  0  0  0  0  0  0  0  0  0
    1.9703   -4.1526   -0.5298 C   0  0  0  0  0  0  0  0  0  0  0  0
   -1.4255   -4.1524   -0.1136 H   0  0  0  0  0  0  0  0  0  0  0  0
    0.3246   -3.0294   -1.2140 H   0  0  0  0  0  0  0  0  0  0  0  0
    1.8674   -4.9990   -1.2152 H   0  0  0  0  0  0  0  0  0  0  0  0
    2.6516   -3.4225   -0.9762 H   0  0  0  0  0  0  0  0  0  0  0  0
    2.4218   -4.5069    0.4020 H   0  0  0  0  0  0  0  0  0  0  0  0
    0.9930   -1.0673    0.4411 N   0  0  0  0  0  0  0  0  0  0  0  0
    0.1730   -0.0801   -0.3060 C   0  0  2  0  0  0  0  0  0  0  0  0
    0.5657    1.3278    0.2330 C   0  0  0  0  0  0  0  0  0  0  0  0
    1.7055    1.5078    0.6525 O   0  0  0  0  0  0  0  0  0  0  0  0
   -1.3777   -0.2127   -0.2144 C   0  0  0  0  0  0  0  0  0  0  0  0
   -1.9788   -1.4598   -0.8702 C   0  0  0  0  0  0  0  0  0  0  0  0
   -3.4950   -1.5497   -0.7324 C   0  0  0  0  0  0  0  0  0  0  0  0
   -4.1806   -0.5332   -0.9957 O   0  5  0  0  0  0  0  0  0  0  0  0
   -3.9559   -2.6683   -0.3928 O   0  0  0  0  0  0  0  0  0  0  0  0
    1.5295   -0.6306    1.1918 H   0  0  0  0  0  0  0  0  0  0  0  0
    0.4529   -0.1239   -1.3624 H   0  0  0  0  0  0  0  0  0  0  0  0
   -1.8440    0.6453   -0.7096 H   0  0  0  0  0  0  0  0  0  0  0  0
   -1.6761   -0.1917    0.8398 H   0  0  0  0  0  0  0  0  0  0  0  0
   -1.5979   -2.3333   -0.3723 H   0  0  0  0  0  0  0  0  0  0  0  0
   -1.7050   -1.4976   -1.9282 H   0  0  0  0  0  0  0  0  0  0  0  0
   -0.3020    2.4082    0.2721 N   0  0  0  0  0  0  0  0  0  0  0  0
    0.0139    3.7143    0.8703 C   0  0  2  0  0  0  0  0  0  0  0  0
   -1.1112    4.2118    1.7992 C   0  0  0  0  0  0  0  0  0  0  0  0
   -2.2777    4.1757    1.4296 O   0  0  0  0  0  0  0  0  0  0  0  0
    0.2545    4.7101   -0.2663 C   0  0  0  0  0  0  0  0  0  0  0  0
   -1.2774    2.2326    0.0287 H   0  0  0  0  0  0  0  0  0  0  0  0
    0.9243    3.6501    1.4743 H   0  0  0  0  0  0  0  0  0  0  0  0
   -0.6391    4.8008   -0.8928 H   0  0  0  0  0  0  0  0  0  0  0  0
    0.4989    5.6972    0.1375 H   0  0  0  0  0  0  0  0  0  0  0  0
    1.0878    4.3744   -0.8917 H   0  0  0  0  0  0  0  0  0  0  0  0
   -0.8084    4.7355    3.0435 N   0  0  0  0  0  0  0  0  0  0  0  0
   -1.8288    5.1378    4.0034 C   0  0  0  0  0  0  0  0  0  0  0  0
    0.1545    4.6554    3.3569 H   0  0  0  0  0  0  0  0  0  0  0  0
   -2.4888    5.8955    3.5680 H   0  0  0  0  0  0  0  0  0  0  0  0
   -2.4326    4.2750    4.3036 H   0  0  0  0  0  0  0  0  0  0  0  0
   -1.3604    5.5619    4.8964 H   0  0  0  0  0  0  0  0  0  0  0  0
  1  2  2  0  0  0  0
  1  3  1  0  0  0  0
  1  7  1  0  0  0  0
  3  4  1  0  0  0  0
  3  5  1  0  0  0  0
  3  6  1  0  0  0  0
  7  8  1  0  0  0  0
  7 12  1  0  0  0  0
  8  9  1  0  0  0  0
  8 11  1  0  0  0  0
  8 13  1  0  0  0  0
  9 10  2  0  0  0  0
  9 17  1  0  0  0  0
 11 14  1  0  0  0  0
 11 15  1  0  0  0  0
 11 16  1  0  0  0  0
 17 18  1  0  0  0  0
 17 26  1  0  0  0  0
 18 19  1  0  0  0  0
 18 21  1  0  0  0  0
 18 27  1  0  0  0  0
 19 20  2  0  0  0  0
 19 32  1  0  0  0  0
 21 22  1  0  0  0  0
 21 28  1  0  0  0  0
 21 29  1  0  0  0  0
 22 23  1  0  0  0  0
 22 30  1  0  0  0  0
 22 31  1  0  0  0  0
 23 24  1  0  0  0  0
 23 25  2  0  0  0  0
 32 33  1  0  0  0  0
 32 37  1  0  0  0  0
 33 34  1  0  0  0  0
 33 36  1  0  0  0  0
 33 38  1  0  0  0  0
 34 35  2  0  0  0  0
 34 42  1  0  0  0  0
 36 39  1  0  0  0  0
 36 40  1  0  0  0  0
 36 41  1  0  0  0  0
 42 43  1  0  0  0  0
 42 44  1  0  0  0  0
 43 45  1  0  0  0  0
 43 46  1  0  0  0  0
 43 47  1  0  0  0  0
M  CHG  1  24  -1
M  END
$$$$

  -OEChem-05262216243D

 47 46  0     1  0  0  0  0  0999 V2000
   -0.6655   -5.3624    1.2213 C   0  0  0  0  0  0  0  0  0  0  0  0
    0.2494   -5.7816    1.9131 O   0  0  0  0  0  0  0  0  0  0  0  0
   -2.0215   -6.0385    1.3135 C   0  0  0  0  0  0  0  0  0  0  0  0
   -2.0035   -6.8261    2.0716 H   0  0  0  0  0  0  0  0  0  0  0  0
   -2.7843   -5.3043    1.5863 H   0  0  0  0  0  0  0  0  0  0  0  0
   -2.2841   -6.4807    0.3493 H   0  0  0  0  0  0  0  0  0  0  0  0
   -0.5171   -4.3326    0.3100 N   0  0  0  0  0  0  0  0  0  0  0  0
    0.5735   -3.3325    0.2365 C   0  0  2  0  0  0  0  0  0  0  0  0
    0.3646   -2.1349    1.2024 C   0  0  0  0  0  0  0  0  0  0  0  0
    0.3431   -2.2876    2.4137 O   0  0  0  0  0  0  0  0  0  0  0  0
    1.9758   -3.9338    0.4144 C   0  0  0  0  0  0  0  0  0  0  0  0
   -1.3883   -4.0751   -0.1566 H   0  0  0  0  0  0  0  0  0  0  0  0
    0.5605   -2.9288   -0.7791 H   0  0  0  0  0  0  0  0  0  0  0  0
    2.0866   -4.8305   -0.2024 H   0  0  0  0  0  0  0  0  0  0  0  0
    2.7357   -3.2070    0.1133 H   0  0  0  0  0  0  0  0  0  0  0  0
    2.1604   -4.2000    1.4596 H   0  0  0  0  0  0  0  0  0  0  0  0
    0.7047   -0.8446    0.8692 N   0  0  0  0  0  0  0  0  0  0  0  0
    0.1285    0.0554   -0.1588 C   0  0  2  0  0  0  0  0  0  0  0  0
    0.3068    1.5082    0.3691 C   0  0  0  0  0  0  0  0  0  0  0  0
    1.3592    1.8188    0.9186 O   0  0  0  0  0  0  0  0  0  0  0  0
   -1.3726   -0.1258   -0.5296 C   0  0  0  0  0  0  0  0  0  0  0  0
   -1.7532   -1.4265   -1.2427 C   0  0  0  0  0  0  0  0  0  0  0  0
   -3.2463   -1.5210   -1.5448 C   0  0  0  0  0  0  0  0  0  0  0  0
   -3.8479   -0.4852   -1.9206 O   0  5  0  0  0  0  0  0  0  0  0  0
   -3.7715   -2.6519   -1.4000 O   0  0  0  0  0  0  0  0  0  0  0  0
    0.9802   -0.3509    1.7173 H   0  0  0  0  0  0  0  0  0  0  0  0
    0.7163   -0.0436   -1.0763 H   0  0  0  0  0  0  0  0  0  0  0  0
   -1.6663    0.6861   -1.2041 H   0  0  0  0  0  0  0  0  0  0  0  0
   -1.9776   -0.0433    0.3808 H   0  0  0  0  0  0  0  0  0  0  0  0
   -1.5387   -2.2609   -0.5958 H   0  0  0  0  0  0  0  0  0  0  0  0
   -1.1830   -1.5300   -2.1699 H   0  0  0  0  0  0  0  0  0  0  0  0
   -0.6892    2.4719    0.3257 N   0  0  0  0  0  0  0  0  0  0  0  0
   -0.5496    3.8523    0.8198 C   0  0  2  0  0  0  0  0  0  0  0  0
   -0.6629    3.9663    2.3624 C   0  0  0  0  0  0  0  0  0  0  0  0
   -1.4401    4.7489    2.8985 O   0  0  0  0  0  0  0  0  0  0  0  0
   -1.5989    4.6963    0.0856 C   0  0  0  0  0  0  0  0  0  0  0  0
   -1.5945    2.1828   -0.0416 H   0  0  0  0  0  0  0  0  0  0  0  0
    0.4384    4.2344    0.5436 H   0  0  0  0  0  0  0  0  0  0  0  0
   -2.6096    4.3674    0.3491 H   0  0  0  0  0  0  0  0  0  0  0  0
   -1.4959    5.7518    0.3568 H   0  0  0  0  0  0  0  0  0  0  0  0
   -1.4728    4.6059   -0.9976 H   0  0  0  0  0  0  0  0  0  0  0  0
    0.1583    3.1923    3.1587 N   0  0  0  0  0  0  0  0  0  0  0  0
    0.1134    3.1728    4.6135 C   0  0  0  0  0  0  0  0  0  0  0  0
    0.7987    2.5645    2.6662 H   0  0  0  0  0  0  0  0  0  0  0  0
    0.3008    4.1734    5.0161 H   0  0  0  0  0  0  0  0  0  0  0  0
   -0.8658    2.8277    4.9610 H   0  0  0  0  0  0  0  0  0  0  0  0
    0.8778    2.4940    5.0034 H   0  0  0  0  0  0  0  0  0  0  0  0
  1  2  2  0  0  0  0
  1  3  1  0  0  0  0
  1  7  1  0  0  0  0
  3  4  1  0  0  0  0
  3  5  1  0  0  0  0
  3  6  1  0  0  0  0
  7  8  1  0  0  0  0
  7 12  1  0  0  0  0
  8  9  1  0  0  0  0
  8 11  1  0  0  0  0
  8 13  1  0  0  0  0
  9 10  2  0  0  0  0
  9 17  1  0  0  0  0
 11 14  1  0  0  0  0
 11 15  1  0  0  0  0
 11 16  1  0  0  0  0
 17 18  1  0  0  0  0
 17 26  1  0  0  0  0
 18 19  1  0  0  0  0
 18 21  1  0  0  0  0
 18 27  1  0  0  0  0
 19 20  2  0  0  0  0
 19 32  1  0  0  0  0
 21 22  1  0  0  0  0
 21 28  1  0  0  0  0
 21 29  1  0  0  0  0
 22 23  1  0  0  0  0
 22 30  1  0  0  0  0
 22 31  1  0  0  0  0
 23 24  1  0  0  0  0
 23 25  2  0  0  0  0
 32 33  1  0  0  0  0
 32 37  1  0  0  0  0
 33 34  1  0  0  0  0
 33 36  1  0  0  0  0
 33 38  1  0  0  0  0
 34 35  2  0  0  0  0
 34 42  1  0  0  0  0
 36 39  1  0  0  0  0
 36 40  1  0  0  0  0
 36 41  1  0  0  0  0
 42 43  1  0  0  0  0
 42 44  1  0  0  0  0
 43 45  1  0  0  0  0
 43 46  1  0  0  0  0
 43 47  1  0  0  0  0
M  CHG  1  24  -1
M  END
$$$$

  -OEChem-05262216243D

 47 46  0     1  0  0  0  0  0999 V2000
   -0.5998   -2.7592    2.1350 C   0  0  0  0  0  0  0  0  0  0  0  0
    0.3105   -2.5874    2.9347 O   0  0  0  0  0  0  0  0  0  0  0  0
   -2.0324   -2.4965    2.5615 C   0  0  0  0  0  0  0  0  0  0  0  0
   -2.7100   -3.1823    2.0456 H   0  0  0  0  0  0  0  0  0  0  0  0
   -2.1386   -2.6401    3.6395 H   0  0  0  0  0  0  0  0  0  0  0  0
   -2.3141   -1.4713    2.3103 H   0  0  0  0  0  0  0  0  0  0  0  0
   -0.3325   -3.1628    0.8430 N   0  0  0  0  0  0  0  0  0  0  0  0
    1.0101   -3.4192    0.3004 C   0  0  2  0  0  0  0  0  0  0  0  0
    1.7135   -2.3095   -0.5451 C   0  0  0  0  0  0  0  0  0  0  0  0
    2.8173   -2.5659   -1.0079 O   0  0  0  0  0  0  0  0  0  0  0  0
    0.9073   -4.7378   -0.4796 C   0  0  0  0  0  0  0  0  0  0  0  0
   -1.1493   -3.2565    0.2199 H   0  0  0  0  0  0  0  0  0  0  0  0
    1.6894   -3.5985    1.1398 H   0  0  0  0  0  0  0  0  0  0  0  0
    0.2468   -4.6328   -1.3446 H   0  0  0  0  0  0  0  0  0  0  0  0
    1.8936   -5.0534   -0.8327 H   0  0  0  0  0  0  0  0  0  0  0  0
    0.5070   -5.5261    0.1650 H   0  0  0  0  0  0  0  0  0  0  0  0
    1.5489   -0.9362   -0.5208 N   0  0  0  0  0  0  0  0  0  0  0  0
    0.4066   -0.0682   -0.9007 C   0  0  2  0  0  0  0  0  0  0  0  0
    0.4586    1.1958   -0.0103 C   0  0  0  0  0  0  0  0  0  0  0  0
    1.4655    1.8968   -0.0211 O   0  0  0  0  0  0  0  0  0  0  0  0
   -0.9952   -0.6947   -0.8827 C   0  0  0  0  0  0  0  0  0  0  0  0
   -1.1997   -1.7782   -1.9526 C   0  0  0  0  0  0  0  0  0  0  0  0
   -2.6035   -2.3442   -1.8130 C   0  0  0  0  0  0  0  0  0  0  0  0
   -3.5110   -1.9598   -2.5858 O   0  5  0  0  0  0  0  0  0  0  0  0
   -2.7577   -3.1225   -0.8346 O   0  0  0  0  0  0  0  0  0  0  0  0
    2.4459   -0.5071   -0.7358 H   0  0  0  0  0  0  0  0  0  0  0  0
    0.5807    0.2669   -1.9280 H   0  0  0  0  0  0  0  0  0  0  0  0
   -1.7238    0.0932   -1.1058 H   0  0  0  0  0  0  0  0  0  0  0  0
   -1.2429   -1.0530    0.1126 H   0  0  0  0  0  0  0  0  0  0  0  0
   -0.4784   -2.5863   -1.8763 H   0  0  0  0  0  0  0  0  0  0  0  0
   -1.0835   -1.3373   -2.9470 H   0  0  0  0  0  0  0  0  0  0  0  0
   -0.5768    1.5420    0.8399 N   0  0  0  0  0  0  0  0  0  0  0  0
   -0.4551    2.5105    1.9346 C   0  0  2  0  0  0  0  0  0  0  0  0
   -1.2397    2.0483    3.1804 C   0  0  0  0  0  0  0  0  0  0  0  0
   -2.1996    1.2949    3.0612 O   0  0  0  0  0  0  0  0  0  0  0  0
   -0.9724    3.8637    1.4418 C   0  0  0  0  0  0  0  0  0  0  0  0
   -1.3449    0.8746    0.9140 H   0  0  0  0  0  0  0  0  0  0  0  0
    0.5950    2.6102    2.2284 H   0  0  0  0  0  0  0  0  0  0  0  0
   -2.0243    3.7869    1.1478 H   0  0  0  0  0  0  0  0  0  0  0  0
   -0.8835    4.6174    2.2297 H   0  0  0  0  0  0  0  0  0  0  0  0
   -0.3919    4.1970    0.5757 H   0  0  0  0  0  0  0  0  0  0  0  0
   -0.8702    2.4798    4.4420 N   0  0  0  0  0  0  0  0  0  0  0  0
   -1.4968    1.9852    5.6617 C   0  0  0  0  0  0  0  0  0  0  0  0
   -0.0097    3.0140    4.5156 H   0  0  0  0  0  0  0  0  0  0  0  0
   -2.5771    2.1627    5.6376 H   0  0  0  0  0  0  0  0  0  0  0  0
   -1.3182    0.9105    5.7738 H   0  0  0  0  0  0  0  0  0  0  0  0
   -1.0838    2.4994    6.5347 H   0  0  0  0  0  0  0  0  0  0  0  0
  1  2  2  0  0  0  0
  1  3  1  0  0  0  0
  1  7  1  0  0  0  0
  3  4  1  0  0  0  0
  3  5  1  0  0  0  0
  3  6  1  0  0  0  0
  7  8  1  0  0  0  0
  7 12  1  0  0  0  0
  8  9  1  0  0  0  0
  8 11  1  0  0  0  0
  8 13  1  0  0  0  0
  9 10  2  0  0  0  0
  9 17  1  0  0  0  0
 11 14  1  0  0  0  0
 11 15  1  0  0  0  0
 11 16  1  0  0  0  0
 17 18  1  0  0  0  0
 17 26  1  0  0  0  0
 18 19  1  0  0  0  0
 18 21  1  0  0  0  0
 18 27  1  0  0  0  0
 19 20  2  0  0  0  0
 19 32  1  0  0  0  0
 21 22  1  0  0  0  0
 21 28  1  0  0  0  0
 21 29  1  0  0  0  0
 22 23  1  0  0  0  0
 22 30  1  0  0  0  0
 22 31  1  0  0  0  0
 23 24  1  0  0  0  0
 23 25  2  0  0  0  0
 32 33  1  0  0  0  0
 32 37  1  0  0  0  0
 33 34  1  0  0  0  0
 33 36  1  0  0  0  0
 33 38  1  0  0  0  0
 34 35  2  0  0  0  0
 34 42  1  0  0  0  0
 36 39  1  0  0  0  0
 36 40  1  0  0  0  0
 36 41  1  0  0  0  0
 42 43  1  0  0  0  0
 42 44  1  0  0  0  0
 43 45  1  0  0  0  0
 43 46  1  0  0  0  0
 43 47  1  0  0  0  0
M  CHG  1  24  -1
M  END
$$$$

  -OEChem-05262216243D

 47 46  0     1  0  0  0  0  0999 V2000
   -1.0728   -2.4531    1.9190 C   0  0  0  0  0  0  0  0  0  0  0  0
   -0.2280   -1.8809    2.5930 O   0  0  0  0  0  0  0  0  0  0  0  0
   -2.5372   -2.3330    2.3007 C   0  0  0  0  0  0  0  0  0  0  0  0
   -2.9202   -3.3115    2.6000 H   0  0  0  0  0  0  0  0  0  0  0  0
   -2.6597   -1.6338    3.1321 H   0  0  0  0  0  0  0  0  0  0  0  0
   -3.1217   -1.9752    1.4485 H   0  0  0  0  0  0  0  0  0  0  0  0
   -0.7337   -3.1040    0.7514 N   0  0  0  0  0  0  0  0  0  0  0  0
    0.6298   -3.3833    0.2628 C   0  0  2  0  0  0  0  0  0  0  0  0
    1.5794   -2.1931   -0.1029 C   0  0  0  0  0  0  0  0  0  0  0  0
    2.7818   -2.4085   -0.1800 O   0  0  0  0  0  0  0  0  0  0  0  0
    1.2973   -4.3307    1.2762 C   0  0  0  0  0  0  0  0  0  0  0  0
   -1.5208   -3.2993    0.1137 H   0  0  0  0  0  0  0  0  0  0  0  0
    0.5169   -3.9536   -0.6632 H   0  0  0  0  0  0  0  0  0  0  0  0
    0.6216   -5.1513    1.5352 H   0  0  0  0  0  0  0  0  0  0  0  0
    2.2096   -4.7614    0.8524 H   0  0  0  0  0  0  0  0  0  0  0  0
    1.5647   -3.7941    2.1916 H   0  0  0  0  0  0  0  0  0  0  0  0
    1.3745   -0.8256   -0.1265 N   0  0  0  0  0  0  0  0  0  0  0  0
    0.3238    0.0467   -0.7006 C   0  0  2  0  0  0  0  0  0  0  0  0
    0.2423    1.2868    0.2128 C   0  0  0  0  0  0  0  0  0  0  0  0
    1.1549    2.1027    0.2077 O   0  0  0  0  0  0  0  0  0  0  0  0
   -1.0684   -0.5436   -0.9587 C   0  0  0  0  0  0  0  0  0  0  0  0
   -1.1127   -1.6096   -2.0631 C   0  0  0  0  0  0  0  0  0  0  0  0
   -2.5417   -2.1191   -2.1701 C   0  0  0  0  0  0  0  0  0  0  0  0
   -3.2981   -1.6771   -3.0642 O   0  5  0  0  0  0  0  0  0  0  0  0
   -2.8871   -2.8983   -1.2401 O   0  0  0  0  0  0  0  0  0  0  0  0
    2.2818   -0.3669   -0.0700 H   0  0  0  0  0  0  0  0  0  0  0  0
    0.6893    0.3951   -1.6720 H   0  0  0  0  0  0  0  0  0  0  0  0
   -1.7173    0.2736   -1.2948 H   0  0  0  0  0  0  0  0  0  0  0  0
   -1.5124   -0.9073   -0.0399 H   0  0  0  0  0  0  0  0  0  0  0  0
   -0.4383   -2.4410   -1.8883 H   0  0  0  0  0  0  0  0  0  0  0  0
   -0.8171   -1.1581   -3.0149 H   0  0  0  0  0  0  0  0  0  0  0  0
   -0.8044    1.4499    1.1035 N   0  0  0  0  0  0  0  0  0  0  0  0
   -0.8545    2.4995    2.1314 C   0  0  2  0  0  0  0  0  0  0  0  0
   -0.1235    2.1367    3.4463 C   0  0  0  0  0  0  0  0  0  0  0  0
   -0.0350    2.9756    4.3369 O   0  0  0  0  0  0  0  0  0  0  0  0
   -2.3342    2.7918    2.3960 C   0  0  0  0  0  0  0  0  0  0  0  0
   -1.4651    0.6807    1.1657 H   0  0  0  0  0  0  0  0  0  0  0  0
   -0.3884    3.4124    1.7455 H   0  0  0  0  0  0  0  0  0  0  0  0
   -2.8323    1.9096    2.8102 H   0  0  0  0  0  0  0  0  0  0  0  0
   -2.4375    3.6156    3.1092 H   0  0  0  0  0  0  0  0  0  0  0  0
   -2.8380    3.0762    1.4669 H   0  0  0  0  0  0  0  0  0  0  0  0
    0.3503    0.8583    3.6871 N   0  0  0  0  0  0  0  0  0  0  0  0
    1.0145    0.4600    4.9188 C   0  0  0  0  0  0  0  0  0  0  0  0
    0.2281    0.1521    2.9585 H   0  0  0  0  0  0  0  0  0  0  0  0
    1.9104    1.0670    5.0847 H   0  0  0  0  0  0  0  0  0  0  0  0
    0.3408    0.5789    5.7732 H   0  0  0  0  0  0  0  0  0  0  0  0
    1.3147   -0.5908    4.8574 H   0  0  0  0  0  0  0  0  0  0  0  0
  1  2  2  0  0  0  0
  1  3  1  0  0  0  0
  1  7  1  0  0  0  0
  3  4  1  0  0  0  0
  3  5  1  0  0  0  0
  3  6  1  0  0  0  0
  7  8  1  0  0  0  0
  7 12  1  0  0  0  0
  8  9  1  0  0  0  0
  8 11  1  0  0  0  0
  8 13  1  0  0  0  0
  9 10  2  0  0  0  0
  9 17  1  0  0  0  0
 11 14  1  0  0  0  0
 11 15  1  0  0  0  0
 11 16  1  0  0  0  0
 17 18  1  0  0  0  0
 17 26  1  0  0  0  0
 18 19  1  0  0  0  0
 18 21  1  0  0  0  0
 18 27  1  0  0  0  0
 19 20  2  0  0  0  0
 19 32  1  0  0  0  0
 21 22  1  0  0  0  0
 21 28  1  0  0  0  0
 21 29  1  0  0  0  0
 22 23  1  0  0  0  0
 22 30  1  0  0  0  0
 22 31  1  0  0  0  0
 23 24  1  0  0  0  0
 23 25  2  0  0  0  0
 32 33  1  0  0  0  0
 32 37  1  0  0  0  0
 33 34  1  0  0  0  0
 33 36  1  0  0  0  0
 33 38  1  0  0  0  0
 34 35  2  0  0  0  0
 34 42  1  0  0  0  0
 36 39  1  0  0  0  0
 36 40  1  0  0  0  0
 36 41  1  0  0  0  0
 42 43  1  0  0  0  0
 42 44  1  0  0  0  0
 43 45  1  0  0  0  0
 43 46  1  0  0  0  0
 43 47  1  0  0  0  0
M  CHG  1  24  -1
M  END
$$$$

  -OEChem-05262216243D

 47 46  0     1  0  0  0  0  0999 V2000
   -0.3456   -2.9527    1.8248 C   0  0  0  0  0  0  0  0  0  0  0  0
    0.7074   -2.5672    2.3115 O   0  0  0  0  0  0  0  0  0  0  0  0
   -1.6204   -2.8826    2.6460 C   0  0  0  0  0  0  0  0  0  0  0  0
   -2.0295   -3.8866    2.7792 H   0  0  0  0  0  0  0  0  0  0  0  0
   -1.4165   -2.4487    3.6288 H   0  0  0  0  0  0  0  0  0  0  0  0
   -2.3655   -2.2656    2.1376 H   0  0  0  0  0  0  0  0  0  0  0  0
   -0.4060   -3.3996    0.5195 N   0  0  0  0  0  0  0  0  0  0  0  0
    0.7330   -3.5443   -0.4065 C   0  0  2  0  0  0  0  0  0  0  0  0
    1.5003   -2.2518   -0.8460 C   0  0  0  0  0  0  0  0  0  0  0  0
    2.6485   -2.3571   -1.2590 O   0  0  0  0  0  0  0  0  0  0  0  0
    1.6937   -4.6006    0.1708 C   0  0  0  0  0  0  0  0  0  0  0  0
   -1.3554   -3.5199    0.1339 H   0  0  0  0  0  0  0  0  0  0  0  0
    0.3376   -3.9804   -1.3270 H   0  0  0  0  0  0  0  0  0  0  0  0
    1.1376   -5.4849    0.4960 H   0  0  0  0  0  0  0  0  0  0  0  0
    2.4172   -4.9120   -0.5888 H   0  0  0  0  0  0  0  0  0  0  0  0
    2.2477   -4.2008    1.0252 H   0  0  0  0  0  0  0  0  0  0  0  0
    1.2249   -0.9071   -0.6644 N   0  0  0  0  0  0  0  0  0  0  0  0
    0.0151   -0.0624   -0.8236 C   0  0  2  0  0  0  0  0  0  0  0  0
    0.1058    1.0925    0.1928 C   0  0  0  0  0  0  0  0  0  0  0  0
    0.7536    2.0962   -0.0827 O   0  0  0  0  0  0  0  0  0  0  0  0
   -1.3617   -0.7336   -0.7514 C   0  0  0  0  0  0  0  0  0  0  0  0
   -1.6585   -1.6862   -1.9191 C   0  0  0  0  0  0  0  0  0  0  0  0
   -3.0294   -2.3074   -1.7021 C   0  0  0  0  0  0  0  0  0  0  0  0
   -4.0140   -1.9043   -2.3629 O   0  5  0  0  0  0  0  0  0  0  0  0
   -3.0670   -3.1766   -0.7889 O   0  0  0  0  0  0  0  0  0  0  0  0
    2.0895   -0.3917   -0.8097 H   0  0  0  0  0  0  0  0  0  0  0  0
    0.0748    0.3920   -1.8176 H   0  0  0  0  0  0  0  0  0  0  0  0
   -2.1227    0.0545   -0.7875 H   0  0  0  0  0  0  0  0  0  0  0  0
   -1.4969   -1.2263    0.2062 H   0  0  0  0  0  0  0  0  0  0  0  0
   -0.9170   -2.4645   -2.0450 H   0  0  0  0  0  0  0  0  0  0  0  0
   -1.6691   -1.1141   -2.8517 H   0  0  0  0  0  0  0  0  0  0  0  0
   -0.4213    0.9599    1.4640 N   0  0  0  0  0  0  0  0  0  0  0  0
   -0.1809    1.8921    2.5694 C   0  0  2  0  0  0  0  0  0  0  0  0
   -0.3696    1.2081    3.9395 C   0  0  0  0  0  0  0  0  0  0  0  0
   -1.2270    0.3449    4.0909 O   0  0  0  0  0  0  0  0  0  0  0  0
   -1.1430    3.0775    2.4408 C   0  0  0  0  0  0  0  0  0  0  0  0
   -0.8102    0.0485    1.7051 H   0  0  0  0  0  0  0  0  0  0  0  0
    0.8508    2.2549    2.5158 H   0  0  0  0  0  0  0  0  0  0  0  0
   -2.1812    2.7325    2.4830 H   0  0  0  0  0  0  0  0  0  0  0  0
   -0.9789    3.7917    3.2529 H   0  0  0  0  0  0  0  0  0  0  0  0
   -0.9871    3.5947    1.4892 H   0  0  0  0  0  0  0  0  0  0  0  0
    0.4021    1.5921    5.0218 N   0  0  0  0  0  0  0  0  0  0  0  0
    0.3325    0.9290    6.3174 C   0  0  0  0  0  0  0  0  0  0  0  0
    1.1633    2.2394    4.8416 H   0  0  0  0  0  0  0  0  0  0  0  0
   -0.6839    0.9849    6.7212 H   0  0  0  0  0  0  0  0  0  0  0  0
    0.6175   -0.1241    6.2229 H   0  0  0  0  0  0  0  0  0  0  0  0
    1.0125    1.4109    7.0260 H   0  0  0  0  0  0  0  0  0  0  0  0
  1  2  2  0  0  0  0
  1  3  1  0  0  0  0
  1  7  1  0  0  0  0
  3  4  1  0  0  0  0
  3  5  1  0  0  0  0
  3  6  1  0  0  0  0
  7  8  1  0  0  0  0
  7 12  1  0  0  0  0
  8  9  1  0  0  0  0
  8 11  1  0  0  0  0
  8 13  1  0  0  0  0
  9 10  2  0  0  0  0
  9 17  1  0  0  0  0
 11 14  1  0  0  0  0
 11 15  1  0  0  0  0
 11 16  1  0  0  0  0
 17 18  1  0  0  0  0
 17 26  1  0  0  0  0
 18 19  1  0  0  0  0
 18 21  1  0  0  0  0
 18 27  1  0  0  0  0
 19 20  2  0  0  0  0
 19 32  1  0  0  0  0
 21 22  1  0  0  0  0
 21 28  1  0  0  0  0
 21 29  1  0  0  0  0
 22 23  1  0  0  0  0
 22 30  1  0  0  0  0
 22 31  1  0  0  0  0
 23 24  1  0  0  0  0
 23 25  2  0  0  0  0
 32 33  1  0  0  0  0
 32 37  1  0  0  0  0
 33 34  1  0  0  0  0
 33 36  1  0  0  0  0
 33 38  1  0  0  0  0
 34 35  2  0  0  0  0
 34 42  1  0  0  0  0
 36 39  1  0  0  0  0
 36 40  1  0  0  0  0
 36 41  1  0  0  0  0
 42 43  1  0  0  0  0
 42 44  1  0  0  0  0
 43 45  1  0  0  0  0
 43 46  1  0  0  0  0
 43 47  1  0  0  0  0
M  CHG  1  24  -1
M  END
$$$$

  -OEChem-05262216243D

 47 46  0     1  0  0  0  0  0999 V2000
   -0.7317   -5.3419   -0.9837 C   0  0  0  0  0  0  0  0  0  0  0  0
    0.0881   -5.3161   -1.8917 O   0  0  0  0  0  0  0  0  0  0  0  0
   -2.0641   -6.0410   -1.1785 C   0  0  0  0  0  0  0  0  0  0  0  0
   -2.8782   -5.3149   -1.0971 H   0  0  0  0  0  0  0  0  0  0  0  0
   -2.1080   -6.5052   -2.1673 H   0  0  0  0  0  0  0  0  0  0  0  0
   -2.1978   -6.8131   -0.4177 H   0  0  0  0  0  0  0  0  0  0  0  0
   -0.4368   -4.7596    0.2330 N   0  0  0  0  0  0  0  0  0  0  0  0
    0.6376   -3.7687    0.4013 C   0  0  2  0  0  0  0  0  0  0  0  0
    0.3309   -2.7386    1.5151 C   0  0  0  0  0  0  0  0  0  0  0  0
    0.1340   -3.0979    2.6666 O   0  0  0  0  0  0  0  0  0  0  0  0
    1.9414   -4.5105    0.7166 C   0  0  0  0  0  0  0  0  0  0  0  0
   -1.2025   -4.7306    0.9034 H   0  0  0  0  0  0  0  0  0  0  0  0
    0.7673   -3.2085   -0.5311 H   0  0  0  0  0  0  0  0  0  0  0  0
    2.2020   -5.1890   -0.1014 H   0  0  0  0  0  0  0  0  0  0  0  0
    2.7606   -3.7974    0.8481 H   0  0  0  0  0  0  0  0  0  0  0  0
    1.8365   -5.0961    1.6355 H   0  0  0  0  0  0  0  0  0  0  0  0
    0.7488   -1.4339    1.4277 N   0  0  0  0  0  0  0  0  0  0  0  0
    0.1854   -0.3923    0.5381 C   0  0  2  0  0  0  0  0  0  0  0  0
    0.3726    0.9709    1.2397 C   0  0  0  0  0  0  0  0  0  0  0  0
    1.3259    1.6825    0.9470 O   0  0  0  0  0  0  0  0  0  0  0  0
   -1.3334   -0.4720    0.2074 C   0  0  0  0  0  0  0  0  0  0  0  0
   -1.8153   -1.6578   -0.6436 C   0  0  0  0  0  0  0  0  0  0  0  0
   -3.3274   -1.6455   -0.8859 C   0  0  0  0  0  0  0  0  0  0  0  0
   -3.8581   -2.7538   -1.1417 O   0  5  0  0  0  0  0  0  0  0  0  0
   -3.9536   -0.5650   -0.7469 O   0  0  0  0  0  0  0  0  0  0  0  0
    0.9232   -1.0990    2.3727 H   0  0  0  0  0  0  0  0  0  0  0  0
    0.7463   -0.3835   -0.4021 H   0  0  0  0  0  0  0  0  0  0  0  0
   -1.6116    0.4467   -0.3231 H   0  0  0  0  0  0  0  0  0  0  0  0
   -1.9040   -0.4972    1.1417 H   0  0  0  0  0  0  0  0  0  0  0  0
   -1.6145   -2.5841   -0.1243 H   0  0  0  0  0  0  0  0  0  0  0  0
   -1.2912   -1.6731   -1.6032 H   0  0  0  0  0  0  0  0  0  0  0  0
   -0.4229    1.3473    2.3084 N   0  0  0  0  0  0  0  0  0  0  0  0
   -0.3566    2.6581    2.9739 C   0  0  2  0  0  0  0  0  0  0  0  0
    0.7936    2.7643    4.0083 C   0  0  0  0  0  0  0  0  0  0  0  0
    0.6022    3.1654    5.1515 O   0  0  0  0  0  0  0  0  0  0  0  0
   -1.7370    2.9107    3.5926 C   0  0  0  0  0  0  0  0  0  0  0  0
   -1.2137    0.7424    2.5204 H   0  0  0  0  0  0  0  0  0  0  0  0
   -0.1812    3.4340    2.2210 H   0  0  0  0  0  0  0  0  0  0  0  0
   -1.9514    2.1692    4.3687 H   0  0  0  0  0  0  0  0  0  0  0  0
   -1.7750    3.9069    4.0445 H   0  0  0  0  0  0  0  0  0  0  0  0
   -2.5159    2.8514    2.8258 H   0  0  0  0  0  0  0  0  0  0  0  0
    2.0798    2.4370    3.6259 N   0  0  0  0  0  0  0  0  0  0  0  0
    3.2482    2.5587    4.4853 C   0  0  0  0  0  0  0  0  0  0  0  0
    2.1995    2.1685    2.6450 H   0  0  0  0  0  0  0  0  0  0  0  0
    3.4235    3.6077    4.7452 H   0  0  0  0  0  0  0  0  0  0  0  0
    3.1079    1.9841    5.4068 H   0  0  0  0  0  0  0  0  0  0  0  0
    4.1344    2.1745    3.9714 H   0  0  0  0  0  0  0  0  0  0  0  0
  1  2  2  0  0  0  0
  1  3  1  0  0  0  0
  1  7  1  0  0  0  0
  3  4  1  0  0  0  0
  3  5  1  0  0  0  0
  3  6  1  0  0  0  0
  7  8  1  0  0  0  0
  7 12  1  0  0  0  0
  8  9  1  0  0  0  0
  8 11  1  0  0  0  0
  8 13  1  0  0  0  0
  9 10  2  0  0  0  0
  9 17  1  0  0  0  0
 11 14  1  0  0  0  0
 11 15  1  0  0  0  0
 11 16  1  0  0  0  0
 17 18  1  0  0  0  0
 17 26  1  0  0  0  0
 18 19  1  0  0  0  0
 18 21  1  0  0  0  0
 18 27  1  0  0  0  0
 19 20  2  0  0  0  0
 19 32  1  0  0  0  0
 21 22  1  0  0  0  0
 21 28  1  0  0  0  0
 21 29  1  0  0  0  0
 22 23  1  0  0  0  0
 22 30  1  0  0  0  0
 22 31  1  0  0  0  0
 23 24  1  0  0  0  0
 23 25  2  0  0  0  0
 32 33  1  0  0  0  0
 32 37  1  0  0  0  0
 33 34  1  0  0  0  0
 33 36  1  0  0  0  0
 33 38  1  0  0  0  0
 34 35  2  0  0  0  0
 34 42  1  0  0  0  0
 36 39  1  0  0  0  0
 36 40  1  0  0  0  0
 36 41  1  0  0  0  0
 42 43  1  0  0  0  0
 42 44  1  0  0  0  0
 43 45  1  0  0  0  0
 43 46  1  0  0  0  0
 43 47  1  0  0  0  0
M  CHG  1  24  -1
M  END
$$$$

  -OEChem-05262216243D

 47 46  0     1  0  0  0  0  0999 V2000
   -0.5760   -2.9268    1.7293 C   0  0  0  0  0  0  0  0  0  0  0  0
    0.1773   -2.2754    2.4442 O   0  0  0  0  0  0  0  0  0  0  0  0
   -1.9786   -3.2445    2.2141 C   0  0  0  0  0  0  0  0  0  0  0  0
   -2.0792   -4.3204    2.3755 H   0  0  0  0  0  0  0  0  0  0  0  0
   -2.1868   -2.7233    3.1521 H   0  0  0  0  0  0  0  0  0  0  0  0
   -2.7143   -2.9329    1.4670 H   0  0  0  0  0  0  0  0  0  0  0  0
   -0.2194   -3.2483    0.4369 N   0  0  0  0  0  0  0  0  0  0  0  0
    1.1116   -3.0805   -0.1767 C   0  0  2  0  0  0  0  0  0  0  0  0
    1.6983   -1.6400   -0.3512 C   0  0  0  0  0  0  0  0  0  0  0  0
    2.8992   -1.5170   -0.5490 O   0  0  0  0  0  0  0  0  0  0  0  0
    2.0926   -3.9901    0.5856 C   0  0  0  0  0  0  0  0  0  0  0  0
   -1.0045   -3.4995   -0.1845 H   0  0  0  0  0  0  0  0  0  0  0  0
    1.0392   -3.4853   -1.1902 H   0  0  0  0  0  0  0  0  0  0  0  0
    1.6686   -4.9913    0.7075 H   0  0  0  0  0  0  0  0  0  0  0  0
    3.0339   -4.0835    0.0348 H   0  0  0  0  0  0  0  0  0  0  0  0
    2.3143   -3.5810    1.5758 H   0  0  0  0  0  0  0  0  0  0  0  0
    1.1865   -0.4074    0.0059 N   0  0  0  0  0  0  0  0  0  0  0  0
   -0.0815    0.2921   -0.3228 C   0  0  2  0  0  0  0  0  0  0  0  0
   -0.4044    1.1837    0.8886 C   0  0  0  0  0  0  0  0  0  0  0  0
   -0.3383    2.4020    0.8015 O   0  0  0  0  0  0  0  0  0  0  0  0
   -1.3132   -0.5574   -0.6558 C   0  0  0  0  0  0  0  0  0  0  0  0
   -1.2031   -1.3508   -1.9676 C   0  0  0  0  0  0  0  0  0  0  0  0
   -2.4725   -2.1696   -2.1434 C   0  0  0  0  0  0  0  0  0  0  0  0
   -3.3615   -1.7953   -2.9412 O   0  5  0  0  0  0  0  0  0  0  0  0
   -2.5466   -3.1751   -1.3839 O   0  0  0  0  0  0  0  0  0  0  0  0
    1.9741    0.2310    0.0953 H   0  0  0  0  0  0  0  0  0  0  0  0
    0.1038    0.9432   -1.1836 H   0  0  0  0  0  0  0  0  0  0  0  0
   -2.1605    0.1278   -0.7771 H   0  0  0  0  0  0  0  0  0  0  0  0
   -1.5826   -1.1960    0.1777 H   0  0  0  0  0  0  0  0  0  0  0  0
   -0.3404   -2.0065   -2.0078 H   0  0  0  0  0  0  0  0  0  0  0  0
   -1.1059   -0.6517   -2.8035 H   0  0  0  0  0  0  0  0  0  0  0  0
   -0.5846    0.5751    2.1179 N   0  0  0  0  0  0  0  0  0  0  0  0
   -0.4234    1.2632    3.4057 C   0  0  2  0  0  0  0  0  0  0  0  0
    0.9763    1.0412    4.0216 C   0  0  0  0  0  0  0  0  0  0  0  0
    1.3972    1.8101    4.8788 O   0  0  0  0  0  0  0  0  0  0  0  0
   -1.5099    0.7354    4.3439 C   0  0  0  0  0  0  0  0  0  0  0  0
   -0.4281   -0.4350    2.1133 H   0  0  0  0  0  0  0  0  0  0  0  0
   -0.5644    2.3426    3.2836 H   0  0  0  0  0  0  0  0  0  0  0  0
   -1.3952   -0.3425    4.4968 H   0  0  0  0  0  0  0  0  0  0  0  0
   -1.4468    1.2353    5.3155 H   0  0  0  0  0  0  0  0  0  0  0  0
   -2.5008    0.9253    3.9201 H   0  0  0  0  0  0  0  0  0  0  0  0
    1.7382   -0.0614    3.6719 N   0  0  0  0  0  0  0  0  0  0  0  0
    3.0251   -0.3786    4.2723 C   0  0  0  0  0  0  0  0  0  0  0  0
    1.2915   -0.7685    3.0830 H   0  0  0  0  0  0  0  0  0  0  0  0
    3.7092    0.4721    4.1884 H   0  0  0  0  0  0  0  0  0  0  0  0
    2.9009   -0.6307    5.3302 H   0  0  0  0  0  0  0  0  0  0  0  0
    3.4761   -1.2337    3.7593 H   0  0  0  0  0  0  0  0  0  0  0  0
  1  2  2  0  0  0  0
  1  3  1  0  0  0  0
  1  7  1  0  0  0  0
  3  4  1  0  0  0  0
  3  5  1  0  0  0  0
  3  6  1  0  0  0  0
  7  8  1  0  0  0  0
  7 12  1  0  0  0  0
  8  9  1  0  0  0  0
  8 11  1  0  0  0  0
  8 13  1  0  0  0  0
  9 10  2  0  0  0  0
  9 17  1  0  0  0  0
 11 14  1  0  0  0  0
 11 15  1  0  0  0  0
 11 16  1  0  0  0  0
 17 18  1  0  0  0  0
 17 26  1  0  0  0  0
 18 19  1  0  0  0  0
 18 21  1  0  0  0  0
 18 27  1  0  0  0  0
 19 20  2  0  0  0  0
 19 32  1  0  0  0  0
 21 22  1  0  0  0  0
 21 28  1  0  0  0  0
 21 29  1  0  0  0  0
 22 23  1  0  0  0  0
 22 30  1  0  0  0  0
 22 31  1  0  0  0  0
 23 24  1  0  0  0  0
 23 25  2  0  0  0  0
 32 33  1  0  0  0  0
 32 37  1  0  0  0  0
 33 34  1  0  0  0  0
 33 36  1  0  0  0  0
 33 38  1  0  0  0  0
 34 35  2  0  0  0  0
 34 42  1  0  0  0  0
 36 39  1  0  0  0  0
 36 40  1  0  0  0  0
 36 41  1  0  0  0  0
 42 43  1  0  0  0  0
 42 44  1  0  0  0  0
 43 45  1  0  0  0  0
 43 46  1  0  0  0  0
 43 47  1  0  0  0  0
M  CHG  1  24  -1
M  END
$$$$

  -OEChem-05262216243D

 47 46  0     1  0  0  0  0  0999 V2000
   -0.8844   -3.4513    1.6338 C   0  0  0  0  0  0  0  0  0  0  0  0
    0.0334   -3.2689    2.4242 O   0  0  0  0  0  0  0  0  0  0  0  0
   -2.3237   -3.3827    2.1106 C   0  0  0  0  0  0  0  0  0  0  0  0
   -2.8090   -4.3495    1.9575 H   0  0  0  0  0  0  0  0  0  0  0  0
   -2.3621   -3.1302    3.1732 H   0  0  0  0  0  0  0  0  0  0  0  0
   -2.8725   -2.6236    1.5464 H   0  0  0  0  0  0  0  0  0  0  0  0
   -0.6113   -3.6240    0.2944 N   0  0  0  0  0  0  0  0  0  0  0  0
    0.7405   -3.7948   -0.2604 C   0  0  2  0  0  0  0  0  0  0  0  0
    1.5811   -2.5245   -0.5987 C   0  0  0  0  0  0  0  0  0  0  0  0
    2.6588   -2.6741   -1.1576 O   0  0  0  0  0  0  0  0  0  0  0  0
    0.5836   -4.7059   -1.4860 C   0  0  0  0  0  0  0  0  0  0  0  0
   -1.4069   -3.4988   -0.3504 H   0  0  0  0  0  0  0  0  0  0  0  0
    1.3370   -4.3431    0.4761 H   0  0  0  0  0  0  0  0  0  0  0  0
    0.0054   -4.2082   -2.2699 H   0  0  0  0  0  0  0  0  0  0  0  0
    1.5628   -4.9738   -1.8944 H   0  0  0  0  0  0  0  0  0  0  0  0
    0.0656   -5.6290   -1.2084 H   0  0  0  0  0  0  0  0  0  0  0  0
    1.5868   -1.3182    0.0699 N   0  0  0  0  0  0  0  0  0  0  0  0
    0.6001   -0.2114    0.0023 C   0  0  2  0  0  0  0  0  0  0  0  0
    0.5940    0.4995    1.3689 C   0  0  0  0  0  0  0  0  0  0  0  0
    0.6450    1.7224    1.4379 O   0  0  0  0  0  0  0  0  0  0  0  0
   -0.8535   -0.5846   -0.3163 C   0  0  0  0  0  0  0  0  0  0  0  0
   -1.0868   -1.1292   -1.7353 C   0  0  0  0  0  0  0  0  0  0  0  0
   -2.5578   -1.4859   -1.8813 C   0  0  0  0  0  0  0  0  0  0  0  0
   -3.3388   -0.7138   -2.4828 O   0  5  0  0  0  0  0  0  0  0  0  0
   -2.8903   -2.5543   -1.2984 O   0  0  0  0  0  0  0  0  0  0  0  0
    2.5439   -0.9769    0.0385 H   0  0  0  0  0  0  0  0  0  0  0  0
    0.9355    0.5016   -0.7579 H   0  0  0  0  0  0  0  0  0  0  0  0
   -1.4516    0.3312   -0.2365 H   0  0  0  0  0  0  0  0  0  0  0  0
   -1.2534   -1.2492    0.4399 H   0  0  0  0  0  0  0  0  0  0  0  0
   -0.4886   -2.0064   -1.9613 H   0  0  0  0  0  0  0  0  0  0  0  0
   -0.8219   -0.3616   -2.4684 H   0  0  0  0  0  0  0  0  0  0  0  0
    0.5741   -0.2416    2.5382 N   0  0  0  0  0  0  0  0  0  0  0  0
    0.4081    0.3249    3.8851 C   0  0  2  0  0  0  0  0  0  0  0  0
    1.7110    0.9322    4.4649 C   0  0  0  0  0  0  0  0  0  0  0  0
    2.1117    0.6611    5.5927 O   0  0  0  0  0  0  0  0  0  0  0  0
   -0.1746   -0.7857    4.7677 C   0  0  0  0  0  0  0  0  0  0  0  0
    0.5580   -1.2620    2.4349 H   0  0  0  0  0  0  0  0  0  0  0  0
   -0.3268    1.1351    3.8408 H   0  0  0  0  0  0  0  0  0  0  0  0
    0.5304   -1.6193    4.8527 H   0  0  0  0  0  0  0  0  0  0  0  0
   -0.3858   -0.4043    5.7714 H   0  0  0  0  0  0  0  0  0  0  0  0
   -1.1084   -1.1616    4.3390 H   0  0  0  0  0  0  0  0  0  0  0  0
    2.4101    1.8629    3.7210 N   0  0  0  0  0  0  0  0  0  0  0  0
    3.6046    2.5551    4.1811 C   0  0  0  0  0  0  0  0  0  0  0  0
    2.0073    2.0991    2.8097 H   0  0  0  0  0  0  0  0  0  0  0  0
    3.3865    3.1376    5.0821 H   0  0  0  0  0  0  0  0  0  0  0  0
    4.3989    1.8366    4.4072 H   0  0  0  0  0  0  0  0  0  0  0  0
    3.9653    3.2374    3.4055 H   0  0  0  0  0  0  0  0  0  0  0  0
  1  2  2  0  0  0  0
  1  3  1  0  0  0  0
  1  7  1  0  0  0  0
  3  4  1  0  0  0  0
  3  5  1  0  0  0  0
  3  6  1  0  0  0  0
  7  8  1  0  0  0  0
  7 12  1  0  0  0  0
  8  9  1  0  0  0  0
  8 11  1  0  0  0  0
  8 13  1  0  0  0  0
  9 10  2  0  0  0  0
  9 17  1  0  0  0  0
 11 14  1  0  0  0  0
 11 15  1  0  0  0  0
 11 16  1  0  0  0  0
 17 18  1  0  0  0  0
 17 26  1  0  0  0  0
 18 19  1  0  0  0  0
 18 21  1  0  0  0  0
 18 27  1  0  0  0  0
 19 20  2  0  0  0  0
 19 32  1  0  0  0  0
 21 22  1  0  0  0  0
 21 28  1  0  0  0  0
 21 29  1  0  0  0  0
 22 23  1  0  0  0  0
 22 30  1  0  0  0  0
 22 31  1  0  0  0  0
 23 24  1  0  0  0  0
 23 25  2  0  0  0  0
 32 33  1  0  0  0  0
 32 37  1  0  0  0  0
 33 34  1  0  0  0  0
 33 36  1  0  0  0  0
 33 38  1  0  0  0  0
 34 35  2  0  0  0  0
 34 42  1  0  0  0  0
 36 39  1  0  0  0  0
 36 40  1  0  0  0  0
 36 41  1  0  0  0  0
 42 43  1  0  0  0  0
 42 44  1  0  0  0  0
 43 45  1  0  0  0  0
 43 46  1  0  0  0  0
 43 47  1  0  0  0  0
M  CHG  1  24  -1
M  END
$$$$

  -OEChem-05262216243D

 47 46  0     1  0  0  0  0  0999 V2000
   -1.4112   -5.5505   -0.9534 C   0  0  0  0  0  0  0  0  0  0  0  0
   -1.0523   -5.5383   -2.1232 O   0  0  0  0  0  0  0  0  0  0  0  0
   -2.7323   -6.1909   -0.5705 C   0  0  0  0  0  0  0  0  0  0  0  0
   -2.5650   -6.9986    0.1453 H   0  0  0  0  0  0  0  0  0  0  0  0
   -3.3887   -5.4422   -0.1175 H   0  0  0  0  0  0  0  0  0  0  0  0
   -3.2271   -6.5978   -1.4564 H   0  0  0  0  0  0  0  0  0  0  0  0
   -0.6030   -5.0112    0.0277 N   0  0  0  0  0  0  0  0  0  0  0  0
    0.4848   -4.0657   -0.2682 C   0  0  2  0  0  0  0  0  0  0  0  0
    0.7516   -3.0845    0.8998 C   0  0  0  0  0  0  0  0  0  0  0  0
    1.0749   -3.4991    2.0031 O   0  0  0  0  0  0  0  0  0  0  0  0
    1.7578   -4.8596   -0.5862 C   0  0  0  0  0  0  0  0  0  0  0  0
   -1.0158   -4.9621    0.9572 H   0  0  0  0  0  0  0  0  0  0  0  0
    0.2167   -3.4655   -1.1445 H   0  0  0  0  0  0  0  0  0  0  0  0
    1.5991   -5.5069   -1.4538 H   0  0  0  0  0  0  0  0  0  0  0  0
    2.5831   -4.1776   -0.8114 H   0  0  0  0  0  0  0  0  0  0  0  0
    2.0428   -5.4836    0.2667 H   0  0  0  0  0  0  0  0  0  0  0  0
    1.1551   -1.7907    0.6801 N   0  0  0  0  0  0  0  0  0  0  0  0
    0.3498   -0.6929    0.0880 C   0  0  2  0  0  0  0  0  0  0  0  0
    0.8257    0.6575    0.6698 C   0  0  0  0  0  0  0  0  0  0  0  0
    0.8722    1.6493   -0.0467 O   0  0  0  0  0  0  0  0  0  0  0  0
   -1.1715   -0.6813    0.4238 C   0  0  0  0  0  0  0  0  0  0  0  0
   -2.0318   -1.8259   -0.1386 C   0  0  0  0  0  0  0  0  0  0  0  0
   -3.5070   -1.7396    0.2638 C   0  0  0  0  0  0  0  0  0  0  0  0
   -4.1333   -2.8281    0.3012 O   0  5  0  0  0  0  0  0  0  0  0  0
   -3.9892   -0.6247    0.5837 O   0  0  0  0  0  0  0  0  0  0  0  0
    1.7544   -1.5023    1.4489 H   0  0  0  0  0  0  0  0  0  0  0  0
    0.4834   -0.6848   -0.9982 H   0  0  0  0  0  0  0  0  0  0  0  0
   -1.5968    0.2565    0.0450 H   0  0  0  0  0  0  0  0  0  0  0  0
   -1.2935   -0.6741    1.5129 H   0  0  0  0  0  0  0  0  0  0  0  0
   -1.6852   -2.7666    0.2642 H   0  0  0  0  0  0  0  0  0  0  0  0
   -1.9519   -1.8581   -1.2286 H   0  0  0  0  0  0  0  0  0  0  0  0
    1.3503    0.7442    1.9488 N   0  0  0  0  0  0  0  0  0  0  0  0
    1.8703    1.9788    2.5505 C   0  0  2  0  0  0  0  0  0  0  0  0
    2.9573    1.7074    3.6111 C   0  0  0  0  0  0  0  0  0  0  0  0
    3.0980    0.5884    4.0914 O   0  0  0  0  0  0  0  0  0  0  0  0
    0.6945    2.7382    3.1726 C   0  0  0  0  0  0  0  0  0  0  0  0
    1.2544   -0.0672    2.5572 H   0  0  0  0  0  0  0  0  0  0  0  0
    2.3277    2.5997    1.7733 H   0  0  0  0  0  0  0  0  0  0  0  0
    0.2313    2.1416    3.9650 H   0  0  0  0  0  0  0  0  0  0  0  0
    1.0320    3.6865    3.6010 H   0  0  0  0  0  0  0  0  0  0  0  0
   -0.0633    2.9545    2.4123 H   0  0  0  0  0  0  0  0  0  0  0  0
    3.7865    2.7321    4.0317 N   0  0  0  0  0  0  0  0  0  0  0  0
    4.8357    2.5577    5.0278 C   0  0  0  0  0  0  0  0  0  0  0  0
    3.6531    3.6459    3.6086 H   0  0  0  0  0  0  0  0  0  0  0  0
    4.4081    2.2319    5.9818 H   0  0  0  0  0  0  0  0  0  0  0  0
    5.5621    1.8099    4.6927 H   0  0  0  0  0  0  0  0  0  0  0  0
    5.3624    3.5029    5.1901 H   0  0  0  0  0  0  0  0  0  0  0  0
  1  2  2  0  0  0  0
  1  3  1  0  0  0  0
  1  7  1  0  0  0  0
  3  4  1  0  0  0  0
  3  5  1  0  0  0  0
  3  6  1  0  0  0  0
  7  8  1  0  0  0  0
  7 12  1  0  0  0  0
  8  9  1  0  0  0  0
  8 11  1  0  0  0  0
  8 13  1  0  0  0  0
  9 10  2  0  0  0  0
  9 17  1  0  0  0  0
 11 14  1  0  0  0  0
 11 15  1  0  0  0  0
 11 16  1  0  0  0  0
 17 18  1  0  0  0  0
 17 26  1  0  0  0  0
 18 19  1  0  0  0  0
 18 21  1  0  0  0  0
 18 27  1  0  0  0  0
 19 20  2  0  0  0  0
 19 32  1  0  0  0  0
 21 22  1  0  0  0  0
 21 28  1  0  0  0  0
 21 29  1  0  0  0  0
 22 23  1  0  0  0  0
 22 30  1  0  0  0  0
 22 31  1  0  0  0  0
 23 24  1  0  0  0  0
 23 25  2  0  0  0  0
 32 33  1  0  0  0  0
 32 37  1  0  0  0  0
 33 34  1  0  0  0  0
 33 36  1  0  0  0  0
 33 38  1  0  0  0  0
 34 35  2  0  0  0  0
 34 42  1  0  0  0  0
 36 39  1  0  0  0  0
 36 40  1  0  0  0  0
 36 41  1  0  0  0  0
 42 43  1  0  0  0  0
 42 44  1  0  0  0  0
 43 45  1  0  0  0  0
 43 46  1  0  0  0  0
 43 47  1  0  0  0  0
M  CHG  1  24  -1
M  END
$$$$

  -OEChem-05262216243D

 47 46  0     1  0  0  0  0  0999 V2000
   -0.5865   -3.6103    1.6582 C   0  0  0  0  0  0  0  0  0  0  0  0
    0.4893   -3.6267    2.2440 O   0  0  0  0  0  0  0  0  0  0  0  0
   -1.8638   -3.3452    2.4340 C   0  0  0  0  0  0  0  0  0  0  0  0
   -1.8247   -3.8447    3.4052 H   0  0  0  0  0  0  0  0  0  0  0  0
   -1.9925   -2.2711    2.5882 H   0  0  0  0  0  0  0  0  0  0  0  0
   -2.7262   -3.7232    1.8776 H   0  0  0  0  0  0  0  0  0  0  0  0
   -0.6274   -3.7415    0.2861 N   0  0  0  0  0  0  0  0  0  0  0  0
    0.5557   -3.9939   -0.5490 C   0  0  2  0  0  0  0  0  0  0  0  0
    1.4157   -2.7682   -0.9816 C   0  0  0  0  0  0  0  0  0  0  0  0
    2.3686   -2.9590   -1.7240 O   0  0  0  0  0  0  0  0  0  0  0  0
    0.0724   -4.8066   -1.7581 C   0  0  0  0  0  0  0  0  0  0  0  0
   -1.5153   -3.4826   -0.1712 H   0  0  0  0  0  0  0  0  0  0  0  0
    1.2375   -4.6369    0.0172 H   0  0  0  0  0  0  0  0  0  0  0  0
   -0.6183   -4.2233   -2.3735 H   0  0  0  0  0  0  0  0  0  0  0  0
    0.9198   -5.1093   -2.3807 H   0  0  0  0  0  0  0  0  0  0  0  0
   -0.4460   -5.7099   -1.4224 H   0  0  0  0  0  0  0  0  0  0  0  0
    1.6290   -1.6096   -0.2643 N   0  0  0  0  0  0  0  0  0  0  0  0
    0.7498   -0.4164   -0.1273 C   0  0  2  0  0  0  0  0  0  0  0  0
    0.9952    0.2232    1.2572 C   0  0  0  0  0  0  0  0  0  0  0  0
    0.7102    1.3972    1.4647 O   0  0  0  0  0  0  0  0  0  0  0  0
   -0.7612   -0.6754   -0.2262 C   0  0  0  0  0  0  0  0  0  0  0  0
   -1.2626   -1.1311   -1.6063 C   0  0  0  0  0  0  0  0  0  0  0  0
   -2.7604   -1.3774   -1.5165 C   0  0  0  0  0  0  0  0  0  0  0  0
   -3.5682   -0.5670   -2.0254 O   0  5  0  0  0  0  0  0  0  0  0  0
   -3.0734   -2.4131   -0.8664 O   0  0  0  0  0  0  0  0  0  0  0  0
    2.5944   -1.3445   -0.4432 H   0  0  0  0  0  0  0  0  0  0  0  0
    1.0236    0.3101   -0.8986 H   0  0  0  0  0  0  0  0  0  0  0  0
   -1.2716    0.2724   -0.0179 H   0  0  0  0  0  0  0  0  0  0  0  0
   -1.0851   -1.3482    0.5593 H   0  0  0  0  0  0  0  0  0  0  0  0
   -0.7810   -2.0348   -1.9635 H   0  0  0  0  0  0  0  0  0  0  0  0
   -1.0627   -0.3474   -2.3429 H   0  0  0  0  0  0  0  0  0  0  0  0
    1.6624   -0.4824    2.2436 N   0  0  0  0  0  0  0  0  0  0  0  0
    1.8211   -0.0163    3.6299 C   0  0  2  0  0  0  0  0  0  0  0  0
    2.9810    0.9968    3.8102 C   0  0  0  0  0  0  0  0  0  0  0  0
    3.8354    0.8605    4.6805 O   0  0  0  0  0  0  0  0  0  0  0  0
    1.9873   -1.2674    4.5010 C   0  0  0  0  0  0  0  0  0  0  0  0
    1.7475   -1.4862    2.0680 H   0  0  0  0  0  0  0  0  0  0  0  0
    0.9029    0.4904    3.9449 H   0  0  0  0  0  0  0  0  0  0  0  0
    2.8984   -1.8087    4.2261 H   0  0  0  0  0  0  0  0  0  0  0  0
    2.0523   -0.9904    5.5578 H   0  0  0  0  0  0  0  0  0  0  0  0
    1.1315   -1.9378    4.3739 H   0  0  0  0  0  0  0  0  0  0  0  0
    3.0302    2.1181    3.0052 N   0  0  0  0  0  0  0  0  0  0  0  0
    4.0190    3.1788    3.1278 C   0  0  0  0  0  0  0  0  0  0  0  0
    2.2658    2.2150    2.3305 H   0  0  0  0  0  0  0  0  0  0  0  0
    3.9308    3.6737    4.1004 H   0  0  0  0  0  0  0  0  0  0  0  0
    5.0308    2.7729    3.0269 H   0  0  0  0  0  0  0  0  0  0  0  0
    3.8666    3.9259    2.3432 H   0  0  0  0  0  0  0  0  0  0  0  0
  1  2  2  0  0  0  0
  1  3  1  0  0  0  0
  1  7  1  0  0  0  0
  3  4  1  0  0  0  0
  3  5  1  0  0  0  0
  3  6  1  0  0  0  0
  7  8  1  0  0  0  0
  7 12  1  0  0  0  0
  8  9  1  0  0  0  0
  8 11  1  0  0  0  0
  8 13  1  0  0  0  0
  9 10  2  0  0  0  0
  9 17  1  0  0  0  0
 11 14  1  0  0  0  0
 11 15  1  0  0  0  0
 11 16  1  0  0  0  0
 17 18  1  0  0  0  0
 17 26  1  0  0  0  0
 18 19  1  0  0  0  0
 18 21  1  0  0  0  0
 18 27  1  0  0  0  0
 19 20  2  0  0  0  0
 19 32  1  0  0  0  0
 21 22  1  0  0  0  0
 21 28  1  0  0  0  0
 21 29  1  0  0  0  0
 22 23  1  0  0  0  0
 22 30  1  0  0  0  0
 22 31  1  0  0  0  0
 23 24  1  0  0  0  0
 23 25  2  0  0  0  0
 32 33  1  0  0  0  0
 32 37  1  0  0  0  0
 33 34  1  0  0  0  0
 33 36  1  0  0  0  0
 33 38  1  0  0  0  0
 34 35  2  0  0  0  0
 34 42  1  0  0  0  0
 36 39  1  0  0  0  0
 36 40  1  0  0  0  0
 36 41  1  0  0  0  0
 42 43  1  0  0  0  0
 42 44  1  0  0  0  0
 43 45  1  0  0  0  0
 43 46  1  0  0  0  0
 43 47  1  0  0  0  0
M  CHG  1  24  -1
M  END
$$$$

  -OEChem-05262216243D

 47 46  0     1  0  0  0  0  0999 V2000
   -1.4311   -5.5839   -0.7946 C   0  0  0  0  0  0  0  0  0  0  0  0
   -0.9701   -5.6610   -1.9255 O   0  0  0  0  0  0  0  0  0  0  0  0
   -2.8073   -6.1449   -0.4919 C   0  0  0  0  0  0  0  0  0  0  0  0
   -2.7258   -6.9813    0.2055 H   0  0  0  0  0  0  0  0  0  0  0  0
   -3.4340   -5.3675   -0.0459 H   0  0  0  0  0  0  0  0  0  0  0  0
   -3.2858   -6.4911   -1.4117 H   0  0  0  0  0  0  0  0  0  0  0  0
   -0.6882   -5.0177    0.2216 N   0  0  0  0  0  0  0  0  0  0  0  0
    0.4604   -4.1341   -0.0311 C   0  0  2  0  0  0  0  0  0  0  0  0
    0.6414   -3.0689    1.0774 C   0  0  0  0  0  0  0  0  0  0  0  0
    0.8367   -3.3974    2.2382 O   0  0  0  0  0  0  0  0  0  0  0  0
    1.7237   -4.9951   -0.1518 C   0  0  0  0  0  0  0  0  0  0  0  0
   -1.1833   -4.8879    1.1022 H   0  0  0  0  0  0  0  0  0  0  0  0
    0.3081   -3.5967   -0.9735 H   0  0  0  0  0  0  0  0  0  0  0  0
    1.6282   -5.6974   -0.9854 H   0  0  0  0  0  0  0  0  0  0  0  0
    2.5979   -4.3627   -0.3320 H   0  0  0  0  0  0  0  0  0  0  0  0
    1.8888   -5.5661    0.7673 H   0  0  0  0  0  0  0  0  0  0  0  0
    1.1294   -1.8166    0.8021 N   0  0  0  0  0  0  0  0  0  0  0  0
    0.3906   -0.7096    0.1365 C   0  0  2  0  0  0  0  0  0  0  0  0
    0.9229    0.6609    0.6435 C   0  0  0  0  0  0  0  0  0  0  0  0
    0.5223    1.7104    0.1556 O   0  0  0  0  0  0  0  0  0  0  0  0
   -1.1487   -0.6554    0.4038 C   0  0  0  0  0  0  0  0  0  0  0  0
   -2.0077   -1.7990   -0.1694 C   0  0  0  0  0  0  0  0  0  0  0  0
   -3.5002   -1.6826    0.1561 C   0  0  0  0  0  0  0  0  0  0  0  0
   -4.1479   -2.7595    0.1526 O   0  5  0  0  0  0  0  0  0  0  0  0
   -3.9805   -0.5605    0.4504 O   0  0  0  0  0  0  0  0  0  0  0  0
    1.5658   -1.5176    1.6680 H   0  0  0  0  0  0  0  0  0  0  0  0
    0.5604   -0.7666   -0.9428 H   0  0  0  0  0  0  0  0  0  0  0  0
   -1.5462    0.2742   -0.0204 H   0  0  0  0  0  0  0  0  0  0  0  0
   -1.3145   -0.6106    1.4860 H   0  0  0  0  0  0  0  0  0  0  0  0
   -1.7017   -2.7378    0.2656 H   0  0  0  0  0  0  0  0  0  0  0  0
   -1.8769   -1.8579   -1.2534 H   0  0  0  0  0  0  0  0  0  0  0  0
    1.9410    0.7484    1.5814 N   0  0  0  0  0  0  0  0  0  0  0  0
    2.5705    2.0057    2.0064 C   0  0  2  0  0  0  0  0  0  0  0  0
    4.0668    1.8167    2.3324 C   0  0  0  0  0  0  0  0  0  0  0  0
    4.5421    0.6908    2.4413 O   0  0  0  0  0  0  0  0  0  0  0  0
    1.8089    2.5276    3.2287 C   0  0  0  0  0  0  0  0  0  0  0  0
    2.4613   -0.1005    1.7883 H   0  0  0  0  0  0  0  0  0  0  0  0
    2.5100    2.7459    1.2015 H   0  0  0  0  0  0  0  0  0  0  0  0
    1.8733    1.8119    4.0545 H   0  0  0  0  0  0  0  0  0  0  0  0
    2.2225    3.4838    3.5618 H   0  0  0  0  0  0  0  0  0  0  0  0
    0.7530    2.6779    2.9807 H   0  0  0  0  0  0  0  0  0  0  0  0
    4.8914    2.9171    2.4841 N   0  0  0  0  0  0  0  0  0  0  0  0
    6.3178    2.8184    2.7652 C   0  0  0  0  0  0  0  0  0  0  0  0
    4.4741    3.8352    2.3615 H   0  0  0  0  0  0  0  0  0  0  0  0
    6.4850    2.3045    3.7175 H   0  0  0  0  0  0  0  0  0  0  0  0
    6.8282    2.2644    1.9703 H   0  0  0  0  0  0  0  0  0  0  0  0
    6.7600    3.8171    2.8289 H   0  0  0  0  0  0  0  0  0  0  0  0
  1  2  2  0  0  0  0
  1  3  1  0  0  0  0
  1  7  1  0  0  0  0
  3  4  1  0  0  0  0
  3  5  1  0  0  0  0
  3  6  1  0  0  0  0
  7  8  1  0  0  0  0
  7 12  1  0  0  0  0
  8  9  1  0  0  0  0
  8 11  1  0  0  0  0
  8 13  1  0  0  0  0
  9 10  2  0  0  0  0
  9 17  1  0  0  0  0
 11 14  1  0  0  0  0
 11 15  1  0  0  0  0
 11 16  1  0  0  0  0
 17 18  1  0  0  0  0
 17 26  1  0  0  0  0
 18 19  1  0  0  0  0
 18 21  1  0  0  0  0
 18 27  1  0  0  0  0
 19 20  2  0  0  0  0
 19 32  1  0  0  0  0
 21 22  1  0  0  0  0
 21 28  1  0  0  0  0
 21 29  1  0  0  0  0
 22 23  1  0  0  0  0
 22 30  1  0  0  0  0
 22 31  1  0  0  0  0
 23 24  1  0  0  0  0
 23 25  2  0  0  0  0
 32 33  1  0  0  0  0
 32 37  1  0  0  0  0
 33 34  1  0  0  0  0
 33 36  1  0  0  0  0
 33 38  1  0  0  0  0
 34 35  2  0  0  0  0
 34 42  1  0  0  0  0
 36 39  1  0  0  0  0
 36 40  1  0  0  0  0
 36 41  1  0  0  0  0
 42 43  1  0  0  0  0
 42 44  1  0  0  0  0
 43 45  1  0  0  0  0
 43 46  1  0  0  0  0
 43 47  1  0  0  0  0
M  CHG  1  24  -1
M  END
$$$$

  -OEChem-05262216243D

 47 46  0     1  0  0  0  0  0999 V2000
   -1.3447   -5.6149   -0.6111 C   0  0  0  0  0  0  0  0  0  0  0  0
   -0.8361   -5.7744   -1.7129 O   0  0  0  0  0  0  0  0  0  0  0  0
   -2.7200   -6.1861   -0.3204 C   0  0  0  0  0  0  0  0  0  0  0  0
   -2.6734   -6.8609    0.5370 H   0  0  0  0  0  0  0  0  0  0  0  0
   -3.4175   -5.3739   -0.0968 H   0  0  0  0  0  0  0  0  0  0  0  0
   -3.0924   -6.7384   -1.1873 H   0  0  0  0  0  0  0  0  0  0  0  0
   -0.6599   -4.9428    0.3818 N   0  0  0  0  0  0  0  0  0  0  0  0
    0.4899   -4.0670    0.1056 C   0  0  2  0  0  0  0  0  0  0  0  0
    0.6395   -2.9342    1.1511 C   0  0  0  0  0  0  0  0  0  0  0  0
    0.8259   -3.1916    2.3313 O   0  0  0  0  0  0  0  0  0  0  0  0
    1.7626   -4.9229    0.0709 C   0  0  0  0  0  0  0  0  0  0  0  0
   -1.1978   -4.7450    1.2240 H   0  0  0  0  0  0  0  0  0  0  0  0
    0.3565   -3.5904   -0.8715 H   0  0  0  0  0  0  0  0  0  0  0  0
    1.6966   -5.6780   -0.7183 H   0  0  0  0  0  0  0  0  0  0  0  0
    2.6367   -4.2949   -0.1255 H   0  0  0  0  0  0  0  0  0  0  0  0
    1.9073   -5.4327    1.0286 H   0  0  0  0  0  0  0  0  0  0  0  0
    1.1195   -1.6937    0.8128 N   0  0  0  0  0  0  0  0  0  0  0  0
    0.3809   -0.6222    0.0906 C   0  0  2  0  0  0  0  0  0  0  0  0
    0.9365    0.7540    0.5591 C   0  0  0  0  0  0  0  0  0  0  0  0
    0.3886    1.8134    0.2832 O   0  0  0  0  0  0  0  0  0  0  0  0
   -1.1655   -0.5760    0.3148 C   0  0  0  0  0  0  0  0  0  0  0  0
   -1.9850   -1.7547   -0.2436 C   0  0  0  0  0  0  0  0  0  0  0  0
   -3.4876   -1.6539    0.0324 C   0  0  0  0  0  0  0  0  0  0  0  0
   -4.0917   -2.7443    0.1950 O   0  5  0  0  0  0  0  0  0  0  0  0
   -4.0207   -0.5211    0.1186 O   0  0  0  0  0  0  0  0  0  0  0  0
    1.5443   -1.3413    1.6674 H   0  0  0  0  0  0  0  0  0  0  0  0
    0.5740   -0.7200   -0.9818 H   0  0  0  0  0  0  0  0  0  0  0  0
   -1.5637    0.3302   -0.1561 H   0  0  0  0  0  0  0  0  0  0  0  0
   -1.3639   -0.4937    1.3888 H   0  0  0  0  0  0  0  0  0  0  0  0
   -1.6730   -2.6724    0.2293 H   0  0  0  0  0  0  0  0  0  0  0  0
   -1.8219   -1.8457   -1.3209 H   0  0  0  0  0  0  0  0  0  0  0  0
    2.1376    0.8263    1.2479 N   0  0  0  0  0  0  0  0  0  0  0  0
    2.8103    2.0796    1.6150 C   0  0  2  0  0  0  0  0  0  0  0  0
    4.3458    1.9336    1.5952 C   0  0  0  0  0  0  0  0  0  0  0  0
    4.8643    0.8258    1.5007 O   0  0  0  0  0  0  0  0  0  0  0  0
    2.3249    2.4914    3.0078 C   0  0  0  0  0  0  0  0  0  0  0  0
    2.7228   -0.0079    1.2318 H   0  0  0  0  0  0  0  0  0  0  0  0
    2.5545    2.8657    0.8967 H   0  0  0  0  0  0  0  0  0  0  0  0
    2.5696    1.7175    3.7421 H   0  0  0  0  0  0  0  0  0  0  0  0
    2.7945    3.4292    3.3184 H   0  0  0  0  0  0  0  0  0  0  0  0
    1.2397    2.6353    3.0023 H   0  0  0  0  0  0  0  0  0  0  0  0
    5.1522    3.0553    1.6668 N   0  0  0  0  0  0  0  0  0  0  0  0
    6.6077    3.0004    1.6310 C   0  0  0  0  0  0  0  0  0  0  0  0
    4.6928    3.9599    1.7214 H   0  0  0  0  0  0  0  0  0  0  0  0
    6.9890    2.4130    2.4728 H   0  0  0  0  0  0  0  0  0  0  0  0
    6.9509    2.5436    0.6968 H   0  0  0  0  0  0  0  0  0  0  0  0
    7.0256    4.0096    1.6959 H   0  0  0  0  0  0  0  0  0  0  0  0
  1  2  2  0  0  0  0
  1  3  1  0  0  0  0
  1  7  1  0  0  0  0
  3  4  1  0  0  0  0
  3  5  1  0  0  0  0
  3  6  1  0  0  0  0
  7  8  1  0  0  0  0
  7 12  1  0  0  0  0
  8  9  1  0  0  0  0
  8 11  1  0  0  0  0
  8 13  1  0  0  0  0
  9 10  2  0  0  0  0
  9 17  1  0  0  0  0
 11 14  1  0  0  0  0
 11 15  1  0  0  0  0
 11 16  1  0  0  0  0
 17 18  1  0  0  0  0
 17 26  1  0  0  0  0
 18 19  1  0  0  0  0
 18 21  1  0  0  0  0
 18 27  1  0  0  0  0
 19 20  2  0  0  0  0
 19 32  1  0  0  0  0
 21 22  1  0  0  0  0
 21 28  1  0  0  0  0
 21 29  1  0  0  0  0
 22 23  1  0  0  0  0
 22 30  1  0  0  0  0
 22 31  1  0  0  0  0
 23 24  1  0  0  0  0
 23 25  2  0  0  0  0
 32 33  1  0  0  0  0
 32 37  1  0  0  0  0
 33 34  1  0  0  0  0
 33 36  1  0  0  0  0
 33 38  1  0  0  0  0
 34 35  2  0  0  0  0
 34 42  1  0  0  0  0
 36 39  1  0  0  0  0
 36 40  1  0  0  0  0
 36 41  1  0  0  0  0
 42 43  1  0  0  0  0
 42 44  1  0  0  0  0
 43 45  1  0  0  0  0
 43 46  1  0  0  0  0
 43 47  1  0  0  0  0
M  CHG  1  24  -1
M  END
$$$$

  -OEChem-05262216243D

 47 46  0     1  0  0  0  0  0999 V2000
   -0.6545   -4.0692    1.7740 C   0  0  0  0  0  0  0  0  0  0  0  0
    0.3031   -4.2828    2.5060 O   0  0  0  0  0  0  0  0  0  0  0  0
   -2.0313   -3.8512    2.3734 C   0  0  0  0  0  0  0  0  0  0  0  0
   -2.7470   -4.5400    1.9169 H   0  0  0  0  0  0  0  0  0  0  0  0
   -2.0099   -4.0236    3.4523 H   0  0  0  0  0  0  0  0  0  0  0  0
   -2.3637   -2.8277    2.1827 H   0  0  0  0  0  0  0  0  0  0  0  0
   -0.5000   -4.0373    0.4051 N   0  0  0  0  0  0  0  0  0  0  0  0
    0.7590   -4.2712   -0.3158 C   0  0  2  0  0  0  0  0  0  0  0  0
    1.5144   -3.0565   -0.9427 C   0  0  0  0  0  0  0  0  0  0  0  0
    2.4889   -3.2830   -1.6469 O   0  0  0  0  0  0  0  0  0  0  0  0
    0.4309   -5.3254   -1.3829 C   0  0  0  0  0  0  0  0  0  0  0  0
   -1.3557   -3.8335   -0.1340 H   0  0  0  0  0  0  0  0  0  0  0  0
    1.4773   -4.7223    0.3757 H   0  0  0  0  0  0  0  0  0  0  0  0
   -0.2555   -4.9194   -2.1320 H   0  0  0  0  0  0  0  0  0  0  0  0
    1.3419   -5.6574   -1.8902 H   0  0  0  0  0  0  0  0  0  0  0  0
   -0.0395   -6.1988   -0.9205 H   0  0  0  0  0  0  0  0  0  0  0  0
    1.6084   -1.7415   -0.5284 N   0  0  0  0  0  0  0  0  0  0  0  0
    0.5887   -0.6560   -0.4952 C   0  0  2  0  0  0  0  0  0  0  0  0
    0.9062    0.3166    0.6732 C   0  0  0  0  0  0  0  0  0  0  0  0
    0.0550    1.0439    1.1712 O   0  0  0  0  0  0  0  0  0  0  0  0
   -0.8867   -1.0943   -0.4503 C   0  0  0  0  0  0  0  0  0  0  0  0
   -1.3660   -1.7957   -1.7363 C   0  0  0  0  0  0  0  0  0  0  0  0
   -2.8196   -2.2179   -1.5793 C   0  0  0  0  0  0  0  0  0  0  0  0
   -3.7231   -1.5805   -2.1682 O   0  5  0  0  0  0  0  0  0  0  0  0
   -3.0011   -3.2094   -0.8231 O   0  0  0  0  0  0  0  0  0  0  0  0
    2.4985   -1.4172   -0.8963 H   0  0  0  0  0  0  0  0  0  0  0  0
    0.7083   -0.0763   -1.4152 H   0  0  0  0  0  0  0  0  0  0  0  0
   -1.5125   -0.2008   -0.3467 H   0  0  0  0  0  0  0  0  0  0  0  0
   -1.0743   -1.6855    0.4427 H   0  0  0  0  0  0  0  0  0  0  0  0
   -0.7740   -2.6713   -1.9877 H   0  0  0  0  0  0  0  0  0  0  0  0
   -1.2814   -1.1014   -2.5774 H   0  0  0  0  0  0  0  0  0  0  0  0
    2.2164    0.5045    1.0775 N   0  0  0  0  0  0  0  0  0  0  0  0
    2.6786    1.5412    2.0086 C   0  0  2  0  0  0  0  0  0  0  0  0
    4.0220    2.1556    1.5641 C   0  0  0  0  0  0  0  0  0  0  0  0
    4.7782    1.5354    0.8235 O   0  0  0  0  0  0  0  0  0  0  0  0
    2.8077    0.9113    3.3975 C   0  0  0  0  0  0  0  0  0  0  0  0
    2.9259   -0.0717    0.6316 H   0  0  0  0  0  0  0  0  0  0  0  0
    1.9492    2.3565    2.0528 H   0  0  0  0  0  0  0  0  0  0  0  0
    3.5465    0.1035    3.3840 H   0  0  0  0  0  0  0  0  0  0  0  0
    3.1213    1.6606    4.1303 H   0  0  0  0  0  0  0  0  0  0  0  0
    1.8452    0.4980    3.7164 H   0  0  0  0  0  0  0  0  0  0  0  0
    4.3866    3.4177    1.9979 N   0  0  0  0  0  0  0  0  0  0  0  0
    5.6085    4.0878    1.5720 C   0  0  0  0  0  0  0  0  0  0  0  0
    3.7177    3.9266    2.5685 H   0  0  0  0  0  0  0  0  0  0  0  0
    6.4881    3.5081    1.8709 H   0  0  0  0  0  0  0  0  0  0  0  0
    5.6185    4.2085    0.4836 H   0  0  0  0  0  0  0  0  0  0  0  0
    5.6756    5.0787    2.0309 H   0  0  0  0  0  0  0  0  0  0  0  0
  1  2  2  0  0  0  0
  1  3  1  0  0  0  0
  1  7  1  0  0  0  0
  3  4  1  0  0  0  0
  3  5  1  0  0  0  0
  3  6  1  0  0  0  0
  7  8  1  0  0  0  0
  7 12  1  0  0  0  0
  8  9  1  0  0  0  0
  8 11  1  0  0  0  0
  8 13  1  0  0  0  0
  9 10  2  0  0  0  0
  9 17  1  0  0  0  0
 11 14  1  0  0  0  0
 11 15  1  0  0  0  0
 11 16  1  0  0  0  0
 17 18  1  0  0  0  0
 17 26  1  0  0  0  0
 18 19  1  0  0  0  0
 18 21  1  0  0  0  0
 18 27  1  0  0  0  0
 19 20  2  0  0  0  0
 19 32  1  0  0  0  0
 21 22  1  0  0  0  0
 21 28  1  0  0  0  0
 21 29  1  0  0  0  0
 22 23  1  0  0  0  0
 22 30  1  0  0  0  0
 22 31  1  0  0  0  0
 23 24  1  0  0  0  0
 23 25  2  0  0  0  0
 32 33  1  0  0  0  0
 32 37  1  0  0  0  0
 33 34  1  0  0  0  0
 33 36  1  0  0  0  0
 33 38  1  0  0  0  0
 34 35  2  0  0  0  0
 34 42  1  0  0  0  0
 36 39  1  0  0  0  0
 36 40  1  0  0  0  0
 36 41  1  0  0  0  0
 42 43  1  0  0  0  0
 42 44  1  0  0  0  0
 43 45  1  0  0  0  0
 43 46  1  0  0  0  0
 43 47  1  0  0  0  0
M  CHG  1  24  -1
M  END
$$$$

  -OEChem-05262216243D

 47 46  0     1  0  0  0  0  0999 V2000
   -1.1804   -5.5451   -0.3635 C   0  0  0  0  0  0  0  0  0  0  0  0
   -0.7077   -5.7435   -1.4746 O   0  0  0  0  0  0  0  0  0  0  0  0
   -2.5255   -6.1407    0.0081 C   0  0  0  0  0  0  0  0  0  0  0  0
   -2.4149   -6.8166    0.8591 H   0  0  0  0  0  0  0  0  0  0  0  0
   -3.2232   -5.3413    0.2751 H   0  0  0  0  0  0  0  0  0  0  0  0
   -2.9395   -6.6978   -0.8365 H   0  0  0  0  0  0  0  0  0  0  0  0
   -0.4834   -4.8014    0.5671 N   0  0  0  0  0  0  0  0  0  0  0  0
    0.6195   -3.8986    0.2009 C   0  0  2  0  0  0  0  0  0  0  0  0
    0.7517   -2.7078    1.1824 C   0  0  0  0  0  0  0  0  0  0  0  0
    0.9939   -2.9038    2.3645 O   0  0  0  0  0  0  0  0  0  0  0  0
    1.9255   -4.7029    0.1629 C   0  0  0  0  0  0  0  0  0  0  0  0
   -1.0010   -4.5733    1.4146 H   0  0  0  0  0  0  0  0  0  0  0  0
    0.4342   -3.4809   -0.7947 H   0  0  0  0  0  0  0  0  0  0  0  0
    1.8563   -5.5117   -0.5708 H   0  0  0  0  0  0  0  0  0  0  0  0
    2.7613   -4.0544   -0.1160 H   0  0  0  0  0  0  0  0  0  0  0  0
    2.1353   -5.1408    1.1438 H   0  0  0  0  0  0  0  0  0  0  0  0
    1.1655   -1.4650    0.7704 N   0  0  0  0  0  0  0  0  0  0  0  0
    0.3732   -0.4628    0.0113 C   0  0  2  0  0  0  0  0  0  0  0  0
    0.9115    0.9316    0.4346 C   0  0  0  0  0  0  0  0  0  0  0  0
    0.2024    1.8864    0.7244 O   0  0  0  0  0  0  0  0  0  0  0  0
   -1.1753   -0.4743    0.2089 C   0  0  0  0  0  0  0  0  0  0  0  0
   -1.9229   -1.7084   -0.3238 C   0  0  0  0  0  0  0  0  0  0  0  0
   -3.4302   -1.6542   -0.0719 C   0  0  0  0  0  0  0  0  0  0  0  0
   -3.9502   -2.6761    0.4443 O   0  5  0  0  0  0  0  0  0  0  0  0
   -4.0533   -0.6091   -0.3788 O   0  0  0  0  0  0  0  0  0  0  0  0
    1.6270   -1.0461    1.5761 H   0  0  0  0  0  0  0  0  0  0  0  0
    0.5734   -0.5926   -1.0563 H   0  0  0  0  0  0  0  0  0  0  0  0
   -1.5999    0.4001   -0.2979 H   0  0  0  0  0  0  0  0  0  0  0  0
   -1.3972   -0.3678    1.2765 H   0  0  0  0  0  0  0  0  0  0  0  0
   -1.5738   -2.5932    0.1838 H   0  0  0  0  0  0  0  0  0  0  0  0
   -1.7383   -1.8283   -1.3948 H   0  0  0  0  0  0  0  0  0  0  0  0
    2.2818    1.1151    0.5019 N   0  0  0  0  0  0  0  0  0  0  0  0
    2.9459    2.3829    0.8305 C   0  0  2  0  0  0  0  0  0  0  0  0
    4.3618    2.4665    0.2225 C   0  0  0  0  0  0  0  0  0  0  0  0
    4.9134    1.4612   -0.2138 O   0  0  0  0  0  0  0  0  0  0  0  0
    3.0132    2.5160    2.3559 C   0  0  0  0  0  0  0  0  0  0  0  0
    2.8704    0.3577    0.1550 H   0  0  0  0  0  0  0  0  0  0  0  0
    2.3643    3.2152    0.4196 H   0  0  0  0  0  0  0  0  0  0  0  0
    3.5969    1.6958    2.7860 H   0  0  0  0  0  0  0  0  0  0  0  0
    3.4805    3.4637    2.6387 H   0  0  0  0  0  0  0  0  0  0  0  0
    2.0065    2.4886    2.7851 H   0  0  0  0  0  0  0  0  0  0  0  0
    5.0240    3.6796    0.1648 N   0  0  0  0  0  0  0  0  0  0  0  0
    6.3632    3.8373   -0.3880 C   0  0  0  0  0  0  0  0  0  0  0  0
    4.5343    4.4978    0.5153 H   0  0  0  0  0  0  0  0  0  0  0  0
    7.0794    3.2177    0.1620 H   0  0  0  0  0  0  0  0  0  0  0  0
    6.3796    3.5440   -1.4430 H   0  0  0  0  0  0  0  0  0  0  0  0
    6.6817    4.8815   -0.3141 H   0  0  0  0  0  0  0  0  0  0  0  0
  1  2  2  0  0  0  0
  1  3  1  0  0  0  0
  1  7  1  0  0  0  0
  3  4  1  0  0  0  0
  3  5  1  0  0  0  0
  3  6  1  0  0  0  0
  7  8  1  0  0  0  0
  7 12  1  0  0  0  0
  8  9  1  0  0  0  0
  8 11  1  0  0  0  0
  8 13  1  0  0  0  0
  9 10  2  0  0  0  0
  9 17  1  0  0  0  0
 11 14  1  0  0  0  0
 11 15  1  0  0  0  0
 11 16  1  0  0  0  0
 17 18  1  0  0  0  0
 17 26  1  0  0  0  0
 18 19  1  0  0  0  0
 18 21  1  0  0  0  0
 18 27  1  0  0  0  0
 19 20  2  0  0  0  0
 19 32  1  0  0  0  0
 21 22  1  0  0  0  0
 21 28  1  0  0  0  0
 21 29  1  0  0  0  0
 22 23  1  0  0  0  0
 22 30  1  0  0  0  0
 22 31  1  0  0  0  0
 23 24  1  0  0  0  0
 23 25  2  0  0  0  0
 32 33  1  0  0  0  0
 32 37  1  0  0  0  0
 33 34  1  0  0  0  0
 33 36  1  0  0  0  0
 33 38  1  0  0  0  0
 34 35  2  0  0  0  0
 34 42  1  0  0  0  0
 36 39  1  0  0  0  0
 36 40  1  0  0  0  0
 36 41  1  0  0  0  0
 42 43  1  0  0  0  0
 42 44  1  0  0  0  0
 43 45  1  0  0  0  0
 43 46  1  0  0  0  0
 43 47  1  0  0  0  0
M  CHG  1  24  -1
M  END
$$$$

  -OEChem-05262216243D

 47 46  0     1  0  0  0  0  0999 V2000
   -1.1418   -5.4691   -0.3884 C   0  0  0  0  0  0  0  0  0  0  0  0
   -0.7286   -5.6255   -1.5295 O   0  0  0  0  0  0  0  0  0  0  0  0
   -2.4628   -6.0823    0.0360 C   0  0  0  0  0  0  0  0  0  0  0  0
   -2.3160   -6.7315    0.9020 H   0  0  0  0  0  0  0  0  0  0  0  0
   -3.1689   -5.2898    0.3008 H   0  0  0  0  0  0  0  0  0  0  0  0
   -2.8871   -6.6710   -0.7812 H   0  0  0  0  0  0  0  0  0  0  0  0
   -0.3983   -4.7545    0.5284 N   0  0  0  0  0  0  0  0  0  0  0  0
    0.6716   -3.8244    0.1348 C   0  0  2  0  0  0  0  0  0  0  0  0
    0.8320   -2.6644    1.1480 C   0  0  0  0  0  0  0  0  0  0  0  0
    1.1271   -2.8987    2.3111 O   0  0  0  0  0  0  0  0  0  0  0  0
    1.9856   -4.6051    0.0065 C   0  0  0  0  0  0  0  0  0  0  0  0
   -0.8666   -4.5657    1.4132 H   0  0  0  0  0  0  0  0  0  0  0  0
    0.4313   -3.3797   -0.8370 H   0  0  0  0  0  0  0  0  0  0  0  0
    1.8953   -5.3806   -0.7599 H   0  0  0  0  0  0  0  0  0  0  0  0
    2.8004   -3.9326   -0.2777 H   0  0  0  0  0  0  0  0  0  0  0  0
    2.2420   -5.0828    0.9572 H   0  0  0  0  0  0  0  0  0  0  0  0
    1.2166   -1.4050    0.7603 N   0  0  0  0  0  0  0  0  0  0  0  0
    0.3909   -0.3972    0.0509 C   0  0  2  0  0  0  0  0  0  0  0  0
    0.9215    0.9885    0.5009 C   0  0  0  0  0  0  0  0  0  0  0  0
    0.2651    1.8047    1.1349 O   0  0  0  0  0  0  0  0  0  0  0  0
   -1.1522   -0.4261    0.2750 C   0  0  0  0  0  0  0  0  0  0  0  0
   -1.8996   -1.6508   -0.2785 C   0  0  0  0  0  0  0  0  0  0  0  0
   -3.4020   -1.6119    0.0022 C   0  0  0  0  0  0  0  0  0  0  0  0
   -3.9044   -2.6364    0.5307 O   0  5  0  0  0  0  0  0  0  0  0  0
   -4.0396   -0.5747   -0.3026 O   0  0  0  0  0  0  0  0  0  0  0  0
    1.7019   -1.0005    1.5591 H   0  0  0  0  0  0  0  0  0  0  0  0
    0.5668   -0.4969   -1.0243 H   0  0  0  0  0  0  0  0  0  0  0  0
   -1.5877    0.4638   -0.1948 H   0  0  0  0  0  0  0  0  0  0  0  0
   -1.3560   -0.3566    1.3497 H   0  0  0  0  0  0  0  0  0  0  0  0
   -1.5349   -2.5464    0.1997 H   0  0  0  0  0  0  0  0  0  0  0  0
   -1.7328   -1.7400   -1.3554 H   0  0  0  0  0  0  0  0  0  0  0  0
    2.2449    1.2941    0.2420 N   0  0  0  0  0  0  0  0  0  0  0  0
    2.9000    2.5610    0.5894 C   0  0  2  0  0  0  0  0  0  0  0  0
    4.0828    2.8722   -0.3511 C   0  0  0  0  0  0  0  0  0  0  0  0
    4.5654    1.9924   -1.0569 O   0  0  0  0  0  0  0  0  0  0  0  0
    3.3831    2.4777    2.0410 C   0  0  0  0  0  0  0  0  0  0  0  0
    2.7727    0.6386   -0.3337 H   0  0  0  0  0  0  0  0  0  0  0  0
    2.1805    3.3815    0.4946 H   0  0  0  0  0  0  0  0  0  0  0  0
    4.1027    1.6612    2.1579 H   0  0  0  0  0  0  0  0  0  0  0  0
    3.8643    3.4136    2.3399 H   0  0  0  0  0  0  0  0  0  0  0  0
    2.5381    2.2962    2.7128 H   0  0  0  0  0  0  0  0  0  0  0  0
    4.6120    4.1492   -0.4054 N   0  0  0  0  0  0  0  0  0  0  0  0
    5.7044    4.5267   -1.2927 C   0  0  0  0  0  0  0  0  0  0  0  0
    4.1717    4.8636    0.1673 H   0  0  0  0  0  0  0  0  0  0  0  0
    6.5857    3.9056   -1.1015 H   0  0  0  0  0  0  0  0  0  0  0  0
    5.4063    4.4047   -2.3393 H   0  0  0  0  0  0  0  0  0  0  0  0
    5.9787    5.5733   -1.1299 H   0  0  0  0  0  0  0  0  0  0  0  0
  1  2  2  0  0  0  0
  1  3  1  0  0  0  0
  1  7  1  0  0  0  0
  3  4  1  0  0  0  0
  3  5  1  0  0  0  0
  3  6  1  0  0  0  0
  7  8  1  0  0  0  0
  7 12  1  0  0  0  0
  8  9  1  0  0  0  0
  8 11  1  0  0  0  0
  8 13  1  0  0  0  0
  9 10  2  0  0  0  0
  9 17  1  0  0  0  0
 11 14  1  0  0  0  0
 11 15  1  0  0  0  0
 11 16  1  0  0  0  0
 17 18  1  0  0  0  0
 17 26  1  0  0  0  0
 18 19  1  0  0  0  0
 18 21  1  0  0  0  0
 18 27  1  0  0  0  0
 19 20  2  0  0  0  0
 19 32  1  0  0  0  0
 21 22  1  0  0  0  0
 21 28  1  0  0  0  0
 21 29  1  0  0  0  0
 22 23  1  0  0  0  0
 22 30  1  0  0  0  0
 22 31  1  0  0  0  0
 23 24  1  0  0  0  0
 23 25  2  0  0  0  0
 32 33  1  0  0  0  0
 32 37  1  0  0  0  0
 33 34  1  0  0  0  0
 33 36  1  0  0  0  0
 33 38  1  0  0  0  0
 34 35  2  0  0  0  0
 34 42  1  0  0  0  0
 36 39  1  0  0  0  0
 36 40  1  0  0  0  0
 36 41  1  0  0  0  0
 42 43  1  0  0  0  0
 42 44  1  0  0  0  0
 43 45  1  0  0  0  0
 43 46  1  0  0  0  0
 43 47  1  0  0  0  0
M  CHG  1  24  -1
M  END
$$$$

  -OEChem-05262216243D

 47 46  0     1  0  0  0  0  0999 V2000
   -1.1083   -5.4122   -0.3686 C   0  0  0  0  0  0  0  0  0  0  0  0
   -0.6865   -5.5751   -1.5058 O   0  0  0  0  0  0  0  0  0  0  0  0
   -2.4357   -6.0184    0.0462 C   0  0  0  0  0  0  0  0  0  0  0  0
   -2.2838   -6.7366    0.8549 H   0  0  0  0  0  0  0  0  0  0  0  0
   -3.1108   -5.2298    0.3911 H   0  0  0  0  0  0  0  0  0  0  0  0
   -2.9005   -6.5287   -0.8014 H   0  0  0  0  0  0  0  0  0  0  0  0
   -0.3674   -4.6998    0.5525 N   0  0  0  0  0  0  0  0  0  0  0  0
    0.7105   -3.7769    0.1640 C   0  0  2  0  0  0  0  0  0  0  0  0
    0.8731   -2.6151    1.1746 C   0  0  0  0  0  0  0  0  0  0  0  0
    1.1568   -2.8505    2.3405 O   0  0  0  0  0  0  0  0  0  0  0  0
    2.0198   -4.5672    0.0463 C   0  0  0  0  0  0  0  0  0  0  0  0
   -0.8392   -4.5073    1.4346 H   0  0  0  0  0  0  0  0  0  0  0  0
    0.4795   -3.3333   -0.8104 H   0  0  0  0  0  0  0  0  0  0  0  0
    1.9289   -5.3471   -0.7157 H   0  0  0  0  0  0  0  0  0  0  0  0
    2.8400   -3.9014   -0.2379 H   0  0  0  0  0  0  0  0  0  0  0  0
    2.2687   -5.0407    1.0012 H   0  0  0  0  0  0  0  0  0  0  0  0
    1.2624   -1.3579    0.7825 N   0  0  0  0  0  0  0  0  0  0  0  0
    0.4440   -0.3610    0.0527 C   0  0  2  0  0  0  0  0  0  0  0  0
    0.9583    1.0314    0.4934 C   0  0  0  0  0  0  0  0  0  0  0  0
    0.4250    1.6996    1.3699 O   0  0  0  0  0  0  0  0  0  0  0  0
   -1.1005   -0.3773    0.2607 C   0  0  0  0  0  0  0  0  0  0  0  0
   -1.8495   -1.6059   -0.2808 C   0  0  0  0  0  0  0  0  0  0  0  0
   -3.3550   -1.5560   -0.0183 C   0  0  0  0  0  0  0  0  0  0  0  0
   -3.8799   -2.5942    0.4584 O   0  5  0  0  0  0  0  0  0  0  0  0
   -3.9732   -0.4972   -0.2876 O   0  0  0  0  0  0  0  0  0  0  0  0
    1.7291   -0.9418    1.5866 H   0  0  0  0  0  0  0  0  0  0  0  0
    0.6301   -0.4749   -1.0195 H   0  0  0  0  0  0  0  0  0  0  0  0
   -1.5239    0.5105   -0.2233 H   0  0  0  0  0  0  0  0  0  0  0  0
   -1.3160   -0.2941    1.3321 H   0  0  0  0  0  0  0  0  0  0  0  0
   -1.4951   -2.4943    0.2189 H   0  0  0  0  0  0  0  0  0  0  0  0
   -1.6723   -1.7150   -1.3540 H   0  0  0  0  0  0  0  0  0  0  0  0
    2.1642    1.4806   -0.0117 N   0  0  0  0  0  0  0  0  0  0  0  0
    2.7828    2.7694    0.3219 C   0  0  2  0  0  0  0  0  0  0  0  0
    3.6669    3.2986   -0.8262 C   0  0  0  0  0  0  0  0  0  0  0  0
    4.0695    2.5405   -1.7028 O   0  0  0  0  0  0  0  0  0  0  0  0
    3.6151    2.5990    1.5970 C   0  0  0  0  0  0  0  0  0  0  0  0
    2.5947    0.9363   -0.7581 H   0  0  0  0  0  0  0  0  0  0  0  0
    1.9987    3.5132    0.4992 H   0  0  0  0  0  0  0  0  0  0  0  0
    4.4071    1.8598    1.4406 H   0  0  0  0  0  0  0  0  0  0  0  0
    4.0752    3.5491    1.8841 H   0  0  0  0  0  0  0  0  0  0  0  0
    2.9814    2.2612    2.4231 H   0  0  0  0  0  0  0  0  0  0  0  0
    4.0164    4.6362   -0.8727 N   0  0  0  0  0  0  0  0  0  0  0  0
    4.8148    5.2199   -1.9427 C   0  0  0  0  0  0  0  0  0  0  0  0
    3.6297    5.2452   -0.1573 H   0  0  0  0  0  0  0  0  0  0  0  0
    5.7845    4.7165   -2.0164 H   0  0  0  0  0  0  0  0  0  0  0  0
    4.2950    5.1275   -2.9020 H   0  0  0  0  0  0  0  0  0  0  0  0
    4.9918    6.2813   -1.7447 H   0  0  0  0  0  0  0  0  0  0  0  0
  1  2  2  0  0  0  0
  1  3  1  0  0  0  0
  1  7  1  0  0  0  0
  3  4  1  0  0  0  0
  3  5  1  0  0  0  0
  3  6  1  0  0  0  0
  7  8  1  0  0  0  0
  7 12  1  0  0  0  0
  8  9  1  0  0  0  0
  8 11  1  0  0  0  0
  8 13  1  0  0  0  0
  9 10  2  0  0  0  0
  9 17  1  0  0  0  0
 11 14  1  0  0  0  0
 11 15  1  0  0  0  0
 11 16  1  0  0  0  0
 17 18  1  0  0  0  0
 17 26  1  0  0  0  0
 18 19  1  0  0  0  0
 18 21  1  0  0  0  0
 18 27  1  0  0  0  0
 19 20  2  0  0  0  0
 19 32  1  0  0  0  0
 21 22  1  0  0  0  0
 21 28  1  0  0  0  0
 21 29  1  0  0  0  0
 22 23  1  0  0  0  0
 22 30  1  0  0  0  0
 22 31  1  0  0  0  0
 23 24  1  0  0  0  0
 23 25  2  0  0  0  0
 32 33  1  0  0  0  0
 32 37  1  0  0  0  0
 33 34  1  0  0  0  0
 33 36  1  0  0  0  0
 33 38  1  0  0  0  0
 34 35  2  0  0  0  0
 34 42  1  0  0  0  0
 36 39  1  0  0  0  0
 36 40  1  0  0  0  0
 36 41  1  0  0  0  0
 42 43  1  0  0  0  0
 42 44  1  0  0  0  0
 43 45  1  0  0  0  0
 43 46  1  0  0  0  0
 43 47  1  0  0  0  0
M  CHG  1  24  -1
M  END
$$$$

  -OEChem-05262216243D

 47 46  0     1  0  0  0  0  0999 V2000
   -0.2830   -4.3573    2.2023 C   0  0  0  0  0  0  0  0  0  0  0  0
   -1.1889   -3.6302    2.5717 O   0  0  0  0  0  0  0  0  0  0  0  0
    0.5277   -5.1203    3.2341 C   0  0  0  0  0  0  0  0  0  0  0  0
    1.5723   -4.8030    3.1938 H   0  0  0  0  0  0  0  0  0  0  0  0
    0.1393   -4.9255    4.2377 H   0  0  0  0  0  0  0  0  0  0  0  0
    0.4707   -6.1933    3.0356 H   0  0  0  0  0  0  0  0  0  0  0  0
    0.0201   -4.5082    0.8658 N   0  0  0  0  0  0  0  0  0  0  0  0
   -0.5115   -3.6714   -0.2211 C   0  0  2  0  0  0  0  0  0  0  0  0
    0.6772   -3.0175   -0.9713 C   0  0  0  0  0  0  0  0  0  0  0  0
    1.5965   -3.7364   -1.3480 O   0  0  0  0  0  0  0  0  0  0  0  0
   -1.3347   -4.6019   -1.1207 C   0  0  0  0  0  0  0  0  0  0  0  0
    0.8575   -5.0410    0.6462 H   0  0  0  0  0  0  0  0  0  0  0  0
   -1.1655   -2.8896    0.1715 H   0  0  0  0  0  0  0  0  0  0  0  0
   -2.1273   -5.0807   -0.5378 H   0  0  0  0  0  0  0  0  0  0  0  0
   -1.8087   -4.0484   -1.9342 H   0  0  0  0  0  0  0  0  0  0  0  0
   -0.7007   -5.3804   -1.5555 H   0  0  0  0  0  0  0  0  0  0  0  0
    1.1510   -1.7494   -0.7217 N   0  0  0  0  0  0  0  0  0  0  0  0
    0.4962   -0.4382   -0.9365 C   0  0  2  0  0  0  0  0  0  0  0  0
    0.9965    0.5865    0.1033 C   0  0  0  0  0  0  0  0  0  0  0  0
    0.4575    0.7171    1.1944 O   0  0  0  0  0  0  0  0  0  0  0  0
   -1.0332   -0.3710   -1.1273 C   0  0  0  0  0  0  0  0  0  0  0  0
   -1.4849   -1.0274   -2.4457 C   0  0  0  0  0  0  0  0  0  0  0  0
   -3.0023   -0.9721   -2.6025 C   0  0  0  0  0  0  0  0  0  0  0  0
   -3.5161    0.1422   -2.8686 O   0  5  0  0  0  0  0  0  0  0  0  0
   -3.6383   -2.0461   -2.4728 O   0  0  0  0  0  0  0  0  0  0  0  0
    2.1497   -1.7465   -0.9042 H   0  0  0  0  0  0  0  0  0  0  0  0
    0.8896   -0.0805   -1.8926 H   0  0  0  0  0  0  0  0  0  0  0  0
   -1.3453    0.6795   -1.1480 H   0  0  0  0  0  0  0  0  0  0  0  0
   -1.5422   -0.8302   -0.2753 H   0  0  0  0  0  0  0  0  0  0  0  0
   -1.1531   -2.0594   -2.5177 H   0  0  0  0  0  0  0  0  0  0  0  0
   -1.0341   -0.4901   -3.2849 H   0  0  0  0  0  0  0  0  0  0  0  0
    2.1062    1.3641   -0.1775 N   0  0  0  0  0  0  0  0  0  0  0  0
    2.6040    2.4370    0.6921 C   0  0  2  0  0  0  0  0  0  0  0  0
    3.2048    3.6002   -0.1219 C   0  0  0  0  0  0  0  0  0  0  0  0
    3.6595    3.4014   -1.2439 O   0  0  0  0  0  0  0  0  0  0  0  0
    3.6554    1.8457    1.6351 C   0  0  0  0  0  0  0  0  0  0  0  0
    2.4760    1.3314   -1.1262 H   0  0  0  0  0  0  0  0  0  0  0  0
    1.7784    2.8461    1.2844 H   0  0  0  0  0  0  0  0  0  0  0  0
    4.4953    1.4375    1.0636 H   0  0  0  0  0  0  0  0  0  0  0  0
    4.0356    2.6139    2.3149 H   0  0  0  0  0  0  0  0  0  0  0  0
    3.2167    1.0408    2.2339 H   0  0  0  0  0  0  0  0  0  0  0  0
    3.2380    4.8762    0.4105 N   0  0  0  0  0  0  0  0  0  0  0  0
    3.7183    6.0379   -0.3263 C   0  0  0  0  0  0  0  0  0  0  0  0
    2.7853    5.0169    1.3092 H   0  0  0  0  0  0  0  0  0  0  0  0
    4.7640    5.9002   -0.6202 H   0  0  0  0  0  0  0  0  0  0  0  0
    3.1163    6.1963   -1.2273 H   0  0  0  0  0  0  0  0  0  0  0  0
    3.6502    6.9340    0.2979 H   0  0  0  0  0  0  0  0  0  0  0  0
  1  2  2  0  0  0  0
  1  3  1  0  0  0  0
  1  7  1  0  0  0  0
  3  4  1  0  0  0  0
  3  5  1  0  0  0  0
  3  6  1  0  0  0  0
  7  8  1  0  0  0  0
  7 12  1  0  0  0  0
  8  9  1  0  0  0  0
  8 11  1  0  0  0  0
  8 13  1  0  0  0  0
  9 10  2  0  0  0  0
  9 17  1  0  0  0  0
 11 14  1  0  0  0  0
 11 15  1  0  0  0  0
 11 16  1  0  0  0  0
 17 18  1  0  0  0  0
 17 26  1  0  0  0  0
 18 19  1  0  0  0  0
 18 21  1  0  0  0  0
 18 27  1  0  0  0  0
 19 20  2  0  0  0  0
 19 32  1  0  0  0  0
 21 22  1  0  0  0  0
 21 28  1  0  0  0  0
 21 29  1  0  0  0  0
 22 23  1  0  0  0  0
 22 30  1  0  0  0  0
 22 31  1  0  0  0  0
 23 24  1  0  0  0  0
 23 25  2  0  0  0  0
 32 33  1  0  0  0  0
 32 37  1  0  0  0  0
 33 34  1  0  0  0  0
 33 36  1  0  0  0  0
 33 38  1  0  0  0  0
 34 35  2  0  0  0  0
 34 42  1  0  0  0  0
 36 39  1  0  0  0  0
 36 40  1  0  0  0  0
 36 41  1  0  0  0  0
 42 43  1  0  0  0  0
 42 44  1  0  0  0  0
 43 45  1  0  0  0  0
 43 46  1  0  0  0  0
 43 47  1  0  0  0  0
M  CHG  1  24  -1
M  END
$$$$

  -OEChem-05262216243D

 47 46  0     1  0  0  0  0  0999 V2000
   -0.6901   -5.7032    0.6366 C   0  0  0  0  0  0  0  0  0  0  0  0
    0.2993   -6.3789    0.8748 O   0  0  0  0  0  0  0  0  0  0  0  0
   -2.0464   -6.2046    1.0984 C   0  0  0  0  0  0  0  0  0  0  0  0
   -1.9417   -7.1617    1.6168 H   0  0  0  0  0  0  0  0  0  0  0  0
   -2.4956   -5.4796    1.7827 H   0  0  0  0  0  0  0  0  0  0  0  0
   -2.7084   -6.3373    0.2389 H   0  0  0  0  0  0  0  0  0  0  0  0
   -0.6505   -4.5256   -0.0871 N   0  0  0  0  0  0  0  0  0  0  0  0
    0.5239   -3.6682   -0.3716 C   0  0  2  0  0  0  0  0  0  0  0  0
    0.8244   -2.6587    0.7700 C   0  0  0  0  0  0  0  0  0  0  0  0
    1.1312   -3.0388    1.8892 O   0  0  0  0  0  0  0  0  0  0  0  0
    1.7881   -4.4543   -0.7514 C   0  0  0  0  0  0  0  0  0  0  0  0
   -1.5601   -4.0654   -0.1572 H   0  0  0  0  0  0  0  0  0  0  0  0
    0.2738   -3.0799   -1.2581 H   0  0  0  0  0  0  0  0  0  0  0  0
    1.5491   -5.2281   -1.4871 H   0  0  0  0  0  0  0  0  0  0  0  0
    2.5336   -3.7810   -1.1841 H   0  0  0  0  0  0  0  0  0  0  0  0
    2.2329   -4.9305    0.1279 H   0  0  0  0  0  0  0  0  0  0  0  0
    1.2742   -1.3808    0.5293 N   0  0  0  0  0  0  0  0  0  0  0  0
    0.5616   -0.2678   -0.1414 C   0  0  2  0  0  0  0  0  0  0  0  0
    1.0894    1.0527    0.4622 C   0  0  0  0  0  0  0  0  0  0  0  0
    0.8983    1.3377    1.6380 O   0  0  0  0  0  0  0  0  0  0  0  0
   -0.9869   -0.1714   -0.0262 C   0  0  0  0  0  0  0  0  0  0  0  0
   -1.7787   -1.2821   -0.7245 C   0  0  0  0  0  0  0  0  0  0  0  0
   -3.2908   -1.1534   -0.5643 C   0  0  0  0  0  0  0  0  0  0  0  0
   -3.8255   -0.0402   -0.7856 O   0  5  0  0  0  0  0  0  0  0  0  0
   -3.9089   -2.2097   -0.2788 O   0  0  0  0  0  0  0  0  0  0  0  0
    1.7254   -1.0706    1.3900 H   0  0  0  0  0  0  0  0  0  0  0  0
    0.8141   -0.2957   -1.2052 H   0  0  0  0  0  0  0  0  0  0  0  0
   -1.3123    0.7871   -0.4466 H   0  0  0  0  0  0  0  0  0  0  0  0
   -1.2647   -0.1692    1.0341 H   0  0  0  0  0  0  0  0  0  0  0  0
   -1.5253   -2.2250   -0.2695 H   0  0  0  0  0  0  0  0  0  0  0  0
   -1.5265   -1.3114   -1.7880 H   0  0  0  0  0  0  0  0  0  0  0  0
    1.9583    1.8425   -0.2675 N   0  0  0  0  0  0  0  0  0  0  0  0
    2.4327    3.1615    0.1690 C   0  0  2  0  0  0  0  0  0  0  0  0
    2.5195    4.1517   -1.0101 C   0  0  0  0  0  0  0  0  0  0  0  0
    2.6714    3.7377   -2.1550 O   0  0  0  0  0  0  0  0  0  0  0  0
    3.8032    2.9920    0.8288 C   0  0  0  0  0  0  0  0  0  0  0  0
    2.0683    1.6221   -1.2563 H   0  0  0  0  0  0  0  0  0  0  0  0
    1.7331    3.5840    0.8982 H   0  0  0  0  0  0  0  0  0  0  0  0
    4.5249    2.5842    0.1139 H   0  0  0  0  0  0  0  0  0  0  0  0
    4.1748    3.9555    1.1900 H   0  0  0  0  0  0  0  0  0  0  0  0
    3.7308    2.3079    1.6804 H   0  0  0  0  0  0  0  0  0  0  0  0
    2.4202    5.5129   -0.7849 N   0  0  0  0  0  0  0  0  0  0  0  0
    2.3805    6.4976   -1.8586 C   0  0  0  0  0  0  0  0  0  0  0  0
    2.1998    5.8112    0.1611 H   0  0  0  0  0  0  0  0  0  0  0  0
    3.2558    6.3944   -2.5086 H   0  0  0  0  0  0  0  0  0  0  0  0
    1.4756    6.3682   -2.4613 H   0  0  0  0  0  0  0  0  0  0  0  0
    2.3791    7.5095   -1.4424 H   0  0  0  0  0  0  0  0  0  0  0  0
  1  2  2  0  0  0  0
  1  3  1  0  0  0  0
  1  7  1  0  0  0  0
  3  4  1  0  0  0  0
  3  5  1  0  0  0  0
  3  6  1  0  0  0  0
  7  8  1  0  0  0  0
  7 12  1  0  0  0  0
  8  9  1  0  0  0  0
  8 11  1  0  0  0  0
  8 13  1  0  0  0  0
  9 10  2  0  0  0  0
  9 17  1  0  0  0  0
 11 14  1  0  0  0  0
 11 15  1  0  0  0  0
 11 16  1  0  0  0  0
 17 18  1  0  0  0  0
 17 26  1  0  0  0  0
 18 19  1  0  0  0  0
 18 21  1  0  0  0  0
 18 27  1  0  0  0  0
 19 20  2  0  0  0  0
 19 32  1  0  0  0  0
 21 22  1  0  0  0  0
 21 28  1  0  0  0  0
 21 29  1  0  0  0  0
 22 23  1  0  0  0  0
 22 30  1  0  0  0  0
 22 31  1  0  0  0  0
 23 24  1  0  0  0  0
 23 25  2  0  0  0  0
 32 33  1  0  0  0  0
 32 37  1  0  0  0  0
 33 34  1  0  0  0  0
 33 36  1  0  0  0  0
 33 38  1  0  0  0  0
 34 35  2  0  0  0  0
 34 42  1  0  0  0  0
 36 39  1  0  0  0  0
 36 40  1  0  0  0  0
 36 41  1  0  0  0  0
 42 43  1  0  0  0  0
 42 44  1  0  0  0  0
 43 45  1  0  0  0  0
 43 46  1  0  0  0  0
 43 47  1  0  0  0  0
M  CHG  1  24  -1
M  END
$$$$

  -OEChem-05262216243D

 47 46  0     1  0  0  0  0  0999 V2000
   -1.1551   -5.2019   -0.4608 C   0  0  0  0  0  0  0  0  0  0  0  0
   -0.9012   -5.2678   -1.6562 O   0  0  0  0  0  0  0  0  0  0  0  0
   -2.4213   -5.8363    0.0838 C   0  0  0  0  0  0  0  0  0  0  0  0
   -3.0621   -5.0658    0.5225 H   0  0  0  0  0  0  0  0  0  0  0  0
   -2.9718   -6.3325   -0.7200 H   0  0  0  0  0  0  0  0  0  0  0  0
   -2.1727   -6.5725    0.8516 H   0  0  0  0  0  0  0  0  0  0  0  0
   -0.2768   -4.5784    0.4028 N   0  0  0  0  0  0  0  0  0  0  0  0
    0.7608   -3.6412   -0.0554 C   0  0  2  0  0  0  0  0  0  0  0  0
    1.0927   -2.5619    1.0045 C   0  0  0  0  0  0  0  0  0  0  0  0
    1.4994   -2.8900    2.1099 O   0  0  0  0  0  0  0  0  0  0  0  0
    2.0223   -4.4375   -0.4108 C   0  0  0  0  0  0  0  0  0  0  0  0
   -0.6100   -4.4622    1.3583 H   0  0  0  0  0  0  0  0  0  0  0  0
    0.4099   -3.1198   -0.9521 H   0  0  0  0  0  0  0  0  0  0  0  0
    1.8090   -5.1545   -1.2092 H   0  0  0  0  0  0  0  0  0  0  0  0
    2.8119   -3.7629   -0.7546 H   0  0  0  0  0  0  0  0  0  0  0  0
    2.3876   -4.9864    0.4629 H   0  0  0  0  0  0  0  0  0  0  0  0
    1.4493   -1.2863    0.6396 N   0  0  0  0  0  0  0  0  0  0  0  0
    0.5540   -0.2632    0.0548 C   0  0  2  0  0  0  0  0  0  0  0  0
    1.0885    1.1194    0.4886 C   0  0  0  0  0  0  0  0  0  0  0  0
    1.3752    1.3404    1.6601 O   0  0  0  0  0  0  0  0  0  0  0  0
   -0.9377   -0.2441    0.4926 C   0  0  0  0  0  0  0  0  0  0  0  0
   -1.8004   -1.4425    0.0652 C   0  0  0  0  0  0  0  0  0  0  0  0
   -3.2480   -1.3546    0.5545 C   0  0  0  0  0  0  0  0  0  0  0  0
   -3.8049   -2.4402    0.8542 O   0  5  0  0  0  0  0  0  0  0  0  0
   -3.7875   -0.2238    0.6412 O   0  0  0  0  0  0  0  0  0  0  0  0
    1.9905   -0.8935    1.4114 H   0  0  0  0  0  0  0  0  0  0  0  0
    0.5949   -0.3445   -1.0352 H   0  0  0  0  0  0  0  0  0  0  0  0
   -1.4049    0.6606    0.0864 H   0  0  0  0  0  0  0  0  0  0  0  0
   -0.9827   -0.1681    1.5853 H   0  0  0  0  0  0  0  0  0  0  0  0
   -1.4017   -2.3451    0.5064 H   0  0  0  0  0  0  0  0  0  0  0  0
   -1.7897   -1.5489   -1.0228 H   0  0  0  0  0  0  0  0  0  0  0  0
    1.4760    2.0418   -0.4653 N   0  0  0  0  0  0  0  0  0  0  0  0
    2.0186    3.3716   -0.1604 C   0  0  2  0  0  0  0  0  0  0  0  0
    1.6997    4.3896   -1.2749 C   0  0  0  0  0  0  0  0  0  0  0  0
    1.4320    4.0040   -2.4081 O   0  0  0  0  0  0  0  0  0  0  0  0
    3.5343    3.2528    0.0277 C   0  0  0  0  0  0  0  0  0  0  0  0
    1.1944    1.8684   -1.4297 H   0  0  0  0  0  0  0  0  0  0  0  0
    1.5678    3.7446    0.7654 H   0  0  0  0  0  0  0  0  0  0  0  0
    4.0031    2.8708   -0.8847 H   0  0  0  0  0  0  0  0  0  0  0  0
    3.9691    4.2290    0.2619 H   0  0  0  0  0  0  0  0  0  0  0  0
    3.7634    2.5679    0.8503 H   0  0  0  0  0  0  0  0  0  0  0  0
    1.7222    5.7468   -1.0077 N   0  0  0  0  0  0  0  0  0  0  0  0
    1.3637    6.7599   -1.9921 C   0  0  0  0  0  0  0  0  0  0  0  0
    1.8763    6.0300   -0.0443 H   0  0  0  0  0  0  0  0  0  0  0  0
    1.9725    6.6499   -2.8956 H   0  0  0  0  0  0  0  0  0  0  0  0
    0.3072    6.6698   -2.2653 H   0  0  0  0  0  0  0  0  0  0  0  0
    1.5336    7.7606   -1.5838 H   0  0  0  0  0  0  0  0  0  0  0  0
  1  2  2  0  0  0  0
  1  3  1  0  0  0  0
  1  7  1  0  0  0  0
  3  4  1  0  0  0  0
  3  5  1  0  0  0  0
  3  6  1  0  0  0  0
  7  8  1  0  0  0  0
  7 12  1  0  0  0  0
  8  9  1  0  0  0  0
  8 11  1  0  0  0  0
  8 13  1  0  0  0  0
  9 10  2  0  0  0  0
  9 17  1  0  0  0  0
 11 14  1  0  0  0  0
 11 15  1  0  0  0  0
 11 16  1  0  0  0  0
 17 18  1  0  0  0  0
 17 26  1  0  0  0  0
 18 19  1  0  0  0  0
 18 21  1  0  0  0  0
 18 27  1  0  0  0  0
 19 20  2  0  0  0  0
 19 32  1  0  0  0  0
 21 22  1  0  0  0  0
 21 28  1  0  0  0  0
 21 29  1  0  0  0  0
 22 23  1  0  0  0  0
 22 30  1  0  0  0  0
 22 31  1  0  0  0  0
 23 24  1  0  0  0  0
 23 25  2  0  0  0  0
 32 33  1  0  0  0  0
 32 37  1  0  0  0  0
 33 34  1  0  0  0  0
 33 36  1  0  0  0  0
 33 38  1  0  0  0  0
 34 35  2  0  0  0  0
 34 42  1  0  0  0  0
 36 39  1  0  0  0  0
 36 40  1  0  0  0  0
 36 41  1  0  0  0  0
 42 43  1  0  0  0  0
 42 44  1  0  0  0  0
 43 45  1  0  0  0  0
 43 46  1  0  0  0  0
 43 47  1  0  0  0  0
M  CHG  1  24  -1
M  END
$$$$

  -OEChem-05262216243D

 47 46  0     1  0  0  0  0  0999 V2000
   -1.1849   -5.1307   -0.4168 C   0  0  0  0  0  0  0  0  0  0  0  0
   -0.9263   -5.2166   -1.6100 O   0  0  0  0  0  0  0  0  0  0  0  0
   -2.4697   -5.7249    0.1287 C   0  0  0  0  0  0  0  0  0  0  0  0
   -3.0789   -4.9365    0.5799 H   0  0  0  0  0  0  0  0  0  0  0  0
   -3.0430   -6.1912   -0.6767 H   0  0  0  0  0  0  0  0  0  0  0  0
   -2.2431   -6.4781    0.8864 H   0  0  0  0  0  0  0  0  0  0  0  0
   -0.2951   -4.5210    0.4448 N   0  0  0  0  0  0  0  0  0  0  0  0
    0.7708   -3.6199   -0.0193 C   0  0  2  0  0  0  0  0  0  0  0  0
    1.1194   -2.5276    1.0210 C   0  0  0  0  0  0  0  0  0  0  0  0
    1.5047   -2.8418    2.1380 O   0  0  0  0  0  0  0  0  0  0  0  0
    2.0138   -4.4571   -0.3426 C   0  0  0  0  0  0  0  0  0  0  0  0
   -0.6300   -4.3838    1.3968 H   0  0  0  0  0  0  0  0  0  0  0  0
    0.4440   -3.1086   -0.9309 H   0  0  0  0  0  0  0  0  0  0  0  0
    1.7894   -5.1862   -1.1271 H   0  0  0  0  0  0  0  0  0  0  0  0
    2.8252   -3.8118   -0.6919 H   0  0  0  0  0  0  0  0  0  0  0  0
    2.3541   -4.9959    0.5474 H   0  0  0  0  0  0  0  0  0  0  0  0
    1.5022   -1.2677    0.6300 N   0  0  0  0  0  0  0  0  0  0  0  0
    0.6316   -0.2449    0.0084 C   0  0  2  0  0  0  0  0  0  0  0  0
    1.1761    1.1438    0.4100 C   0  0  0  0  0  0  0  0  0  0  0  0
    1.6654    1.3266    1.5202 O   0  0  0  0  0  0  0  0  0  0  0  0
   -0.8605   -0.1811    0.4405 C   0  0  0  0  0  0  0  0  0  0  0  0
   -1.7505   -1.3726    0.0515 C   0  0  0  0  0  0  0  0  0  0  0  0
   -3.1965   -1.2355    0.5347 C   0  0  0  0  0  0  0  0  0  0  0  0
   -3.7941   -2.3022    0.8231 O   0  5  0  0  0  0  0  0  0  0  0  0
   -3.6936   -0.0860    0.6316 O   0  0  0  0  0  0  0  0  0  0  0  0
    2.0501   -0.8609    1.3906 H   0  0  0  0  0  0  0  0  0  0  0  0
    0.6803   -0.3567   -1.0785 H   0  0  0  0  0  0  0  0  0  0  0  0
   -1.3082    0.7190    0.0028 H   0  0  0  0  0  0  0  0  0  0  0  0
   -0.9055   -0.0666    1.5302 H   0  0  0  0  0  0  0  0  0  0  0  0
   -1.3735   -2.2671    0.5265 H   0  0  0  0  0  0  0  0  0  0  0  0
   -1.7399   -1.5181   -1.0321 H   0  0  0  0  0  0  0  0  0  0  0  0
    1.2957    2.1442   -0.5364 N   0  0  0  0  0  0  0  0  0  0  0  0
    1.7363    3.5111   -0.2330 C   0  0  2  0  0  0  0  0  0  0  0  0
    1.0198    4.5513   -1.1166 C   0  0  0  0  0  0  0  0  0  0  0  0
    0.6382    4.2486   -2.2420 O   0  0  0  0  0  0  0  0  0  0  0  0
    3.2510    3.5922   -0.4394 C   0  0  0  0  0  0  0  0  0  0  0  0
    0.8271    2.0001   -1.4304 H   0  0  0  0  0  0  0  0  0  0  0  0
    1.5015    3.7501    0.8097 H   0  0  0  0  0  0  0  0  0  0  0  0
    3.5087    3.3605   -1.4779 H   0  0  0  0  0  0  0  0  0  0  0  0
    3.6153    4.5967   -0.2046 H   0  0  0  0  0  0  0  0  0  0  0  0
    3.7613    2.8780    0.2145 H   0  0  0  0  0  0  0  0  0  0  0  0
    0.8144    5.8366   -0.6490 N   0  0  0  0  0  0  0  0  0  0  0  0
    0.0604    6.8402   -1.3883 C   0  0  0  0  0  0  0  0  0  0  0  0
    1.0556    6.0212    0.3204 H   0  0  0  0  0  0  0  0  0  0  0  0
    0.5052    7.0035   -2.3754 H   0  0  0  0  0  0  0  0  0  0  0  0
   -0.9787    6.5196   -1.5176 H   0  0  0  0  0  0  0  0  0  0  0  0
    0.0661    7.7909   -0.8468 H   0  0  0  0  0  0  0  0  0  0  0  0
  1  2  2  0  0  0  0
  1  3  1  0  0  0  0
  1  7  1  0  0  0  0
  3  4  1  0  0  0  0
  3  5  1  0  0  0  0
  3  6  1  0  0  0  0
  7  8  1  0  0  0  0
  7 12  1  0  0  0  0
  8  9  1  0  0  0  0
  8 11  1  0  0  0  0
  8 13  1  0  0  0  0
  9 10  2  0  0  0  0
  9 17  1  0  0  0  0
 11 14  1  0  0  0  0
 11 15  1  0  0  0  0
 11 16  1  0  0  0  0
 17 18  1  0  0  0  0
 17 26  1  0  0  0  0
 18 19  1  0  0  0  0
 18 21  1  0  0  0  0
 18 27  1  0  0  0  0
 19 20  2  0  0  0  0
 19 32  1  0  0  0  0
 21 22  1  0  0  0  0
 21 28  1  0  0  0  0
 21 29  1  0  0  0  0
 22 23  1  0  0  0  0
 22 30  1  0  0  0  0
 22 31  1  0  0  0  0
 23 24  1  0  0  0  0
 23 25  2  0  0  0  0
 32 33  1  0  0  0  0
 32 37  1  0  0  0  0
 33 34  1  0  0  0  0
 33 36  1  0  0  0  0
 33 38  1  0  0  0  0
 34 35  2  0  0  0  0
 34 42  1  0  0  0  0
 36 39  1  0  0  0  0
 36 40  1  0  0  0  0
 36 41  1  0  0  0  0
 42 43  1  0  0  0  0
 42 44  1  0  0  0  0
 43 45  1  0  0  0  0
 43 46  1  0  0  0  0
 43 47  1  0  0  0  0
M  CHG  1  24  -1
M  END
$$$$

  -OEChem-05262216243D

 47 46  0     1  0  0  0  0  0999 V2000
   -0.6308   -5.5572    0.6808 C   0  0  0  0  0  0  0  0  0  0  0  0
    0.3749   -6.2259    0.8643 O   0  0  0  0  0  0  0  0  0  0  0  0
   -1.9538   -6.0642    1.2256 C   0  0  0  0  0  0  0  0  0  0  0  0
   -1.7954   -6.9533    1.8419 H   0  0  0  0  0  0  0  0  0  0  0  0
   -2.4232   -5.2903    1.8389 H   0  0  0  0  0  0  0  0  0  0  0  0
   -2.6245   -6.3183    0.4011 H   0  0  0  0  0  0  0  0  0  0  0  0
   -0.6420   -4.3866   -0.0557 N   0  0  0  0  0  0  0  0  0  0  0  0
    0.5086   -3.5223   -0.4086 C   0  0  2  0  0  0  0  0  0  0  0  0
    0.8698   -2.5068    0.7094 C   0  0  0  0  0  0  0  0  0  0  0  0
    1.1970   -2.8787    1.8255 O   0  0  0  0  0  0  0  0  0  0  0  0
    1.7569   -4.2999   -0.8525 C   0  0  0  0  0  0  0  0  0  0  0  0
   -1.5568   -3.9327   -0.0755 H   0  0  0  0  0  0  0  0  0  0  0  0
    0.2028   -2.9394   -1.2812 H   0  0  0  0  0  0  0  0  0  0  0  0
    1.4857   -5.0776   -1.5726 H   0  0  0  0  0  0  0  0  0  0  0  0
    2.4736   -3.6217   -1.3244 H   0  0  0  0  0  0  0  0  0  0  0  0
    2.2513   -4.7697    0.0034 H   0  0  0  0  0  0  0  0  0  0  0  0
    1.3133   -1.2348    0.4292 N   0  0  0  0  0  0  0  0  0  0  0  0
    0.5806   -0.1308   -0.2344 C   0  0  2  0  0  0  0  0  0  0  0  0
    1.1230    1.2086    0.3159 C   0  0  0  0  0  0  0  0  0  0  0  0
    1.6544    1.2664    1.4203 O   0  0  0  0  0  0  0  0  0  0  0  0
   -0.9536   -0.0174   -0.0071 C   0  0  0  0  0  0  0  0  0  0  0  0
   -1.8125   -1.1397   -0.6006 C   0  0  0  0  0  0  0  0  0  0  0  0
   -3.3051   -0.9788   -0.3237 C   0  0  0  0  0  0  0  0  0  0  0  0
   -3.8135    0.1656   -0.4071 O   0  5  0  0  0  0  0  0  0  0  0  0
   -3.9361   -2.0344   -0.0676 O   0  0  0  0  0  0  0  0  0  0  0  0
    1.8213   -0.8968    1.2497 H   0  0  0  0  0  0  0  0  0  0  0  0
    0.7760   -0.1811   -1.3094 H   0  0  0  0  0  0  0  0  0  0  0  0
   -1.3064    0.9266   -0.4383 H   0  0  0  0  0  0  0  0  0  0  0  0
   -1.1467    0.0275    1.0713 H   0  0  0  0  0  0  0  0  0  0  0  0
   -1.5377   -2.0723   -0.1343 H   0  0  0  0  0  0  0  0  0  0  0  0
   -1.6465   -1.2088   -1.6789 H   0  0  0  0  0  0  0  0  0  0  0  0
    1.1184    2.3403   -0.4789 N   0  0  0  0  0  0  0  0  0  0  0  0
    1.4967    3.6782   -0.0076 C   0  0  2  0  0  0  0  0  0  0  0  0
    0.5533    4.7558   -0.5774 C   0  0  0  0  0  0  0  0  0  0  0  0
    0.2858    4.7651   -1.7737 O   0  0  0  0  0  0  0  0  0  0  0  0
    2.9450    3.9482   -0.4229 C   0  0  0  0  0  0  0  0  0  0  0  0
    0.6075    2.2880   -1.3595 H   0  0  0  0  0  0  0  0  0  0  0  0
    1.4280    3.7256    1.0842 H   0  0  0  0  0  0  0  0  0  0  0  0
    3.0473    3.9038   -1.5119 H   0  0  0  0  0  0  0  0  0  0  0  0
    3.2606    4.9390   -0.0827 H   0  0  0  0  0  0  0  0  0  0  0  0
    3.6100    3.2008    0.0209 H   0  0  0  0  0  0  0  0  0  0  0  0
   -0.0033    5.7086    0.2564 N   0  0  0  0  0  0  0  0  0  0  0  0
   -1.0253    6.6470   -0.1894 C   0  0  0  0  0  0  0  0  0  0  0  0
    0.1351    5.5816    1.2550 H   0  0  0  0  0  0  0  0  0  0  0  0
   -0.6568    7.2461   -1.0285 H   0  0  0  0  0  0  0  0  0  0  0  0
   -1.9254    6.1100   -0.5070 H   0  0  0  0  0  0  0  0  0  0  0  0
   -1.2951    7.3251    0.6258 H   0  0  0  0  0  0  0  0  0  0  0  0
  1  2  2  0  0  0  0
  1  3  1  0  0  0  0
  1  7  1  0  0  0  0
  3  4  1  0  0  0  0
  3  5  1  0  0  0  0
  3  6  1  0  0  0  0
  7  8  1  0  0  0  0
  7 12  1  0  0  0  0
  8  9  1  0  0  0  0
  8 11  1  0  0  0  0
  8 13  1  0  0  0  0
  9 10  2  0  0  0  0
  9 17  1  0  0  0  0
 11 14  1  0  0  0  0
 11 15  1  0  0  0  0
 11 16  1  0  0  0  0
 17 18  1  0  0  0  0
 17 26  1  0  0  0  0
 18 19  1  0  0  0  0
 18 21  1  0  0  0  0
 18 27  1  0  0  0  0
 19 20  2  0  0  0  0
 19 32  1  0  0  0  0
 21 22  1  0  0  0  0
 21 28  1  0  0  0  0
 21 29  1  0  0  0  0
 22 23  1  0  0  0  0
 22 30  1  0  0  0  0
 22 31  1  0  0  0  0
 23 24  1  0  0  0  0
 23 25  2  0  0  0  0
 32 33  1  0  0  0  0
 32 37  1  0  0  0  0
 33 34  1  0  0  0  0
 33 36  1  0  0  0  0
 33 38  1  0  0  0  0
 34 35  2  0  0  0  0
 34 42  1  0  0  0  0
 36 39  1  0  0  0  0
 36 40  1  0  0  0  0
 36 41  1  0  0  0  0
 42 43  1  0  0  0  0
 42 44  1  0  0  0  0
 43 45  1  0  0  0  0
 43 46  1  0  0  0  0
 43 47  1  0  0  0  0
M  CHG  1  24  -1
M  END
$$$$

  -OEChem-05262216243D

 47 46  0     1  0  0  0  0  0999 V2000
   -1.0377   -4.9496    1.0474 C   0  0  0  0  0  0  0  0  0  0  0  0
   -1.4113   -3.9782    1.6784 O   0  0  0  0  0  0  0  0  0  0  0  0
   -1.5681   -6.3220    1.4206 C   0  0  0  0  0  0  0  0  0  0  0  0
   -0.7383   -7.0043    1.6187 H   0  0  0  0  0  0  0  0  0  0  0  0
   -2.1889   -6.2534    2.3187 H   0  0  0  0  0  0  0  0  0  0  0  0
   -2.1752   -6.7194    0.6036 H   0  0  0  0  0  0  0  0  0  0  0  0
   -0.1345   -4.8411    0.0057 N   0  0  0  0  0  0  0  0  0  0  0  0
    0.4472   -3.5847   -0.5026 C   0  0  2  0  0  0  0  0  0  0  0  0
    0.9328   -2.5835    0.5838 C   0  0  0  0  0  0  0  0  0  0  0  0
    1.6709   -2.9912    1.4735 O   0  0  0  0  0  0  0  0  0  0  0  0
    1.6452   -3.9923   -1.3679 C   0  0  0  0  0  0  0  0  0  0  0  0
    0.1483   -5.7080   -0.4339 H   0  0  0  0  0  0  0  0  0  0  0  0
   -0.2659   -3.0903   -1.1603 H   0  0  0  0  0  0  0  0  0  0  0  0
    1.3259   -4.6621   -2.1721 H   0  0  0  0  0  0  0  0  0  0  0  0
    2.1050   -3.1072   -1.8188 H   0  0  0  0  0  0  0  0  0  0  0  0
    2.4003   -4.5039   -0.7622 H   0  0  0  0  0  0  0  0  0  0  0  0
    1.2037   -1.2638    0.3046 N   0  0  0  0  0  0  0  0  0  0  0  0
    0.3675   -0.1772   -0.2570 C   0  0  2  0  0  0  0  0  0  0  0  0
    0.8951    1.1573    0.3345 C   0  0  0  0  0  0  0  0  0  0  0  0
    1.7195    1.1658    1.2455 O   0  0  0  0  0  0  0  0  0  0  0  0
   -1.1630   -0.1230    0.0337 C   0  0  0  0  0  0  0  0  0  0  0  0
   -2.0502   -1.2293   -0.5574 C   0  0  0  0  0  0  0  0  0  0  0  0
   -3.5354   -1.0906   -0.1991 C   0  0  0  0  0  0  0  0  0  0  0  0
   -3.9130   -0.0867    0.4584 O   0  5  0  0  0  0  0  0  0  0  0  0
   -4.3070   -1.9469   -0.6988 O   0  0  0  0  0  0  0  0  0  0  0  0
    1.8389   -0.9127    1.0247 H   0  0  0  0  0  0  0  0  0  0  0  0
    0.5103   -0.1642   -1.3409 H   0  0  0  0  0  0  0  0  0  0  0  0
   -1.5655    0.8264   -0.3351 H   0  0  0  0  0  0  0  0  0  0  0  0
   -1.3006   -0.1319    1.1216 H   0  0  0  0  0  0  0  0  0  0  0  0
   -1.7548   -2.1796   -0.1290 H   0  0  0  0  0  0  0  0  0  0  0  0
   -1.9336   -1.2627   -1.6441 H   0  0  0  0  0  0  0  0  0  0  0  0
    0.5336    2.3719   -0.2216 N   0  0  0  0  0  0  0  0  0  0  0  0
    0.9248    3.6800    0.3175 C   0  0  2  0  0  0  0  0  0  0  0  0
   -0.0707    4.7842   -0.0898 C   0  0  0  0  0  0  0  0  0  0  0  0
   -0.6134    4.7512   -1.1887 O   0  0  0  0  0  0  0  0  0  0  0  0
    2.3263    4.0345   -0.1905 C   0  0  0  0  0  0  0  0  0  0  0  0
   -0.1986    2.3628   -0.9316 H   0  0  0  0  0  0  0  0  0  0  0  0
    0.9383    3.6301    1.4116 H   0  0  0  0  0  0  0  0  0  0  0  0
    2.3346    4.0823   -1.2840 H   0  0  0  0  0  0  0  0  0  0  0  0
    2.6410    5.0050    0.2045 H   0  0  0  0  0  0  0  0  0  0  0  0
    3.0514    3.2805    0.1303 H   0  0  0  0  0  0  0  0  0  0  0  0
   -0.3275    5.8402    0.7659 N   0  0  0  0  0  0  0  0  0  0  0  0
   -1.3130    6.8735    0.4766 C   0  0  0  0  0  0  0  0  0  0  0  0
    0.0602    5.7814    1.7030 H   0  0  0  0  0  0  0  0  0  0  0  0
   -1.0844    7.3657   -0.4745 H   0  0  0  0  0  0  0  0  0  0  0  0
   -2.3161    6.4385    0.4168 H   0  0  0  0  0  0  0  0  0  0  0  0
   -1.3089    7.6312    1.2658 H   0  0  0  0  0  0  0  0  0  0  0  0
  1  2  2  0  0  0  0
  1  3  1  0  0  0  0
  1  7  1  0  0  0  0
  3  4  1  0  0  0  0
  3  5  1  0  0  0  0
  3  6  1  0  0  0  0
  7  8  1  0  0  0  0
  7 12  1  0  0  0  0
  8  9  1  0  0  0  0
  8 11  1  0  0  0  0
  8 13  1  0  0  0  0
  9 10  2  0  0  0  0
  9 17  1  0  0  0  0
 11 14  1  0  0  0  0
 11 15  1  0  0  0  0
 11 16  1  0  0  0  0
 17 18  1  0  0  0  0
 17 26  1  0  0  0  0
 18 19  1  0  0  0  0
 18 21  1  0  0  0  0
 18 27  1  0  0  0  0
 19 20  2  0  0  0  0
 19 32  1  0  0  0  0
 21 22  1  0  0  0  0
 21 28  1  0  0  0  0
 21 29  1  0  0  0  0
 22 23  1  0  0  0  0
 22 30  1  0  0  0  0
 22 31  1  0  0  0  0
 23 24  1  0  0  0  0
 23 25  2  0  0  0  0
 32 33  1  0  0  0  0
 32 37  1  0  0  0  0
 33 34  1  0  0  0  0
 33 36  1  0  0  0  0
 33 38  1  0  0  0  0
 34 35  2  0  0  0  0
 34 42  1  0  0  0  0
 36 39  1  0  0  0  0
 36 40  1  0  0  0  0
 36 41  1  0  0  0  0
 42 43  1  0  0  0  0
 42 44  1  0  0  0  0
 43 45  1  0  0  0  0
 43 46  1  0  0  0  0
 43 47  1  0  0  0  0
M  CHG  1  24  -1
M  END
$$$$

  -OEChem-05262216243D

 47 46  0     1  0  0  0  0  0999 V2000
   -0.4469   -2.0052    1.9819 C   0  0  0  0  0  0  0  0  0  0  0  0
    0.6596   -1.7145    2.4162 O   0  0  0  0  0  0  0  0  0  0  0  0
   -1.6918   -1.3575    2.5610 C   0  0  0  0  0  0  0  0  0  0  0  0
   -2.3439   -2.1237    2.9870 H   0  0  0  0  0  0  0  0  0  0  0  0
   -1.4202   -0.6455    3.3444 H   0  0  0  0  0  0  0  0  0  0  0  0
   -2.2424   -0.8277    1.7795 H   0  0  0  0  0  0  0  0  0  0  0  0
   -0.5488   -2.9017    0.9406 N   0  0  0  0  0  0  0  0  0  0  0  0
    0.6148   -3.5316    0.2850 C   0  0  2  0  0  0  0  0  0  0  0  0
    1.1905   -2.6688   -0.8675 C   0  0  0  0  0  0  0  0  0  0  0  0
    1.2995   -3.0955   -2.0118 O   0  0  0  0  0  0  0  0  0  0  0  0
    0.1644   -4.9211   -0.1819 C   0  0  0  0  0  0  0  0  0  0  0  0
   -1.4531   -2.9083    0.4528 H   0  0  0  0  0  0  0  0  0  0  0  0
    1.4204   -3.6710    1.0127 H   0  0  0  0  0  0  0  0  0  0  0  0
   -0.6407   -4.8356   -0.9190 H   0  0  0  0  0  0  0  0  0  0  0  0
    1.0002   -5.4578   -0.6412 H   0  0  0  0  0  0  0  0  0  0  0  0
   -0.1997   -5.5077    0.6668 H   0  0  0  0  0  0  0  0  0  0  0  0
    1.5450   -1.3545   -0.6551 N   0  0  0  0  0  0  0  0  0  0  0  0
    0.8615   -0.2142   -1.3067 C   0  0  2  0  0  0  0  0  0  0  0  0
    1.2546    1.0956   -0.5780 C   0  0  0  0  0  0  0  0  0  0  0  0
    2.0015    1.0770    0.3961 O   0  0  0  0  0  0  0  0  0  0  0  0
   -0.6877   -0.2906   -1.1812 C   0  0  0  0  0  0  0  0  0  0  0  0
   -1.4388   -1.4148   -1.9196 C   0  0  0  0  0  0  0  0  0  0  0  0
   -2.9192   -1.2821   -1.6062 C   0  0  0  0  0  0  0  0  0  0  0  0
   -3.6308   -0.5212   -2.3034 O   0  5  0  0  0  0  0  0  0  0  0  0
   -3.2886   -1.8647   -0.5518 O   0  0  0  0  0  0  0  0  0  0  0  0
    1.6949   -1.1703    0.3406 H   0  0  0  0  0  0  0  0  0  0  0  0
    1.1546   -0.1573   -2.3593 H   0  0  0  0  0  0  0  0  0  0  0  0
   -1.1136    0.6427   -1.5632 H   0  0  0  0  0  0  0  0  0  0  0  0
   -0.9436   -0.3371   -0.1206 H   0  0  0  0  0  0  0  0  0  0  0  0
   -1.2746   -1.3230   -2.9969 H   0  0  0  0  0  0  0  0  0  0  0  0
   -1.1388   -2.4156   -1.6274 H   0  0  0  0  0  0  0  0  0  0  0  0
    0.7573    2.3234   -0.9801 N   0  0  0  0  0  0  0  0  0  0  0  0
    1.0246    3.5933   -0.2841 C   0  0  2  0  0  0  0  0  0  0  0  0
    0.2235    3.7505    1.0361 C   0  0  0  0  0  0  0  0  0  0  0  0
   -0.4316    4.7600    1.2737 O   0  0  0  0  0  0  0  0  0  0  0  0
    0.7407    4.7168   -1.2884 C   0  0  0  0  0  0  0  0  0  0  0  0
    0.0358    2.3097   -1.6971 H   0  0  0  0  0  0  0  0  0  0  0  0
    2.0861    3.6415   -0.0199 H   0  0  0  0  0  0  0  0  0  0  0  0
   -0.3187    4.7260   -1.5648 H   0  0  0  0  0  0  0  0  0  0  0  0
    0.9943    5.6886   -0.8533 H   0  0  0  0  0  0  0  0  0  0  0  0
    1.3386    4.5786   -2.1945 H   0  0  0  0  0  0  0  0  0  0  0  0
    0.2678    2.7456    1.9833 N   0  0  0  0  0  0  0  0  0  0  0  0
   -0.4778    2.7554    3.2327 C   0  0  0  0  0  0  0  0  0  0  0  0
    0.8601    1.9404    1.7608 H   0  0  0  0  0  0  0  0  0  0  0  0
   -0.1793    3.6079    3.8511 H   0  0  0  0  0  0  0  0  0  0  0  0
   -1.5529    2.8182    3.0354 H   0  0  0  0  0  0  0  0  0  0  0  0
   -0.2824    1.8354    3.7920 H   0  0  0  0  0  0  0  0  0  0  0  0
  1  2  2  0  0  0  0
  1  3  1  0  0  0  0
  1  7  1  0  0  0  0
  3  4  1  0  0  0  0
  3  5  1  0  0  0  0
  3  6  1  0  0  0  0
  7  8  1  0  0  0  0
  7 12  1  0  0  0  0
  8  9  1  0  0  0  0
  8 11  1  0  0  0  0
  8 13  1  0  0  0  0
  9 10  2  0  0  0  0
  9 17  1  0  0  0  0
 11 14  1  0  0  0  0
 11 15  1  0  0  0  0
 11 16  1  0  0  0  0
 17 18  1  0  0  0  0
 17 26  1  0  0  0  0
 18 19  1  0  0  0  0
 18 21  1  0  0  0  0
 18 27  1  0  0  0  0
 19 20  2  0  0  0  0
 19 32  1  0  0  0  0
 21 22  1  0  0  0  0
 21 28  1  0  0  0  0
 21 29  1  0  0  0  0
 22 23  1  0  0  0  0
 22 30  1  0  0  0  0
 22 31  1  0  0  0  0
 23 24  1  0  0  0  0
 23 25  2  0  0  0  0
 32 33  1  0  0  0  0
 32 37  1  0  0  0  0
 33 34  1  0  0  0  0
 33 36  1  0  0  0  0
 33 38  1  0  0  0  0
 34 35  2  0  0  0  0
 34 42  1  0  0  0  0
 36 39  1  0  0  0  0
 36 40  1  0  0  0  0
 36 41  1  0  0  0  0
 42 43  1  0  0  0  0
 42 44  1  0  0  0  0
 43 45  1  0  0  0  0
 43 46  1  0  0  0  0
 43 47  1  0  0  0  0
M  CHG  1  24  -1
M  END
$$$$

  -OEChem-05262216243D

 47 46  0     1  0  0  0  0  0999 V2000
   -0.3578   -1.8070    2.1285 C   0  0  0  0  0  0  0  0  0  0  0  0
    0.7263   -1.3656    2.4870 O   0  0  0  0  0  0  0  0  0  0  0  0
   -1.6431   -1.2362    2.7002 C   0  0  0  0  0  0  0  0  0  0  0  0
   -2.4044   -2.0182    2.7628 H   0  0  0  0  0  0  0  0  0  0  0  0
   -1.4670   -0.8360    3.7015 H   0  0  0  0  0  0  0  0  0  0  0  0
   -2.0203   -0.4368    2.0579 H   0  0  0  0  0  0  0  0  0  0  0  0
   -0.4028   -2.7926    1.1665 N   0  0  0  0  0  0  0  0  0  0  0  0
    0.7936   -3.3688    0.5202 C   0  0  2  0  0  0  0  0  0  0  0  0
    1.2650   -2.5480   -0.7077 C   0  0  0  0  0  0  0  0  0  0  0  0
    1.3622   -3.0395   -1.8269 O   0  0  0  0  0  0  0  0  0  0  0  0
    0.4513   -4.8200    0.1637 C   0  0  0  0  0  0  0  0  0  0  0  0
   -1.3156   -2.9153    0.7108 H   0  0  0  0  0  0  0  0  0  0  0  0
    1.6254   -3.3877    1.2314 H   0  0  0  0  0  0  0  0  0  0  0  0
   -0.3745   -4.8539   -0.5545 H   0  0  0  0  0  0  0  0  0  0  0  0
    1.3189   -5.3171   -0.2809 H   0  0  0  0  0  0  0  0  0  0  0  0
    0.1570   -5.3727    1.0607 H   0  0  0  0  0  0  0  0  0  0  0  0
    1.5314   -1.2024   -0.5865 N   0  0  0  0  0  0  0  0  0  0  0  0
    0.7557   -0.1469   -1.2780 C   0  0  2  0  0  0  0  0  0  0  0  0
    1.0972    1.2192   -0.6208 C   0  0  0  0  0  0  0  0  0  0  0  0
    2.0235    1.3123    0.1799 O   0  0  0  0  0  0  0  0  0  0  0  0
   -0.7798   -0.3322   -1.0941 C   0  0  0  0  0  0  0  0  0  0  0  0
   -1.4750   -1.5455   -1.7404 C   0  0  0  0  0  0  0  0  0  0  0  0
   -2.9479   -1.4905   -1.3719 C   0  0  0  0  0  0  0  0  0  0  0  0
   -3.2366   -2.0475   -0.2787 O   0  5  0  0  0  0  0  0  0  0  0  0
   -3.7297   -0.7933   -2.0606 O   0  0  0  0  0  0  0  0  0  0  0  0
    1.7087   -0.9499    0.3889 H   0  0  0  0  0  0  0  0  0  0  0  0
    1.0120   -0.1241   -2.3415 H   0  0  0  0  0  0  0  0  0  0  0  0
   -1.2864    0.5381   -1.5219 H   0  0  0  0  0  0  0  0  0  0  0  0
   -1.0006   -0.3290   -0.0255 H   0  0  0  0  0  0  0  0  0  0  0  0
   -1.3574   -1.5072   -2.8272 H   0  0  0  0  0  0  0  0  0  0  0  0
   -1.0973   -2.5053   -1.4042 H   0  0  0  0  0  0  0  0  0  0  0  0
    0.3286    2.3541   -0.8236 N   0  0  0  0  0  0  0  0  0  0  0  0
    0.4844    3.6005   -0.0538 C   0  0  2  0  0  0  0  0  0  0  0  0
   -0.0960    3.5015    1.3825 C   0  0  0  0  0  0  0  0  0  0  0  0
   -0.8494    4.3591    1.8314 O   0  0  0  0  0  0  0  0  0  0  0  0
   -0.1615    4.7189   -0.8805 C   0  0  0  0  0  0  0  0  0  0  0  0
   -0.5241    2.2325   -1.3651 H   0  0  0  0  0  0  0  0  0  0  0  0
    1.5497    3.8330    0.0479 H   0  0  0  0  0  0  0  0  0  0  0  0
   -1.2375    4.5464   -0.9854 H   0  0  0  0  0  0  0  0  0  0  0  0
   -0.0109    5.6871   -0.3930 H   0  0  0  0  0  0  0  0  0  0  0  0
    0.2858    4.7627   -1.8781 H   0  0  0  0  0  0  0  0  0  0  0  0
    0.2520    2.4324    2.1861 N   0  0  0  0  0  0  0  0  0  0  0  0
   -0.2605    2.2054    3.5283 C   0  0  0  0  0  0  0  0  0  0  0  0
    0.9274    1.7705    1.7940 H   0  0  0  0  0  0  0  0  0  0  0  0
    0.0014    3.0406    4.1855 H   0  0  0  0  0  0  0  0  0  0  0  0
   -1.3496    2.0963    3.5076 H   0  0  0  0  0  0  0  0  0  0  0  0
    0.1713    1.2891    3.9424 H   0  0  0  0  0  0  0  0  0  0  0  0
  1  2  2  0  0  0  0
  1  3  1  0  0  0  0
  1  7  1  0  0  0  0
  3  4  1  0  0  0  0
  3  5  1  0  0  0  0
  3  6  1  0  0  0  0
  7  8  1  0  0  0  0
  7 12  1  0  0  0  0
  8  9  1  0  0  0  0
  8 11  1  0  0  0  0
  8 13  1  0  0  0  0
  9 10  2  0  0  0  0
  9 17  1  0  0  0  0
 11 14  1  0  0  0  0
 11 15  1  0  0  0  0
 11 16  1  0  0  0  0
 17 18  1  0  0  0  0
 17 26  1  0  0  0  0
 18 19  1  0  0  0  0
 18 21  1  0  0  0  0
 18 27  1  0  0  0  0
 19 20  2  0  0  0  0
 19 32  1  0  0  0  0
 21 22  1  0  0  0  0
 21 28  1  0  0  0  0
 21 29  1  0  0  0  0
 22 23  1  0  0  0  0
 22 30  1  0  0  0  0
 22 31  1  0  0  0  0
 23 24  1  0  0  0  0
 23 25  2  0  0  0  0
 32 33  1  0  0  0  0
 32 37  1  0  0  0  0
 33 34  1  0  0  0  0
 33 36  1  0  0  0  0
 33 38  1  0  0  0  0
 34 35  2  0  0  0  0
 34 42  1  0  0  0  0
 36 39  1  0  0  0  0
 36 40  1  0  0  0  0
 36 41  1  0  0  0  0
 42 43  1  0  0  0  0
 42 44  1  0  0  0  0
 43 45  1  0  0  0  0
 43 46  1  0  0  0  0
 43 47  1  0  0  0  0
M  CHG  1  24  -1
M  END
$$$$

  -OEChem-05262216243D

 47 46  0     1  0  0  0  0  0999 V2000
    0.3550   -2.6310    1.9241 C   0  0  0  0  0  0  0  0  0  0  0  0
    1.4922   -2.1984    2.0595 O   0  0  0  0  0  0  0  0  0  0  0  0
   -0.7166   -2.3035    2.9478 C   0  0  0  0  0  0  0  0  0  0  0  0
   -1.0645   -3.2220    3.4260 H   0  0  0  0  0  0  0  0  0  0  0  0
   -0.3188   -1.6323    3.7131 H   0  0  0  0  0  0  0  0  0  0  0  0
   -1.5684   -1.8199    2.4626 H   0  0  0  0  0  0  0  0  0  0  0  0
    0.0501   -3.3951    0.8195 N   0  0  0  0  0  0  0  0  0  0  0  0
    1.0224   -3.7210   -0.2419 C   0  0  2  0  0  0  0  0  0  0  0  0
    1.1008   -2.6272   -1.3377 C   0  0  0  0  0  0  0  0  0  0  0  0
    0.9212   -2.8831   -2.5236 O   0  0  0  0  0  0  0  0  0  0  0  0
    0.6224   -5.0919   -0.8010 C   0  0  0  0  0  0  0  0  0  0  0  0
   -0.9528   -3.4952    0.6169 H   0  0  0  0  0  0  0  0  0  0  0  0
    2.0247   -3.8167    0.1876 H   0  0  0  0  0  0  0  0  0  0  0  0
   -0.3721   -5.0446   -1.2569 H   0  0  0  0  0  0  0  0  0  0  0  0
    1.3382   -5.4161   -1.5625 H   0  0  0  0  0  0  0  0  0  0  0  0
    0.6045   -5.8384   -0.0015 H   0  0  0  0  0  0  0  0  0  0  0  0
    1.3379   -1.3086   -1.0146 N   0  0  0  0  0  0  0  0  0  0  0  0
    0.3522   -0.2203   -1.2265 C   0  0  2  0  0  0  0  0  0  0  0  0
    0.8193    1.0261   -0.4174 C   0  0  0  0  0  0  0  0  0  0  0  0
    2.0154    1.2002   -0.2037 O   0  0  0  0  0  0  0  0  0  0  0  0
   -1.0614   -0.6035   -0.6878 C   0  0  0  0  0  0  0  0  0  0  0  0
   -1.8512   -1.7320   -1.3823 C   0  0  0  0  0  0  0  0  0  0  0  0
   -3.1665   -1.9251   -0.6461 C   0  0  0  0  0  0  0  0  0  0  0  0
   -3.0947   -2.6790    0.3622 O   0  5  0  0  0  0  0  0  0  0  0  0
   -4.1796   -1.2762   -0.9964 O   0  0  0  0  0  0  0  0  0  0  0  0
    1.7828   -1.2324   -0.0977 H   0  0  0  0  0  0  0  0  0  0  0  0
    0.2933    0.0332   -2.2891 H   0  0  0  0  0  0  0  0  0  0  0  0
   -1.7082    0.2757   -0.7703 H   0  0  0  0  0  0  0  0  0  0  0  0
   -0.9756   -0.8355    0.3756 H   0  0  0  0  0  0  0  0  0  0  0  0
   -2.0416   -1.4619   -2.4249 H   0  0  0  0  0  0  0  0  0  0  0  0
   -1.3482   -2.6925   -1.3805 H   0  0  0  0  0  0  0  0  0  0  0  0
   -0.0491    1.9664    0.1152 N   0  0  0  0  0  0  0  0  0  0  0  0
    0.3641    3.1043    0.9482 C   0  0  2  0  0  0  0  0  0  0  0  0
   -0.7471    3.5555    1.9167 C   0  0  0  0  0  0  0  0  0  0  0  0
   -1.9263    3.4035    1.6230 O   0  0  0  0  0  0  0  0  0  0  0  0
    0.7620    4.2639    0.0298 C   0  0  0  0  0  0  0  0  0  0  0  0
   -1.0509    1.8000    0.0146 H   0  0  0  0  0  0  0  0  0  0  0  0
    1.2268    2.8148    1.5571 H   0  0  0  0  0  0  0  0  0  0  0  0
   -0.0858    4.5639   -0.5944 H   0  0  0  0  0  0  0  0  0  0  0  0
    1.0840    5.1266    0.6204 H   0  0  0  0  0  0  0  0  0  0  0  0
    1.5876    3.9654   -0.6240 H   0  0  0  0  0  0  0  0  0  0  0  0
   -0.4207    4.1628    3.1165 N   0  0  0  0  0  0  0  0  0  0  0  0
   -1.4160    4.5710    4.0996 C   0  0  0  0  0  0  0  0  0  0  0  0
    0.5640    4.2196    3.3582 H   0  0  0  0  0  0  0  0  0  0  0  0
   -2.1192    5.2854    3.6584 H   0  0  0  0  0  0  0  0  0  0  0  0
   -1.9762    3.7020    4.4606 H   0  0  0  0  0  0  0  0  0  0  0  0
   -0.9288    5.0497    4.9543 H   0  0  0  0  0  0  0  0  0  0  0  0
  1  2  2  0  0  0  0
  1  3  1  0  0  0  0
  1  7  1  0  0  0  0
  3  4  1  0  0  0  0
  3  5  1  0  0  0  0
  3  6  1  0  0  0  0
  7  8  1  0  0  0  0
  7 12  1  0  0  0  0
  8  9  1  0  0  0  0
  8 11  1  0  0  0  0
  8 13  1  0  0  0  0
  9 10  2  0  0  0  0
  9 17  1  0  0  0  0
 11 14  1  0  0  0  0
 11 15  1  0  0  0  0
 11 16  1  0  0  0  0
 17 18  1  0  0  0  0
 17 26  1  0  0  0  0
 18 19  1  0  0  0  0
 18 21  1  0  0  0  0
 18 27  1  0  0  0  0
 19 20  2  0  0  0  0
 19 32  1  0  0  0  0
 21 22  1  0  0  0  0
 21 28  1  0  0  0  0
 21 29  1  0  0  0  0
 22 23  1  0  0  0  0
 22 30  1  0  0  0  0
 22 31  1  0  0  0  0
 23 24  1  0  0  0  0
 23 25  2  0  0  0  0
 32 33  1  0  0  0  0
 32 37  1  0  0  0  0
 33 34  1  0  0  0  0
 33 36  1  0  0  0  0
 33 38  1  0  0  0  0
 34 35  2  0  0  0  0
 34 42  1  0  0  0  0
 36 39  1  0  0  0  0
 36 40  1  0  0  0  0
 36 41  1  0  0  0  0
 42 43  1  0  0  0  0
 42 44  1  0  0  0  0
 43 45  1  0  0  0  0
 43 46  1  0  0  0  0
 43 47  1  0  0  0  0
M  CHG  1  24  -1
M  END
$$$$

  -OEChem-05262216243D

 47 46  0     1  0  0  0  0  0999 V2000
   -0.3989   -1.8701    2.2716 C   0  0  0  0  0  0  0  0  0  0  0  0
    0.6656   -1.3717    2.6164 O   0  0  0  0  0  0  0  0  0  0  0  0
   -1.7084   -1.3312    2.8175 C   0  0  0  0  0  0  0  0  0  0  0  0
   -2.0761   -1.9855    3.6111 H   0  0  0  0  0  0  0  0  0  0  0  0
   -1.5658   -0.3249    3.2201 H   0  0  0  0  0  0  0  0  0  0  0  0
   -2.4602   -1.2860    2.0247 H   0  0  0  0  0  0  0  0  0  0  0  0
   -0.3957   -2.8693    1.3220 N   0  0  0  0  0  0  0  0  0  0  0  0
    0.8338   -3.3731    0.6795 C   0  0  2  0  0  0  0  0  0  0  0  0
    1.3174   -2.4591   -0.4752 C   0  0  0  0  0  0  0  0  0  0  0  0
    1.5403   -2.8906   -1.6005 O   0  0  0  0  0  0  0  0  0  0  0  0
    0.5430   -4.8070    0.2202 C   0  0  0  0  0  0  0  0  0  0  0  0
   -1.2952   -3.0417    0.8574 H   0  0  0  0  0  0  0  0  0  0  0  0
    1.6428   -3.4164    1.4154 H   0  0  0  0  0  0  0  0  0  0  0  0
   -0.2536   -4.8161   -0.5311 H   0  0  0  0  0  0  0  0  0  0  0  0
    1.4398   -5.2540   -0.2198 H   0  0  0  0  0  0  0  0  0  0  0  0
    0.2294   -5.4226    1.0686 H   0  0  0  0  0  0  0  0  0  0  0  0
    1.4601   -1.1031   -0.2765 N   0  0  0  0  0  0  0  0  0  0  0  0
    0.6456   -0.0882   -0.9850 C   0  0  2  0  0  0  0  0  0  0  0  0
    0.8245    1.2692   -0.2424 C   0  0  0  0  0  0  0  0  0  0  0  0
    1.9247    1.5837    0.1998 O   0  0  0  0  0  0  0  0  0  0  0  0
   -0.8777   -0.4168   -0.9494 C   0  0  0  0  0  0  0  0  0  0  0  0
   -1.4115   -1.6469   -1.7039 C   0  0  0  0  0  0  0  0  0  0  0  0
   -2.9094   -1.7210   -1.4559 C   0  0  0  0  0  0  0  0  0  0  0  0
   -3.2375   -2.3279   -0.4013 O   0  5  0  0  0  0  0  0  0  0  0  0
   -3.6854   -1.0506   -2.1770 O   0  0  0  0  0  0  0  0  0  0  0  0
    1.5367   -0.8978    0.7223 H   0  0  0  0  0  0  0  0  0  0  0  0
    0.9839    0.0113   -2.0209 H   0  0  0  0  0  0  0  0  0  0  0  0
   -1.4097    0.4289   -1.3990 H   0  0  0  0  0  0  0  0  0  0  0  0
   -1.1982   -0.4833    0.0925 H   0  0  0  0  0  0  0  0  0  0  0  0
   -1.2073   -1.5510   -2.7742 H   0  0  0  0  0  0  0  0  0  0  0  0
   -0.9844   -2.5864   -1.3678 H   0  0  0  0  0  0  0  0  0  0  0  0
   -0.2299    2.1172    0.0646 N   0  0  0  0  0  0  0  0  0  0  0  0
   -0.1205    3.3268    0.8970 C   0  0  2  0  0  0  0  0  0  0  0  0
   -0.0593    3.0083    2.4134 C   0  0  0  0  0  0  0  0  0  0  0  0
   -0.8113    3.5474    3.2189 O   0  0  0  0  0  0  0  0  0  0  0  0
   -1.3020    4.2316    0.5259 C   0  0  0  0  0  0  0  0  0  0  0  0
   -1.1613    1.7961   -0.1900 H   0  0  0  0  0  0  0  0  0  0  0  0
    0.8019    3.8601    0.6437 H   0  0  0  0  0  0  0  0  0  0  0  0
   -2.2513    3.7486    0.7798 H   0  0  0  0  0  0  0  0  0  0  0  0
   -1.2390    5.1800    1.0684 H   0  0  0  0  0  0  0  0  0  0  0  0
   -1.2951    4.4474   -0.5469 H   0  0  0  0  0  0  0  0  0  0  0  0
    0.8706    2.0977    2.8734 N   0  0  0  0  0  0  0  0  0  0  0  0
    0.9530    1.6264    4.2474 C   0  0  0  0  0  0  0  0  0  0  0  0
    1.4631    1.6615    2.1625 H   0  0  0  0  0  0  0  0  0  0  0  0
    0.0005    1.1868    4.5596 H   0  0  0  0  0  0  0  0  0  0  0  0
    1.7303    0.8609    4.3338 H   0  0  0  0  0  0  0  0  0  0  0  0
    1.2012    2.4525    4.9210 H   0  0  0  0  0  0  0  0  0  0  0  0
  1  2  2  0  0  0  0
  1  3  1  0  0  0  0
  1  7  1  0  0  0  0
  3  4  1  0  0  0  0
  3  5  1  0  0  0  0
  3  6  1  0  0  0  0
  7  8  1  0  0  0  0
  7 12  1  0  0  0  0
  8  9  1  0  0  0  0
  8 11  1  0  0  0  0
  8 13  1  0  0  0  0
  9 10  2  0  0  0  0
  9 17  1  0  0  0  0
 11 14  1  0  0  0  0
 11 15  1  0  0  0  0
 11 16  1  0  0  0  0
 17 18  1  0  0  0  0
 17 26  1  0  0  0  0
 18 19  1  0  0  0  0
 18 21  1  0  0  0  0
 18 27  1  0  0  0  0
 19 20  2  0  0  0  0
 19 32  1  0  0  0  0
 21 22  1  0  0  0  0
 21 28  1  0  0  0  0
 21 29  1  0  0  0  0
 22 23  1  0  0  0  0
 22 30  1  0  0  0  0
 22 31  1  0  0  0  0
 23 24  1  0  0  0  0
 23 25  2  0  0  0  0
 32 33  1  0  0  0  0
 32 37  1  0  0  0  0
 33 34  1  0  0  0  0
 33 36  1  0  0  0  0
 33 38  1  0  0  0  0
 34 35  2  0  0  0  0
 34 42  1  0  0  0  0
 36 39  1  0  0  0  0
 36 40  1  0  0  0  0
 36 41  1  0  0  0  0
 42 43  1  0  0  0  0
 42 44  1  0  0  0  0
 43 45  1  0  0  0  0
 43 46  1  0  0  0  0
 43 47  1  0  0  0  0
M  CHG  1  24  -1
M  END
$$$$

  -OEChem-05262216243D

 47 46  0     1  0  0  0  0  0999 V2000
   -0.2279   -1.9946    2.3182 C   0  0  0  0  0  0  0  0  0  0  0  0
    0.8016   -1.4261    2.6600 O   0  0  0  0  0  0  0  0  0  0  0  0
   -1.5616   -1.5876    2.9176 C   0  0  0  0  0  0  0  0  0  0  0  0
   -1.8877   -2.3391    3.6403 H   0  0  0  0  0  0  0  0  0  0  0  0
   -1.4705   -0.6219    3.4231 H   0  0  0  0  0  0  0  0  0  0  0  0
   -2.3200   -1.5033    2.1343 H   0  0  0  0  0  0  0  0  0  0  0  0
   -0.1650   -2.9411    1.3176 N   0  0  0  0  0  0  0  0  0  0  0  0
    1.0887   -3.3078    0.6294 C   0  0  2  0  0  0  0  0  0  0  0  0
    1.4801   -2.2911   -0.4736 C   0  0  0  0  0  0  0  0  0  0  0  0
    1.7482   -2.6397   -1.6174 O   0  0  0  0  0  0  0  0  0  0  0  0
    0.9049   -4.7319    0.0907 C   0  0  0  0  0  0  0  0  0  0  0  0
   -1.0569   -3.1666    0.8612 H   0  0  0  0  0  0  0  0  0  0  0  0
    1.9110   -3.3295    1.3515 H   0  0  0  0  0  0  0  0  0  0  0  0
    0.0987   -4.7626   -0.6495 H   0  0  0  0  0  0  0  0  0  0  0  0
    1.8263   -5.0806   -0.3857 H   0  0  0  0  0  0  0  0  0  0  0  0
    0.6558   -5.4176    0.9061 H   0  0  0  0  0  0  0  0  0  0  0  0
    1.4851   -0.9400   -0.2014 N   0  0  0  0  0  0  0  0  0  0  0  0
    0.5696    0.0213   -0.8596 C   0  0  2  0  0  0  0  0  0  0  0  0
    0.6038    1.3507   -0.0517 C   0  0  0  0  0  0  0  0  0  0  0  0
    1.6818    1.8752    0.2065 O   0  0  0  0  0  0  0  0  0  0  0  0
   -0.9096   -0.4681   -0.8511 C   0  0  0  0  0  0  0  0  0  0  0  0
   -1.3173   -1.7037   -1.6726 C   0  0  0  0  0  0  0  0  0  0  0  0
   -2.7993   -1.9395   -1.4293 C   0  0  0  0  0  0  0  0  0  0  0  0
   -3.6442   -1.3995   -2.1807 O   0  5  0  0  0  0  0  0  0  0  0  0
   -3.0615   -2.5437   -0.3545 O   0  0  0  0  0  0  0  0  0  0  0  0
    1.5334   -0.7901    0.8091 H   0  0  0  0  0  0  0  0  0  0  0  0
    0.8947    0.2087   -1.8877 H   0  0  0  0  0  0  0  0  0  0  0  0
   -1.5279    0.3482   -1.2423 H   0  0  0  0  0  0  0  0  0  0  0  0
   -1.2125   -0.6382    0.1838 H   0  0  0  0  0  0  0  0  0  0  0  0
   -1.1283   -1.5265   -2.7353 H   0  0  0  0  0  0  0  0  0  0  0  0
   -0.7971   -2.6134   -1.3898 H   0  0  0  0  0  0  0  0  0  0  0  0
   -0.5171    1.9084    0.5471 N   0  0  0  0  0  0  0  0  0  0  0  0
   -0.4959    3.0568    1.4673 C   0  0  2  0  0  0  0  0  0  0  0  0
   -0.0712    2.6536    2.9019 C   0  0  0  0  0  0  0  0  0  0  0  0
   -0.7810    2.8818    3.8765 O   0  0  0  0  0  0  0  0  0  0  0  0
   -1.8851    3.7039    1.4145 C   0  0  0  0  0  0  0  0  0  0  0  0
   -1.3955    1.4091    0.4258 H   0  0  0  0  0  0  0  0  0  0  0  0
    0.2297    3.7960    1.1123 H   0  0  0  0  0  0  0  0  0  0  0  0
   -2.6488    3.0061    1.7729 H   0  0  0  0  0  0  0  0  0  0  0  0
   -1.9110    4.5995    2.0433 H   0  0  0  0  0  0  0  0  0  0  0  0
   -2.1305    3.9957    0.3888 H   0  0  0  0  0  0  0  0  0  0  0  0
    1.1343    2.0063    3.0839 N   0  0  0  0  0  0  0  0  0  0  0  0
    1.5401    1.3840    4.3351 C   0  0  0  0  0  0  0  0  0  0  0  0
    1.6471    1.7774    2.2287 H   0  0  0  0  0  0  0  0  0  0  0  0
    1.6556    2.1389    5.1191 H   0  0  0  0  0  0  0  0  0  0  0  0
    0.7948    0.6491    4.6560 H   0  0  0  0  0  0  0  0  0  0  0  0
    2.4966    0.8694    4.2035 H   0  0  0  0  0  0  0  0  0  0  0  0
  1  2  2  0  0  0  0
  1  3  1  0  0  0  0
  1  7  1  0  0  0  0
  3  4  1  0  0  0  0
  3  5  1  0  0  0  0
  3  6  1  0  0  0  0
  7  8  1  0  0  0  0
  7 12  1  0  0  0  0
  8  9  1  0  0  0  0
  8 11  1  0  0  0  0
  8 13  1  0  0  0  0
  9 10  2  0  0  0  0
  9 17  1  0  0  0  0
 11 14  1  0  0  0  0
 11 15  1  0  0  0  0
 11 16  1  0  0  0  0
 17 18  1  0  0  0  0
 17 26  1  0  0  0  0
 18 19  1  0  0  0  0
 18 21  1  0  0  0  0
 18 27  1  0  0  0  0
 19 20  2  0  0  0  0
 19 32  1  0  0  0  0
 21 22  1  0  0  0  0
 21 28  1  0  0  0  0
 21 29  1  0  0  0  0
 22 23  1  0  0  0  0
 22 30  1  0  0  0  0
 22 31  1  0  0  0  0
 23 24  1  0  0  0  0
 23 25  2  0  0  0  0
 32 33  1  0  0  0  0
 32 37  1  0  0  0  0
 33 34  1  0  0  0  0
 33 36  1  0  0  0  0
 33 38  1  0  0  0  0
 34 35  2  0  0  0  0
 34 42  1  0  0  0  0
 36 39  1  0  0  0  0
 36 40  1  0  0  0  0
 36 41  1  0  0  0  0
 42 43  1  0  0  0  0
 42 44  1  0  0  0  0
 43 45  1  0  0  0  0
 43 46  1  0  0  0  0
 43 47  1  0  0  0  0
M  CHG  1  24  -1
M  END
$$$$

  -OEChem-05262216243D

 47 46  0     1  0  0  0  0  0999 V2000
   -0.1061   -2.2063    2.2772 C   0  0  0  0  0  0  0  0  0  0  0  0
    0.8686   -1.5614    2.6425 O   0  0  0  0  0  0  0  0  0  0  0  0
   -1.4574   -1.9846    2.9310 C   0  0  0  0  0  0  0  0  0  0  0  0
   -1.6866   -2.8185    3.5985 H   0  0  0  0  0  0  0  0  0  0  0  0
   -1.4498   -1.0570    3.5107 H   0  0  0  0  0  0  0  0  0  0  0  0
   -2.2411   -1.9191    2.1708 H   0  0  0  0  0  0  0  0  0  0  0  0
    0.0249   -3.0591    1.2020 N   0  0  0  0  0  0  0  0  0  0  0  0
    1.2948   -3.2569    0.4759 C   0  0  2  0  0  0  0  0  0  0  0  0
    1.5881   -2.1179   -0.5340 C   0  0  0  0  0  0  0  0  0  0  0  0
    1.8781   -2.3405   -1.7035 O   0  0  0  0  0  0  0  0  0  0  0  0
    1.2211   -4.6375   -0.1878 C   0  0  0  0  0  0  0  0  0  0  0  0
   -0.8503   -3.3293    0.7384 H   0  0  0  0  0  0  0  0  0  0  0  0
    2.1256   -3.2737    1.1886 H   0  0  0  0  0  0  0  0  0  0  0  0
    0.4116   -4.6673   -0.9243 H   0  0  0  0  0  0  0  0  0  0  0  0
    2.1624   -4.8653   -0.6977 H   0  0  0  0  0  0  0  0  0  0  0  0
    1.0378   -5.4116    0.5634 H   0  0  0  0  0  0  0  0  0  0  0  0
    1.4870   -0.8007   -0.1409 N   0  0  0  0  0  0  0  0  0  0  0  0
    0.4913    0.1361   -0.7106 C   0  0  2  0  0  0  0  0  0  0  0  0
    0.4215    1.3857    0.2088 C   0  0  0  0  0  0  0  0  0  0  0  0
    1.4019    2.1137    0.3168 O   0  0  0  0  0  0  0  0  0  0  0  0
   -0.9450   -0.4687   -0.7459 C   0  0  0  0  0  0  0  0  0  0  0  0
   -1.2581   -1.6546   -1.6754 C   0  0  0  0  0  0  0  0  0  0  0  0
   -2.7149   -2.0339   -1.4587 C   0  0  0  0  0  0  0  0  0  0  0  0
   -3.6027   -1.5469   -2.1966 O   0  5  0  0  0  0  0  0  0  0  0  0
   -2.9254   -2.7162   -0.4192 O   0  0  0  0  0  0  0  0  0  0  0  0
    1.5215   -0.7454    0.8801 H   0  0  0  0  0  0  0  0  0  0  0  0
    0.7934    0.4400   -1.7178 H   0  0  0  0  0  0  0  0  0  0  0  0
   -1.6311    0.3328   -1.0450 H   0  0  0  0  0  0  0  0  0  0  0  0
   -1.2212   -0.7696    0.2661 H   0  0  0  0  0  0  0  0  0  0  0  0
   -1.0897   -1.3684   -2.7176 H   0  0  0  0  0  0  0  0  0  0  0  0
   -0.6640   -2.5401   -1.4736 H   0  0  0  0  0  0  0  0  0  0  0  0
   -0.6321    1.6206    1.0798 N   0  0  0  0  0  0  0  0  0  0  0  0
   -0.6593    2.6733    2.1060 C   0  0  2  0  0  0  0  0  0  0  0  0
    0.1258    2.2696    3.3786 C   0  0  0  0  0  0  0  0  0  0  0  0
   -0.3981    2.2650    4.4882 O   0  0  0  0  0  0  0  0  0  0  0  0
   -2.1336    2.9896    2.3849 C   0  0  0  0  0  0  0  0  0  0  0  0
   -1.3990    0.9529    1.0594 H   0  0  0  0  0  0  0  0  0  0  0  0
   -0.1913    3.5812    1.7113 H   0  0  0  0  0  0  0  0  0  0  0  0
   -2.6446    2.1128    2.7957 H   0  0  0  0  0  0  0  0  0  0  0  0
   -2.2160    3.8091    3.1055 H   0  0  0  0  0  0  0  0  0  0  0  0
   -2.6401    3.2896    1.4624 H   0  0  0  0  0  0  0  0  0  0  0  0
    1.4472    1.8899    3.2531 N   0  0  0  0  0  0  0  0  0  0  0  0
    2.2060    1.2519    4.3181 C   0  0  0  0  0  0  0  0  0  0  0  0
    1.8040    1.8462    2.2954 H   0  0  0  0  0  0  0  0  0  0  0  0
    2.2931    1.9206    5.1804 H   0  0  0  0  0  0  0  0  0  0  0  0
    1.7151    0.3257    4.6348 H   0  0  0  0  0  0  0  0  0  0  0  0
    3.2124    1.0067    3.9662 H   0  0  0  0  0  0  0  0  0  0  0  0
  1  2  2  0  0  0  0
  1  3  1  0  0  0  0
  1  7  1  0  0  0  0
  3  4  1  0  0  0  0
  3  5  1  0  0  0  0
  3  6  1  0  0  0  0
  7  8  1  0  0  0  0
  7 12  1  0  0  0  0
  8  9  1  0  0  0  0
  8 11  1  0  0  0  0
  8 13  1  0  0  0  0
  9 10  2  0  0  0  0
  9 17  1  0  0  0  0
 11 14  1  0  0  0  0
 11 15  1  0  0  0  0
 11 16  1  0  0  0  0
 17 18  1  0  0  0  0
 17 26  1  0  0  0  0
 18 19  1  0  0  0  0
 18 21  1  0  0  0  0
 18 27  1  0  0  0  0
 19 20  2  0  0  0  0
 19 32  1  0  0  0  0
 21 22  1  0  0  0  0
 21 28  1  0  0  0  0
 21 29  1  0  0  0  0
 22 23  1  0  0  0  0
 22 30  1  0  0  0  0
 22 31  1  0  0  0  0
 23 24  1  0  0  0  0
 23 25  2  0  0  0  0
 32 33  1  0  0  0  0
 32 37  1  0  0  0  0
 33 34  1  0  0  0  0
 33 36  1  0  0  0  0
 33 38  1  0  0  0  0
 34 35  2  0  0  0  0
 34 42  1  0  0  0  0
 36 39  1  0  0  0  0
 36 40  1  0  0  0  0
 36 41  1  0  0  0  0
 42 43  1  0  0  0  0
 42 44  1  0  0  0  0
 43 45  1  0  0  0  0
 43 46  1  0  0  0  0
 43 47  1  0  0  0  0
M  CHG  1  24  -1
M  END
$$$$

  -OEChem-05262216243D

 47 46  0     1  0  0  0  0  0999 V2000
   -0.2815   -2.7197    2.0763 C   0  0  0  0  0  0  0  0  0  0  0  0
    0.6247   -2.0504    2.5571 O   0  0  0  0  0  0  0  0  0  0  0  0
   -1.6637   -2.6980    2.7022 C   0  0  0  0  0  0  0  0  0  0  0  0
   -1.9692   -3.7147    2.9606 H   0  0  0  0  0  0  0  0  0  0  0  0
   -1.6614   -2.0882    3.6097 H   0  0  0  0  0  0  0  0  0  0  0  0
   -2.3917   -2.2836    1.9998 H   0  0  0  0  0  0  0  0  0  0  0  0
   -0.0560   -3.4094    0.9057 N   0  0  0  0  0  0  0  0  0  0  0  0
    1.2533   -3.4632    0.2273 C   0  0  2  0  0  0  0  0  0  0  0  0
    1.5530   -2.1959   -0.6141 C   0  0  0  0  0  0  0  0  0  0  0  0
    1.8386   -2.2572   -1.8039 O   0  0  0  0  0  0  0  0  0  0  0  0
    1.2643   -4.7465   -0.6126 C   0  0  0  0  0  0  0  0  0  0  0  0
   -0.8966   -3.6504    0.3687 H   0  0  0  0  0  0  0  0  0  0  0  0
    2.0489   -3.5465    0.9746 H   0  0  0  0  0  0  0  0  0  0  0  0
    0.4918   -4.7050   -1.3878 H   0  0  0  0  0  0  0  0  0  0  0  0
    2.2366   -4.8742   -1.0985 H   0  0  0  0  0  0  0  0  0  0  0  0
    1.0767   -5.6184    0.0210 H   0  0  0  0  0  0  0  0  0  0  0  0
    1.4976   -0.9431   -0.0417 N   0  0  0  0  0  0  0  0  0  0  0  0
    0.5080    0.0755   -0.4620 C   0  0  2  0  0  0  0  0  0  0  0  0
    0.4809    1.1947    0.6080 C   0  0  0  0  0  0  0  0  0  0  0  0
    1.2704    2.1292    0.5329 O   0  0  0  0  0  0  0  0  0  0  0  0
   -0.9462   -0.4741   -0.5622 C   0  0  0  0  0  0  0  0  0  0  0  0
   -1.2883   -1.5095   -1.6498 C   0  0  0  0  0  0  0  0  0  0  0  0
   -2.7521   -1.8904   -1.4925 C   0  0  0  0  0  0  0  0  0  0  0  0
   -3.6331   -1.2600   -2.1220 O   0  5  0  0  0  0  0  0  0  0  0  0
   -2.9721   -2.7573   -0.6034 O   0  0  0  0  0  0  0  0  0  0  0  0
    1.5224   -1.0409    0.9761 H   0  0  0  0  0  0  0  0  0  0  0  0
    0.8040    0.5031   -1.4256 H   0  0  0  0  0  0  0  0  0  0  0  0
   -1.6086    0.3825   -0.7349 H   0  0  0  0  0  0  0  0  0  0  0  0
   -1.2318   -0.9045    0.3973 H   0  0  0  0  0  0  0  0  0  0  0  0
   -1.1139   -1.0800   -2.6405 H   0  0  0  0  0  0  0  0  0  0  0  0
   -0.7106   -2.4262   -1.5809 H   0  0  0  0  0  0  0  0  0  0  0  0
   -0.3670    1.1586    1.7030 N   0  0  0  0  0  0  0  0  0  0  0  0
   -0.4627    2.2054    2.7321 C   0  0  2  0  0  0  0  0  0  0  0  0
    0.6843    2.1510    3.7736 C   0  0  0  0  0  0  0  0  0  0  0  0
    0.4653    2.1853    4.9806 O   0  0  0  0  0  0  0  0  0  0  0  0
   -1.8510    2.0710    3.3694 C   0  0  0  0  0  0  0  0  0  0  0  0
   -0.9334    0.3219    1.8144 H   0  0  0  0  0  0  0  0  0  0  0  0
   -0.4090    3.1872    2.2503 H   0  0  0  0  0  0  0  0  0  0  0  0
   -1.9445    1.1099    3.8854 H   0  0  0  0  0  0  0  0  0  0  0  0
   -2.0157    2.8730    4.0959 H   0  0  0  0  0  0  0  0  0  0  0  0
   -2.6302    2.1356    2.6034 H   0  0  0  0  0  0  0  0  0  0  0  0
    1.9931    2.1220    3.3344 N   0  0  0  0  0  0  0  0  0  0  0  0
    3.1539    2.0762    4.2098 C   0  0  0  0  0  0  0  0  0  0  0  0
    2.1249    2.1296    2.3190 H   0  0  0  0  0  0  0  0  0  0  0  0
    3.1624    2.9420    4.8798 H   0  0  0  0  0  0  0  0  0  0  0  0
    3.1421    1.1618    4.8115 H   0  0  0  0  0  0  0  0  0  0  0  0
    4.0725    2.0891    3.6157 H   0  0  0  0  0  0  0  0  0  0  0  0
  1  2  2  0  0  0  0
  1  3  1  0  0  0  0
  1  7  1  0  0  0  0
  3  4  1  0  0  0  0
  3  5  1  0  0  0  0
  3  6  1  0  0  0  0
  7  8  1  0  0  0  0
  7 12  1  0  0  0  0
  8  9  1  0  0  0  0
  8 11  1  0  0  0  0
  8 13  1  0  0  0  0
  9 10  2  0  0  0  0
  9 17  1  0  0  0  0
 11 14  1  0  0  0  0
 11 15  1  0  0  0  0
 11 16  1  0  0  0  0
 17 18  1  0  0  0  0
 17 26  1  0  0  0  0
 18 19  1  0  0  0  0
 18 21  1  0  0  0  0
 18 27  1  0  0  0  0
 19 20  2  0  0  0  0
 19 32  1  0  0  0  0
 21 22  1  0  0  0  0
 21 28  1  0  0  0  0
 21 29  1  0  0  0  0
 22 23  1  0  0  0  0
 22 30  1  0  0  0  0
 22 31  1  0  0  0  0
 23 24  1  0  0  0  0
 23 25  2  0  0  0  0
 32 33  1  0  0  0  0
 32 37  1  0  0  0  0
 33 34  1  0  0  0  0
 33 36  1  0  0  0  0
 33 38  1  0  0  0  0
 34 35  2  0  0  0  0
 34 42  1  0  0  0  0
 36 39  1  0  0  0  0
 36 40  1  0  0  0  0
 36 41  1  0  0  0  0
 42 43  1  0  0  0  0
 42 44  1  0  0  0  0
 43 45  1  0  0  0  0
 43 46  1  0  0  0  0
 43 47  1  0  0  0  0
M  CHG  1  24  -1
M  END
$$$$

  -OEChem-05262216243D

 47 46  0     1  0  0  0  0  0999 V2000
   -0.7060   -2.8381    1.9512 C   0  0  0  0  0  0  0  0  0  0  0  0
   -0.2047   -1.8795    2.5255 O   0  0  0  0  0  0  0  0  0  0  0  0
   -2.1274   -3.2424    2.2920 C   0  0  0  0  0  0  0  0  0  0  0  0
   -2.3759   -4.1956    1.8176 H   0  0  0  0  0  0  0  0  0  0  0  0
   -2.2395   -3.3473    3.3735 H   0  0  0  0  0  0  0  0  0  0  0  0
   -2.8275   -2.4849    1.9298 H   0  0  0  0  0  0  0  0  0  0  0  0
    0.0036   -3.5157    0.9807 N   0  0  0  0  0  0  0  0  0  0  0  0
    1.3792   -3.1749    0.5700 C   0  0  2  0  0  0  0  0  0  0  0  0
    1.4139   -2.0601   -0.5018 C   0  0  0  0  0  0  0  0  0  0  0  0
    1.5859   -2.3001   -1.6914 O   0  0  0  0  0  0  0  0  0  0  0  0
    2.0470   -4.4680    0.0901 C   0  0  0  0  0  0  0  0  0  0  0  0
   -0.5760   -4.0408    0.3236 H   0  0  0  0  0  0  0  0  0  0  0  0
    1.9424   -2.8095    1.4354 H   0  0  0  0  0  0  0  0  0  0  0  0
    1.5058   -4.8855   -0.7651 H   0  0  0  0  0  0  0  0  0  0  0  0
    3.0788   -4.2700   -0.2159 H   0  0  0  0  0  0  0  0  0  0  0  0
    2.0582   -5.2103    0.8935 H   0  0  0  0  0  0  0  0  0  0  0  0
    1.2105   -0.7582   -0.1097 N   0  0  0  0  0  0  0  0  0  0  0  0
    0.0978    0.0850   -0.5941 C   0  0  2  0  0  0  0  0  0  0  0  0
    0.0742    1.2699    0.3879 C   0  0  0  0  0  0  0  0  0  0  0  0
    0.6090    2.3395    0.1133 O   0  0  0  0  0  0  0  0  0  0  0  0
   -1.3194   -0.5564   -0.6103 C   0  0  0  0  0  0  0  0  0  0  0  0
   -1.5600   -1.7109   -1.6001 C   0  0  0  0  0  0  0  0  0  0  0  0
   -2.9853   -2.2307   -1.4559 C   0  0  0  0  0  0  0  0  0  0  0  0
   -3.9211   -1.5961   -1.9989 O   0  5  0  0  0  0  0  0  0  0  0  0
   -3.1324   -3.2316   -0.7062 O   0  0  0  0  0  0  0  0  0  0  0  0
    1.3878   -0.6374    0.8930 H   0  0  0  0  0  0  0  0  0  0  0  0
    0.3310    0.4518   -1.5987 H   0  0  0  0  0  0  0  0  0  0  0  0
   -2.0370    0.2342   -0.8581 H   0  0  0  0  0  0  0  0  0  0  0  0
   -1.5772   -0.9085    0.3883 H   0  0  0  0  0  0  0  0  0  0  0  0
   -1.3949   -1.3617   -2.6235 H   0  0  0  0  0  0  0  0  0  0  0  0
   -0.8924   -2.5501   -1.4250 H   0  0  0  0  0  0  0  0  0  0  0  0
   -0.4309    1.0726    1.6622 N   0  0  0  0  0  0  0  0  0  0  0  0
    0.1580    1.8117    2.7822 C   0  0  2  0  0  0  0  0  0  0  0  0
    1.6349    1.4166    3.0419 C   0  0  0  0  0  0  0  0  0  0  0  0
    2.1050    0.3645    2.6140 O   0  0  0  0  0  0  0  0  0  0  0  0
   -0.6936    1.5223    4.0195 C   0  0  0  0  0  0  0  0  0  0  0  0
   -0.6413    0.0907    1.8605 H   0  0  0  0  0  0  0  0  0  0  0  0
    0.1199    2.8852    2.5703 H   0  0  0  0  0  0  0  0  0  0  0  0
   -0.6685    0.4536    4.2584 H   0  0  0  0  0  0  0  0  0  0  0  0
   -0.3192    2.0811    4.8821 H   0  0  0  0  0  0  0  0  0  0  0  0
   -1.7331    1.8147    3.8411 H   0  0  0  0  0  0  0  0  0  0  0  0
    2.4526    2.2638    3.7691 N   0  0  0  0  0  0  0  0  0  0  0  0
    3.8729    2.0127    3.9766 C   0  0  0  0  0  0  0  0  0  0  0  0
    2.0757    3.1762    4.0055 H   0  0  0  0  0  0  0  0  0  0  0  0
    4.0221    1.0517    4.4802 H   0  0  0  0  0  0  0  0  0  0  0  0
    4.4023    1.9955    3.0182 H   0  0  0  0  0  0  0  0  0  0  0  0
    4.3080    2.7993    4.5999 H   0  0  0  0  0  0  0  0  0  0  0  0
  1  2  2  0  0  0  0
  1  3  1  0  0  0  0
  1  7  1  0  0  0  0
  3  4  1  0  0  0  0
  3  5  1  0  0  0  0
  3  6  1  0  0  0  0
  7  8  1  0  0  0  0
  7 12  1  0  0  0  0
  8  9  1  0  0  0  0
  8 11  1  0  0  0  0
  8 13  1  0  0  0  0
  9 10  2  0  0  0  0
  9 17  1  0  0  0  0
 11 14  1  0  0  0  0
 11 15  1  0  0  0  0
 11 16  1  0  0  0  0
 17 18  1  0  0  0  0
 17 26  1  0  0  0  0
 18 19  1  0  0  0  0
 18 21  1  0  0  0  0
 18 27  1  0  0  0  0
 19 20  2  0  0  0  0
 19 32  1  0  0  0  0
 21 22  1  0  0  0  0
 21 28  1  0  0  0  0
 21 29  1  0  0  0  0
 22 23  1  0  0  0  0
 22 30  1  0  0  0  0
 22 31  1  0  0  0  0
 23 24  1  0  0  0  0
 23 25  2  0  0  0  0
 32 33  1  0  0  0  0
 32 37  1  0  0  0  0
 33 34  1  0  0  0  0
 33 36  1  0  0  0  0
 33 38  1  0  0  0  0
 34 35  2  0  0  0  0
 34 42  1  0  0  0  0
 36 39  1  0  0  0  0
 36 40  1  0  0  0  0
 36 41  1  0  0  0  0
 42 43  1  0  0  0  0
 42 44  1  0  0  0  0
 43 45  1  0  0  0  0
 43 46  1  0  0  0  0
 43 47  1  0  0  0  0
M  CHG  1  24  -1
M  END
$$$$

  -OEChem-05262216243D

 47 46  0     1  0  0  0  0  0999 V2000
   -0.5898   -2.9540    2.0752 C   0  0  0  0  0  0  0  0  0  0  0  0
    0.0073   -2.0371    2.6266 O   0  0  0  0  0  0  0  0  0  0  0  0
   -2.0188   -3.2641    2.4798 C   0  0  0  0  0  0  0  0  0  0  0  0
   -2.3010   -4.2643    2.1405 H   0  0  0  0  0  0  0  0  0  0  0  0
   -2.1214   -3.2191    3.5664 H   0  0  0  0  0  0  0  0  0  0  0  0
   -2.7013   -2.5413    2.0255 H   0  0  0  0  0  0  0  0  0  0  0  0
    0.0200   -3.6598    1.0592 N   0  0  0  0  0  0  0  0  0  0  0  0
    1.3889   -3.3948    0.5761 C   0  0  2  0  0  0  0  0  0  0  0  0
    1.4302   -2.2569   -0.4712 C   0  0  0  0  0  0  0  0  0  0  0  0
    1.5794   -2.4743   -1.6680 O   0  0  0  0  0  0  0  0  0  0  0  0
    1.9419   -4.7159    0.0312 C   0  0  0  0  0  0  0  0  0  0  0  0
   -0.6280   -4.1367    0.4282 H   0  0  0  0  0  0  0  0  0  0  0  0
    2.0242   -3.0874    1.4135 H   0  0  0  0  0  0  0  0  0  0  0  0
    1.3292   -5.0739   -0.8026 H   0  0  0  0  0  0  0  0  0  0  0  0
    2.9670   -4.5785   -0.3258 H   0  0  0  0  0  0  0  0  0  0  0  0
    1.9452   -5.4786    0.8153 H   0  0  0  0  0  0  0  0  0  0  0  0
    1.2490   -0.9582   -0.0559 N   0  0  0  0  0  0  0  0  0  0  0  0
    0.1563   -0.0811   -0.5322 C   0  0  2  0  0  0  0  0  0  0  0  0
    0.1236    1.1004    0.4549 C   0  0  0  0  0  0  0  0  0  0  0  0
    0.5013    2.2182    0.1198 O   0  0  0  0  0  0  0  0  0  0  0  0
   -1.2679   -0.7054   -0.5091 C   0  0  0  0  0  0  0  0  0  0  0  0
   -1.5529   -1.8694   -1.4763 C   0  0  0  0  0  0  0  0  0  0  0  0
   -2.9813   -2.3636   -1.2855 C   0  0  0  0  0  0  0  0  0  0  0  0
   -3.1137   -3.3692   -0.5385 O   0  5  0  0  0  0  0  0  0  0  0  0
   -3.9277   -1.6986   -1.7708 O   0  0  0  0  0  0  0  0  0  0  0  0
    1.4501   -0.8486    0.9423 H   0  0  0  0  0  0  0  0  0  0  0  0
    0.3818    0.2822   -1.5401 H   0  0  0  0  0  0  0  0  0  0  0  0
   -1.9809    0.0911   -0.7519 H   0  0  0  0  0  0  0  0  0  0  0  0
   -1.5057   -1.0361    0.5021 H   0  0  0  0  0  0  0  0  0  0  0  0
   -1.4115   -1.5373   -2.5088 H   0  0  0  0  0  0  0  0  0  0  0  0
   -0.8960   -2.7183   -1.3099 H   0  0  0  0  0  0  0  0  0  0  0  0
   -0.1100    0.8418    1.7963 N   0  0  0  0  0  0  0  0  0  0  0  0
    0.5733    1.6327    2.8218 C   0  0  2  0  0  0  0  0  0  0  0  0
    2.0863    1.3119    2.8791 C   0  0  0  0  0  0  0  0  0  0  0  0
    2.5156    0.2166    2.5242 O   0  0  0  0  0  0  0  0  0  0  0  0
   -0.0896    1.3241    4.1648 C   0  0  0  0  0  0  0  0  0  0  0  0
   -0.2249   -0.1523    2.0164 H   0  0  0  0  0  0  0  0  0  0  0  0
    0.4495    2.6991    2.6077 H   0  0  0  0  0  0  0  0  0  0  0  0
    0.0250    0.2637    4.4131 H   0  0  0  0  0  0  0  0  0  0  0  0
    0.3656    1.9197    4.9615 H   0  0  0  0  0  0  0  0  0  0  0  0
   -1.1580    1.5579    4.1225 H   0  0  0  0  0  0  0  0  0  0  0  0
    2.9757    2.2662    3.3403 N   0  0  0  0  0  0  0  0  0  0  0  0
    4.4205    2.0799    3.3141 C   0  0  0  0  0  0  0  0  0  0  0  0
    2.6068    3.2008    3.4863 H   0  0  0  0  0  0  0  0  0  0  0  0
    4.7028    1.1905    3.8872 H   0  0  0  0  0  0  0  0  0  0  0  0
    4.7729    1.9627    2.2839 H   0  0  0  0  0  0  0  0  0  0  0  0
    4.9207    2.9468    3.7559 H   0  0  0  0  0  0  0  0  0  0  0  0
  1  2  2  0  0  0  0
  1  3  1  0  0  0  0
  1  7  1  0  0  0  0
  3  4  1  0  0  0  0
  3  5  1  0  0  0  0
  3  6  1  0  0  0  0
  7  8  1  0  0  0  0
  7 12  1  0  0  0  0
  8  9  1  0  0  0  0
  8 11  1  0  0  0  0
  8 13  1  0  0  0  0
  9 10  2  0  0  0  0
  9 17  1  0  0  0  0
 11 14  1  0  0  0  0
 11 15  1  0  0  0  0
 11 16  1  0  0  0  0
 17 18  1  0  0  0  0
 17 26  1  0  0  0  0
 18 19  1  0  0  0  0
 18 21  1  0  0  0  0
 18 27  1  0  0  0  0
 19 20  2  0  0  0  0
 19 32  1  0  0  0  0
 21 22  1  0  0  0  0
 21 28  1  0  0  0  0
 21 29  1  0  0  0  0
 22 23  1  0  0  0  0
 22 30  1  0  0  0  0
 22 31  1  0  0  0  0
 23 24  1  0  0  0  0
 23 25  2  0  0  0  0
 32 33  1  0  0  0  0
 32 37  1  0  0  0  0
 33 34  1  0  0  0  0
 33 36  1  0  0  0  0
 33 38  1  0  0  0  0
 34 35  2  0  0  0  0
 34 42  1  0  0  0  0
 36 39  1  0  0  0  0
 36 40  1  0  0  0  0
 36 41  1  0  0  0  0
 42 43  1  0  0  0  0
 42 44  1  0  0  0  0
 43 45  1  0  0  0  0
 43 46  1  0  0  0  0
 43 47  1  0  0  0  0
M  CHG  1  24  -1
M  END
$$$$

  -OEChem-05262216243D

 47 46  0     1  0  0  0  0  0999 V2000
   -0.2225   -3.1841    2.0563 C   0  0  0  0  0  0  0  0  0  0  0  0
    0.7962   -2.6391    2.4705 O   0  0  0  0  0  0  0  0  0  0  0  0
   -1.5291   -3.0295    2.8116 C   0  0  0  0  0  0  0  0  0  0  0  0
   -1.9827   -4.0103    2.9733 H   0  0  0  0  0  0  0  0  0  0  0  0
   -1.3553   -2.5558    3.7812 H   0  0  0  0  0  0  0  0  0  0  0  0
   -2.2266   -2.4135    2.2379 H   0  0  0  0  0  0  0  0  0  0  0  0
   -0.1867   -3.8467    0.8490 N   0  0  0  0  0  0  0  0  0  0  0  0
    1.0366   -4.0349    0.0432 C   0  0  2  0  0  0  0  0  0  0  0  0
    1.4320   -2.7746   -0.7698 C   0  0  0  0  0  0  0  0  0  0  0  0
    1.5802   -2.7960   -1.9852 O   0  0  0  0  0  0  0  0  0  0  0  0
    0.7959   -5.2597   -0.8479 C   0  0  0  0  0  0  0  0  0  0  0  0
   -1.0964   -3.9498    0.3849 H   0  0  0  0  0  0  0  0  0  0  0  0
    1.8764   -4.2645    0.7064 H   0  0  0  0  0  0  0  0  0  0  0  0
   -0.0338   -5.0750   -1.5385 H   0  0  0  0  0  0  0  0  0  0  0  0
    1.6916   -5.4853   -1.4351 H   0  0  0  0  0  0  0  0  0  0  0  0
    0.5532   -6.1344   -0.2368 H   0  0  0  0  0  0  0  0  0  0  0  0
    1.6164   -1.5715   -0.1240 N   0  0  0  0  0  0  0  0  0  0  0  0
    0.7757   -0.3825   -0.4014 C   0  0  2  0  0  0  0  0  0  0  0  0
    0.9892    0.6574    0.7200 C   0  0  0  0  0  0  0  0  0  0  0  0
    1.1856    1.8364    0.4491 O   0  0  0  0  0  0  0  0  0  0  0  0
   -0.7487   -0.6827   -0.3338 C   0  0  0  0  0  0  0  0  0  0  0  0
   -1.3705   -1.6076   -1.3984 C   0  0  0  0  0  0  0  0  0  0  0  0
   -2.8521   -1.7710   -1.0968 C   0  0  0  0  0  0  0  0  0  0  0  0
   -3.1182   -2.6937   -0.2789 O   0  5  0  0  0  0  0  0  0  0  0  0
   -3.6822   -0.9572   -1.5649 O   0  0  0  0  0  0  0  0  0  0  0  0
    1.7177   -1.7440    0.8767 H   0  0  0  0  0  0  0  0  0  0  0  0
    1.0375    0.0499   -1.3730 H   0  0  0  0  0  0  0  0  0  0  0  0
   -1.2742    0.2765   -0.4172 H   0  0  0  0  0  0  0  0  0  0  0  0
   -0.9924   -1.0808    0.6516 H   0  0  0  0  0  0  0  0  0  0  0  0
   -1.2368   -1.1701   -2.3919 H   0  0  0  0  0  0  0  0  0  0  0  0
   -0.9393   -2.6034   -1.4181 H   0  0  0  0  0  0  0  0  0  0  0  0
    1.0029    0.2782    2.0535 N   0  0  0  0  0  0  0  0  0  0  0  0
    1.0445    1.2150    3.1859 C   0  0  2  0  0  0  0  0  0  0  0  0
    2.4671    1.7524    3.4857 C   0  0  0  0  0  0  0  0  0  0  0  0
    2.9390    1.7462    4.6185 O   0  0  0  0  0  0  0  0  0  0  0  0
    0.4189    0.4853    4.3811 C   0  0  0  0  0  0  0  0  0  0  0  0
    0.8494   -0.7112    2.2607 H   0  0  0  0  0  0  0  0  0  0  0  0
    0.4171    2.0828    2.9568 H   0  0  0  0  0  0  0  0  0  0  0  0
    1.0228   -0.3849    4.6583 H   0  0  0  0  0  0  0  0  0  0  0  0
    0.3550    1.1541    5.2452 H   0  0  0  0  0  0  0  0  0  0  0  0
   -0.5914    0.1453    4.1335 H   0  0  0  0  0  0  0  0  0  0  0  0
    3.2128    2.2968    2.4586 N   0  0  0  0  0  0  0  0  0  0  0  0
    4.5392    2.8731    2.6195 C   0  0  0  0  0  0  0  0  0  0  0  0
    2.7549    2.3273    1.5428 H   0  0  0  0  0  0  0  0  0  0  0  0
    4.5019    3.7375    3.2902 H   0  0  0  0  0  0  0  0  0  0  0  0
    5.2304    2.1323    3.0343 H   0  0  0  0  0  0  0  0  0  0  0  0
    4.9256    3.2019    1.6501 H   0  0  0  0  0  0  0  0  0  0  0  0
  1  2  2  0  0  0  0
  1  3  1  0  0  0  0
  1  7  1  0  0  0  0
  3  4  1  0  0  0  0
  3  5  1  0  0  0  0
  3  6  1  0  0  0  0
  7  8  1  0  0  0  0
  7 12  1  0  0  0  0
  8  9  1  0  0  0  0
  8 11  1  0  0  0  0
  8 13  1  0  0  0  0
  9 10  2  0  0  0  0
  9 17  1  0  0  0  0
 11 14  1  0  0  0  0
 11 15  1  0  0  0  0
 11 16  1  0  0  0  0
 17 18  1  0  0  0  0
 17 26  1  0  0  0  0
 18 19  1  0  0  0  0
 18 21  1  0  0  0  0
 18 27  1  0  0  0  0
 19 20  2  0  0  0  0
 19 32  1  0  0  0  0
 21 22  1  0  0  0  0
 21 28  1  0  0  0  0
 21 29  1  0  0  0  0
 22 23  1  0  0  0  0
 22 30  1  0  0  0  0
 22 31  1  0  0  0  0
 23 24  1  0  0  0  0
 23 25  2  0  0  0  0
 32 33  1  0  0  0  0
 32 37  1  0  0  0  0
 33 34  1  0  0  0  0
 33 36  1  0  0  0  0
 33 38  1  0  0  0  0
 34 35  2  0  0  0  0
 34 42  1  0  0  0  0
 36 39  1  0  0  0  0
 36 40  1  0  0  0  0
 36 41  1  0  0  0  0
 42 43  1  0  0  0  0
 42 44  1  0  0  0  0
 43 45  1  0  0  0  0
 43 46  1  0  0  0  0
 43 47  1  0  0  0  0
M  CHG  1  24  -1
M  END
$$$$

  -OEChem-05262216243D

 47 46  0     1  0  0  0  0  0999 V2000
   -0.1353   -3.3416    1.8551 C   0  0  0  0  0  0  0  0  0  0  0  0
    0.9581   -2.9209    2.2235 O   0  0  0  0  0  0  0  0  0  0  0  0
   -1.3556   -3.1778    2.7420 C   0  0  0  0  0  0  0  0  0  0  0  0
   -1.8811   -4.1317    2.8311 H   0  0  0  0  0  0  0  0  0  0  0  0
   -1.0599   -2.8423    3.7393 H   0  0  0  0  0  0  0  0  0  0  0  0
   -2.0404   -2.4431    2.3101 H   0  0  0  0  0  0  0  0  0  0  0  0
   -0.2609   -3.8728    0.5897 N   0  0  0  0  0  0  0  0  0  0  0  0
    0.8637   -4.0583   -0.3498 C   0  0  2  0  0  0  0  0  0  0  0  0
    1.2893   -2.7438   -1.0538 C   0  0  0  0  0  0  0  0  0  0  0  0
    1.3595   -2.6406   -2.2718 O   0  0  0  0  0  0  0  0  0  0  0  0
    0.4376   -5.1461   -1.3433 C   0  0  0  0  0  0  0  0  0  0  0  0
   -1.2146   -3.8641    0.2102 H   0  0  0  0  0  0  0  0  0  0  0  0
    1.7369   -4.4275    0.1971 H   0  0  0  0  0  0  0  0  0  0  0  0
   -0.4288   -4.8155   -1.9258 H   0  0  0  0  0  0  0  0  0  0  0  0
    1.2547   -5.3708   -2.0359 H   0  0  0  0  0  0  0  0  0  0  0  0
    0.1711   -6.0649   -0.8125 H   0  0  0  0  0  0  0  0  0  0  0  0
    1.5867   -1.6339   -0.2949 N   0  0  0  0  0  0  0  0  0  0  0  0
    0.8246   -0.3653   -0.3912 C   0  0  2  0  0  0  0  0  0  0  0  0
    1.1568    0.5374    0.8189 C   0  0  0  0  0  0  0  0  0  0  0  0
    1.2105    1.7545    0.6852 O   0  0  0  0  0  0  0  0  0  0  0  0
   -0.7080   -0.5858   -0.2409 C   0  0  0  0  0  0  0  0  0  0  0  0
   -1.4638   -1.3576   -1.3406 C   0  0  0  0  0  0  0  0  0  0  0  0
   -2.9272   -1.4654   -0.9408 C   0  0  0  0  0  0  0  0  0  0  0  0
   -3.1830   -2.4235   -0.1608 O   0  5  0  0  0  0  0  0  0  0  0  0
   -3.7487   -0.5955   -1.3122 O   0  0  0  0  0  0  0  0  0  0  0  0
    1.7290   -1.9272    0.6712 H   0  0  0  0  0  0  0  0  0  0  0  0
    1.0542    0.1525   -1.3283 H   0  0  0  0  0  0  0  0  0  0  0  0
   -1.1781    0.4041   -0.1883 H   0  0  0  0  0  0  0  0  0  0  0  0
   -0.9041   -1.0691    0.7173 H   0  0  0  0  0  0  0  0  0  0  0  0
   -1.3738   -0.8266   -2.2926 H   0  0  0  0  0  0  0  0  0  0  0  0
   -1.1022   -2.3691   -1.4936 H   0  0  0  0  0  0  0  0  0  0  0  0
    1.5040   -0.0004    2.0499 N   0  0  0  0  0  0  0  0  0  0  0  0
    1.7269    0.7978    3.2652 C   0  0  2  0  0  0  0  0  0  0  0  0
    3.1392    1.4338    3.3313 C   0  0  0  0  0  0  0  0  0  0  0  0
    3.8485    1.3385    4.3283 O   0  0  0  0  0  0  0  0  0  0  0  0
    1.4340   -0.1243    4.4549 C   0  0  0  0  0  0  0  0  0  0  0  0
    1.3746   -1.0072    2.1690 H   0  0  0  0  0  0  0  0  0  0  0  0
    1.0050    1.6207    3.2932 H   0  0  0  0  0  0  0  0  0  0  0  0
    2.1406   -0.9604    4.4751 H   0  0  0  0  0  0  0  0  0  0  0  0
    1.5214    0.4282    5.3954 H   0  0  0  0  0  0  0  0  0  0  0  0
    0.4187   -0.5266    4.3851 H   0  0  0  0  0  0  0  0  0  0  0  0
    3.6006    2.1667    2.2555 N   0  0  0  0  0  0  0  0  0  0  0  0
    4.8884    2.8423    2.2091 C   0  0  0  0  0  0  0  0  0  0  0  0
    2.9521    2.2590    1.4681 H   0  0  0  0  0  0  0  0  0  0  0  0
    4.9389    3.6228    2.9750 H   0  0  0  0  0  0  0  0  0  0  0  0
    5.7010    2.1282    2.3763 H   0  0  0  0  0  0  0  0  0  0  0  0
    5.0328    3.3065    1.2290 H   0  0  0  0  0  0  0  0  0  0  0  0
  1  2  2  0  0  0  0
  1  3  1  0  0  0  0
  1  7  1  0  0  0  0
  3  4  1  0  0  0  0
  3  5  1  0  0  0  0
  3  6  1  0  0  0  0
  7  8  1  0  0  0  0
  7 12  1  0  0  0  0
  8  9  1  0  0  0  0
  8 11  1  0  0  0  0
  8 13  1  0  0  0  0
  9 10  2  0  0  0  0
  9 17  1  0  0  0  0
 11 14  1  0  0  0  0
 11 15  1  0  0  0  0
 11 16  1  0  0  0  0
 17 18  1  0  0  0  0
 17 26  1  0  0  0  0
 18 19  1  0  0  0  0
 18 21  1  0  0  0  0
 18 27  1  0  0  0  0
 19 20  2  0  0  0  0
 19 32  1  0  0  0  0
 21 22  1  0  0  0  0
 21 28  1  0  0  0  0
 21 29  1  0  0  0  0
 22 23  1  0  0  0  0
 22 30  1  0  0  0  0
 22 31  1  0  0  0  0
 23 24  1  0  0  0  0
 23 25  2  0  0  0  0
 32 33  1  0  0  0  0
 32 37  1  0  0  0  0
 33 34  1  0  0  0  0
 33 36  1  0  0  0  0
 33 38  1  0  0  0  0
 34 35  2  0  0  0  0
 34 42  1  0  0  0  0
 36 39  1  0  0  0  0
 36 40  1  0  0  0  0
 36 41  1  0  0  0  0
 42 43  1  0  0  0  0
 42 44  1  0  0  0  0
 43 45  1  0  0  0  0
 43 46  1  0  0  0  0
 43 47  1  0  0  0  0
M  CHG  1  24  -1
M  END
$$$$

  -OEChem-05262216243D

 47 46  0     1  0  0  0  0  0999 V2000
   -0.0153   -3.3882    1.8387 C   0  0  0  0  0  0  0  0  0  0  0  0
    1.1257   -3.0333    2.1248 O   0  0  0  0  0  0  0  0  0  0  0  0
   -1.1584   -3.1398    2.8048 C   0  0  0  0  0  0  0  0  0  0  0  0
   -1.9053   -2.4871    2.3447 H   0  0  0  0  0  0  0  0  0  0  0  0
   -1.6363   -4.0872    3.0653 H   0  0  0  0  0  0  0  0  0  0  0  0
   -0.7912   -2.6652    3.7183 H   0  0  0  0  0  0  0  0  0  0  0  0
   -0.2651   -3.9250    0.5935 N   0  0  0  0  0  0  0  0  0  0  0  0
    0.7733   -4.1815   -0.4253 C   0  0  2  0  0  0  0  0  0  0  0  0
    1.2228   -2.8939   -1.1620 C   0  0  0  0  0  0  0  0  0  0  0  0
    1.2554   -2.8037   -2.3826 O   0  0  0  0  0  0  0  0  0  0  0  0
    0.2118   -5.2422   -1.3793 C   0  0  0  0  0  0  0  0  0  0  0  0
   -1.2425   -3.8666    0.2845 H   0  0  0  0  0  0  0  0  0  0  0  0
    1.6607   -4.6015    0.0585 H   0  0  0  0  0  0  0  0  0  0  0  0
   -0.6715   -4.8596   -1.9013 H   0  0  0  0  0  0  0  0  0  0  0  0
    0.9626   -5.5186   -2.1260 H   0  0  0  0  0  0  0  0  0  0  0  0
   -0.0726   -6.1418   -0.8252 H   0  0  0  0  0  0  0  0  0  0  0  0
    1.5891   -1.7964   -0.4165 N   0  0  0  0  0  0  0  0  0  0  0  0
    0.8964   -0.4877   -0.4937 C   0  0  2  0  0  0  0  0  0  0  0  0
    1.3013    0.4033    0.7069 C   0  0  0  0  0  0  0  0  0  0  0  0
    1.2077    1.6228    0.6252 O   0  0  0  0  0  0  0  0  0  0  0  0
   -0.6387   -0.6454   -0.2847 C   0  0  0  0  0  0  0  0  0  0  0  0
   -1.4713   -1.3887   -1.3483 C   0  0  0  0  0  0  0  0  0  0  0  0
   -2.9199   -1.4319   -0.8867 C   0  0  0  0  0  0  0  0  0  0  0  0
   -3.1753   -2.3579   -0.0685 O   0  5  0  0  0  0  0  0  0  0  0  0
   -3.7290   -0.5504   -1.2582 O   0  0  0  0  0  0  0  0  0  0  0  0
    1.7340   -2.1008    0.5449 H   0  0  0  0  0  0  0  0  0  0  0  0
    1.1177    0.0162   -1.4399 H   0  0  0  0  0  0  0  0  0  0  0  0
   -1.0671    0.3625   -0.2210 H   0  0  0  0  0  0  0  0  0  0  0  0
   -0.8169   -1.1157    0.6838 H   0  0  0  0  0  0  0  0  0  0  0  0
   -1.3979   -0.8666   -2.3067 H   0  0  0  0  0  0  0  0  0  0  0  0
   -1.1614   -2.4161   -1.5084 H   0  0  0  0  0  0  0  0  0  0  0  0
    1.9327   -0.1196    1.8274 N   0  0  0  0  0  0  0  0  0  0  0  0
    2.2804    0.6734    3.0170 C   0  0  2  0  0  0  0  0  0  0  0  0
    3.6131    1.4494    2.8623 C   0  0  0  0  0  0  0  0  0  0  0  0
    4.5030    1.3878    3.7053 O   0  0  0  0  0  0  0  0  0  0  0  0
    2.2889   -0.2947    4.2061 C   0  0  0  0  0  0  0  0  0  0  0  0
    1.8892   -1.1322    1.9453 H   0  0  0  0  0  0  0  0  0  0  0  0
    1.4967    1.4165    3.1981 H   0  0  0  0  0  0  0  0  0  0  0  0
    3.0716   -1.0496    4.0803 H   0  0  0  0  0  0  0  0  0  0  0  0
    2.4753    0.2484    5.1378 H   0  0  0  0  0  0  0  0  0  0  0  0
    1.3234   -0.8028    4.2913 H   0  0  0  0  0  0  0  0  0  0  0  0
    3.7925    2.2642    1.7620 N   0  0  0  0  0  0  0  0  0  0  0  0
    4.9810    3.0663    1.5146 C   0  0  0  0  0  0  0  0  0  0  0  0
    3.0033    2.3127    1.1108 H   0  0  0  0  0  0  0  0  0  0  0  0
    5.0854    3.8396    2.2823 H   0  0  0  0  0  0  0  0  0  0  0  0
    5.8769    2.4371    1.5206 H   0  0  0  0  0  0  0  0  0  0  0  0
    4.9089    3.5527    0.5374 H   0  0  0  0  0  0  0  0  0  0  0  0
  1  2  2  0  0  0  0
  1  3  1  0  0  0  0
  1  7  1  0  0  0  0
  3  4  1  0  0  0  0
  3  5  1  0  0  0  0
  3  6  1  0  0  0  0
  7  8  1  0  0  0  0
  7 12  1  0  0  0  0
  8  9  1  0  0  0  0
  8 11  1  0  0  0  0
  8 13  1  0  0  0  0
  9 10  2  0  0  0  0
  9 17  1  0  0  0  0
 11 14  1  0  0  0  0
 11 15  1  0  0  0  0
 11 16  1  0  0  0  0
 17 18  1  0  0  0  0
 17 26  1  0  0  0  0
 18 19  1  0  0  0  0
 18 21  1  0  0  0  0
 18 27  1  0  0  0  0
 19 20  2  0  0  0  0
 19 32  1  0  0  0  0
 21 22  1  0  0  0  0
 21 28  1  0  0  0  0
 21 29  1  0  0  0  0
 22 23  1  0  0  0  0
 22 30  1  0  0  0  0
 22 31  1  0  0  0  0
 23 24  1  0  0  0  0
 23 25  2  0  0  0  0
 32 33  1  0  0  0  0
 32 37  1  0  0  0  0
 33 34  1  0  0  0  0
 33 36  1  0  0  0  0
 33 38  1  0  0  0  0
 34 35  2  0  0  0  0
 34 42  1  0  0  0  0
 36 39  1  0  0  0  0
 36 40  1  0  0  0  0
 36 41  1  0  0  0  0
 42 43  1  0  0  0  0
 42 44  1  0  0  0  0
 43 45  1  0  0  0  0
 43 46  1  0  0  0  0
 43 47  1  0  0  0  0
M  CHG  1  24  -1
M  END
$$$$

  -OEChem-05262216243D

 47 46  0     1  0  0  0  0  0999 V2000
    0.0717   -3.3917    1.8857 C   0  0  0  0  0  0  0  0  0  0  0  0
    1.2677   -3.1777    2.0635 O   0  0  0  0  0  0  0  0  0  0  0  0
   -0.9476   -2.9722    2.9284 C   0  0  0  0  0  0  0  0  0  0  0  0
   -0.4599   -2.4269    3.7406 H   0  0  0  0  0  0  0  0  0  0  0  0
   -1.7055   -2.3261    2.4763 H   0  0  0  0  0  0  0  0  0  0  0  0
   -1.4426   -3.8550    3.3398 H   0  0  0  0  0  0  0  0  0  0  0  0
   -0.3416   -3.9246    0.6831 N   0  0  0  0  0  0  0  0  0  0  0  0
    0.5783   -4.3158   -0.4043 C   0  0  2  0  0  0  0  0  0  0  0  0
    1.0994   -3.1015   -1.2158 C   0  0  0  0  0  0  0  0  0  0  0  0
    1.1050   -3.0753   -2.4397 O   0  0  0  0  0  0  0  0  0  0  0  0
   -0.1628   -5.3377   -1.2755 C   0  0  0  0  0  0  0  0  0  0  0  0
   -1.3302   -3.7667    0.4507 H   0  0  0  0  0  0  0  0  0  0  0  0
    1.4538   -4.8145    0.0235 H   0  0  0  0  0  0  0  0  0  0  0  0
   -1.0416   -4.8813   -1.7426 H   0  0  0  0  0  0  0  0  0  0  0  0
    0.4941   -5.7121   -2.0666 H   0  0  0  0  0  0  0  0  0  0  0  0
   -0.4924   -6.1865   -0.6692 H   0  0  0  0  0  0  0  0  0  0  0  0
    1.5857   -2.0007   -0.5458 N   0  0  0  0  0  0  0  0  0  0  0  0
    0.9701   -0.6535   -0.6471 C   0  0  2  0  0  0  0  0  0  0  0  0
    1.5080    0.2654    0.4817 C   0  0  0  0  0  0  0  0  0  0  0  0
    1.2251    1.4580    0.5124 O   0  0  0  0  0  0  0  0  0  0  0  0
   -0.5605   -0.7152   -0.3552 C   0  0  0  0  0  0  0  0  0  0  0  0
   -1.4923   -1.4506   -1.3405 C   0  0  0  0  0  0  0  0  0  0  0  0
   -2.9132   -1.3902   -0.8015 C   0  0  0  0  0  0  0  0  0  0  0  0
   -3.1560   -2.2310    0.1084 O   0  5  0  0  0  0  0  0  0  0  0  0
   -3.7178   -0.5283   -1.2256 O   0  0  0  0  0  0  0  0  0  0  0  0
    1.7082   -2.2791    0.4283 H   0  0  0  0  0  0  0  0  0  0  0  0
    1.1673   -0.2085   -1.6275 H   0  0  0  0  0  0  0  0  0  0  0  0
   -0.9338    0.3150   -0.3136 H   0  0  0  0  0  0  0  0  0  0  0  0
   -0.7085   -1.1347    0.6413 H   0  0  0  0  0  0  0  0  0  0  0  0
   -1.4413   -0.9712   -2.3225 H   0  0  0  0  0  0  0  0  0  0  0  0
   -1.2548   -2.4995   -1.4748 H   0  0  0  0  0  0  0  0  0  0  0  0
    2.4290   -0.1905    1.4128 N   0  0  0  0  0  0  0  0  0  0  0  0
    2.8886    0.5858    2.5750 C   0  0  2  0  0  0  0  0  0  0  0  0
    4.0243    1.5825    2.2304 C   0  0  0  0  0  0  0  0  0  0  0  0
    5.0697    1.6232    2.8719 O   0  0  0  0  0  0  0  0  0  0  0  0
    3.2894   -0.4282    3.6533 C   0  0  0  0  0  0  0  0  0  0  0  0
    2.6431   -1.1837    1.3975 H   0  0  0  0  0  0  0  0  0  0  0  0
    2.0537    1.1762    2.9675 H   0  0  0  0  0  0  0  0  0  0  0  0
    4.1377   -1.0325    3.3166 H   0  0  0  0  0  0  0  0  0  0  0  0
    3.5747    0.0894    4.5745 H   0  0  0  0  0  0  0  0  0  0  0  0
    2.4520   -1.0960    3.8786 H   0  0  0  0  0  0  0  0  0  0  0  0
    3.8420    2.4762    1.1939 N   0  0  0  0  0  0  0  0  0  0  0  0
    4.8100    3.4862    0.7941 C   0  0  0  0  0  0  0  0  0  0  0  0
    2.9368    2.4262    0.7169 H   0  0  0  0  0  0  0  0  0  0  0  0
    4.9412    4.2257    1.5906 H   0  0  0  0  0  0  0  0  0  0  0  0
    5.7783    3.0244    0.5754 H   0  0  0  0  0  0  0  0  0  0  0  0
    4.4633    4.0020   -0.1064 H   0  0  0  0  0  0  0  0  0  0  0  0
  1  2  2  0  0  0  0
  1  3  1  0  0  0  0
  1  7  1  0  0  0  0
  3  4  1  0  0  0  0
  3  5  1  0  0  0  0
  3  6  1  0  0  0  0
  7  8  1  0  0  0  0
  7 12  1  0  0  0  0
  8  9  1  0  0  0  0
  8 11  1  0  0  0  0
  8 13  1  0  0  0  0
  9 10  2  0  0  0  0
  9 17  1  0  0  0  0
 11 14  1  0  0  0  0
 11 15  1  0  0  0  0
 11 16  1  0  0  0  0
 17 18  1  0  0  0  0
 17 26  1  0  0  0  0
 18 19  1  0  0  0  0
 18 21  1  0  0  0  0
 18 27  1  0  0  0  0
 19 20  2  0  0  0  0
 19 32  1  0  0  0  0
 21 22  1  0  0  0  0
 21 28  1  0  0  0  0
 21 29  1  0  0  0  0
 22 23  1  0  0  0  0
 22 30  1  0  0  0  0
 22 31  1  0  0  0  0
 23 24  1  0  0  0  0
 23 25  2  0  0  0  0
 32 33  1  0  0  0  0
 32 37  1  0  0  0  0
 33 34  1  0  0  0  0
 33 36  1  0  0  0  0
 33 38  1  0  0  0  0
 34 35  2  0  0  0  0
 34 42  1  0  0  0  0
 36 39  1  0  0  0  0
 36 40  1  0  0  0  0
 36 41  1  0  0  0  0
 42 43  1  0  0  0  0
 42 44  1  0  0  0  0
 43 45  1  0  0  0  0
 43 46  1  0  0  0  0
 43 47  1  0  0  0  0
M  CHG  1  24  -1
M  END
$$$$

  -OEChem-05262216243D

 47 46  0     1  0  0  0  0  0999 V2000
    0.0339   -3.2769    1.9588 C   0  0  0  0  0  0  0  0  0  0  0  0
    1.2403   -3.1339    2.1313 O   0  0  0  0  0  0  0  0  0  0  0  0
   -0.9587   -2.7113    2.9573 C   0  0  0  0  0  0  0  0  0  0  0  0
   -1.7633   -2.1865    2.4343 H   0  0  0  0  0  0  0  0  0  0  0  0
   -1.3947   -3.5213    3.5467 H   0  0  0  0  0  0  0  0  0  0  0  0
   -0.4617   -2.0069    3.6294 H   0  0  0  0  0  0  0  0  0  0  0  0
   -0.4061   -3.8763    0.7983 N   0  0  0  0  0  0  0  0  0  0  0  0
    0.5002   -4.3953   -0.2447 C   0  0  2  0  0  0  0  0  0  0  0  0
    1.0761   -3.2763   -1.1513 C   0  0  0  0  0  0  0  0  0  0  0  0
    1.0983   -3.3647   -2.3723 O   0  0  0  0  0  0  0  0  0  0  0  0
   -0.2792   -5.4556   -1.0328 C   0  0  0  0  0  0  0  0  0  0  0  0
   -1.3828   -3.6788    0.5437 H   0  0  0  0  0  0  0  0  0  0  0  0
    1.3518   -4.8935    0.2292 H   0  0  0  0  0  0  0  0  0  0  0  0
   -1.1344   -5.0038   -1.5459 H   0  0  0  0  0  0  0  0  0  0  0  0
    0.3660   -5.9242   -1.7823 H   0  0  0  0  0  0  0  0  0  0  0  0
   -0.6493   -6.2346   -0.3599 H   0  0  0  0  0  0  0  0  0  0  0  0
    1.6174   -2.1371   -0.5946 N   0  0  0  0  0  0  0  0  0  0  0  0
    1.0268   -0.7870   -0.7940 C   0  0  2  0  0  0  0  0  0  0  0  0
    1.6483    0.1873    0.2434 C   0  0  0  0  0  0  0  0  0  0  0  0
    1.2091    1.3155    0.4372 O   0  0  0  0  0  0  0  0  0  0  0  0
   -0.5044   -0.7783   -0.4938 C   0  0  0  0  0  0  0  0  0  0  0  0
   -1.4582   -1.5601   -1.4210 C   0  0  0  0  0  0  0  0  0  0  0  0
   -2.8766   -1.4201   -0.8912 C   0  0  0  0  0  0  0  0  0  0  0  0
   -3.1468   -2.1966    0.0665 O   0  5  0  0  0  0  0  0  0  0  0  0
   -3.6531   -0.5609   -1.3699 O   0  0  0  0  0  0  0  0  0  0  0  0
    1.7466   -2.3272    0.4028 H   0  0  0  0  0  0  0  0  0  0  0  0
    1.2227   -0.4289   -1.8093 H   0  0  0  0  0  0  0  0  0  0  0  0
   -0.8489    0.2615   -0.5389 H   0  0  0  0  0  0  0  0  0  0  0  0
   -0.6619   -1.1084    0.5344 H   0  0  0  0  0  0  0  0  0  0  0  0
   -1.3960   -1.1566   -2.4358 H   0  0  0  0  0  0  0  0  0  0  0  0
   -1.2503   -2.6218   -1.4789 H   0  0  0  0  0  0  0  0  0  0  0  0
    2.7942   -0.1695    0.9343 N   0  0  0  0  0  0  0  0  0  0  0  0
    3.3878    0.6038    2.0356 C   0  0  2  0  0  0  0  0  0  0  0  0
    4.2713    1.7779    1.5449 C   0  0  0  0  0  0  0  0  0  0  0  0
    5.4337    1.9147    1.9137 O   0  0  0  0  0  0  0  0  0  0  0  0
    4.1477   -0.3921    2.9201 C   0  0  0  0  0  0  0  0  0  0  0  0
    3.2015   -1.0706    0.7006 H   0  0  0  0  0  0  0  0  0  0  0  0
    2.5859    1.0403    2.6406 H   0  0  0  0  0  0  0  0  0  0  0  0
    4.9796   -0.8406    2.3679 H   0  0  0  0  0  0  0  0  0  0  0  0
    4.5496    0.1145    3.8031 H   0  0  0  0  0  0  0  0  0  0  0  0
    3.4782   -1.1909    3.2555 H   0  0  0  0  0  0  0  0  0  0  0  0
    3.7270    2.7127    0.6869 N   0  0  0  0  0  0  0  0  0  0  0  0
    4.4440    3.8631    0.1584 C   0  0  0  0  0  0  0  0  0  0  0  0
    2.7509    2.5566    0.4168 H   0  0  0  0  0  0  0  0  0  0  0  0
    4.7588    4.5241    0.9723 H   0  0  0  0  0  0  0  0  0  0  0  0
    5.3292    3.5395   -0.3988 H   0  0  0  0  0  0  0  0  0  0  0  0
    3.7969    4.4297   -0.5179 H   0  0  0  0  0  0  0  0  0  0  0  0
  1  2  2  0  0  0  0
  1  3  1  0  0  0  0
  1  7  1  0  0  0  0
  3  4  1  0  0  0  0
  3  5  1  0  0  0  0
  3  6  1  0  0  0  0
  7  8  1  0  0  0  0
  7 12  1  0  0  0  0
  8  9  1  0  0  0  0
  8 11  1  0  0  0  0
  8 13  1  0  0  0  0
  9 10  2  0  0  0  0
  9 17  1  0  0  0  0
 11 14  1  0  0  0  0
 11 15  1  0  0  0  0
 11 16  1  0  0  0  0
 17 18  1  0  0  0  0
 17 26  1  0  0  0  0
 18 19  1  0  0  0  0
 18 21  1  0  0  0  0
 18 27  1  0  0  0  0
 19 20  2  0  0  0  0
 19 32  1  0  0  0  0
 21 22  1  0  0  0  0
 21 28  1  0  0  0  0
 21 29  1  0  0  0  0
 22 23  1  0  0  0  0
 22 30  1  0  0  0  0
 22 31  1  0  0  0  0
 23 24  1  0  0  0  0
 23 25  2  0  0  0  0
 32 33  1  0  0  0  0
 32 37  1  0  0  0  0
 33 34  1  0  0  0  0
 33 36  1  0  0  0  0
 33 38  1  0  0  0  0
 34 35  2  0  0  0  0
 34 42  1  0  0  0  0
 36 39  1  0  0  0  0
 36 40  1  0  0  0  0
 36 41  1  0  0  0  0
 42 43  1  0  0  0  0
 42 44  1  0  0  0  0
 43 45  1  0  0  0  0
 43 46  1  0  0  0  0
 43 47  1  0  0  0  0
M  CHG  1  24  -1
M  END
$$$$

  -OEChem-05262216243D

 47 46  0     1  0  0  0  0  0999 V2000
    0.2509   -3.2579    1.9179 C   0  0  0  0  0  0  0  0  0  0  0  0
    1.4309   -2.9341    2.0000 O   0  0  0  0  0  0  0  0  0  0  0  0
   -0.7462   -2.8107    2.9712 C   0  0  0  0  0  0  0  0  0  0  0  0
   -1.0557   -3.6660    3.5762 H   0  0  0  0  0  0  0  0  0  0  0  0
   -0.2980   -2.0556    3.6221 H   0  0  0  0  0  0  0  0  0  0  0  0
   -1.6318   -2.3810    2.4947 H   0  0  0  0  0  0  0  0  0  0  0  0
   -0.1700   -3.9732    0.8175 N   0  0  0  0  0  0  0  0  0  0  0  0
    0.7315   -4.3867   -0.2751 C   0  0  2  0  0  0  0  0  0  0  0  0
    1.0214   -3.2401   -1.2778 C   0  0  0  0  0  0  0  0  0  0  0  0
    0.9369   -3.3913   -2.4903 O   0  0  0  0  0  0  0  0  0  0  0  0
    0.0974   -5.6131   -0.9422 C   0  0  0  0  0  0  0  0  0  0  0  0
   -1.1808   -3.9408    0.6324 H   0  0  0  0  0  0  0  0  0  0  0  0
    1.6941   -4.6971    0.1428 H   0  0  0  0  0  0  0  0  0  0  0  0
   -0.8671   -5.3522   -1.3901 H   0  0  0  0  0  0  0  0  0  0  0  0
    0.7522   -5.9992   -1.7297 H   0  0  0  0  0  0  0  0  0  0  0  0
   -0.0634   -6.4062   -0.2059 H   0  0  0  0  0  0  0  0  0  0  0  0
    1.4069   -1.9958   -0.8272 N   0  0  0  0  0  0  0  0  0  0  0  0
    0.5730   -0.7791   -1.0107 C   0  0  2  0  0  0  0  0  0  0  0  0
    1.1421    0.3203   -0.0713 C   0  0  0  0  0  0  0  0  0  0  0  0
    0.4616    1.2179    0.4117 O   0  0  0  0  0  0  0  0  0  0  0  0
   -0.9081   -1.0123   -0.5756 C   0  0  0  0  0  0  0  0  0  0  0  0
   -1.7878   -1.9840   -1.3903 C   0  0  0  0  0  0  0  0  0  0  0  0
   -3.1629   -2.0608   -0.7445 C   0  0  0  0  0  0  0  0  0  0  0  0
   -3.2218   -2.8219    0.2608 O   0  5  0  0  0  0  0  0  0  0  0  0
   -4.1142   -1.3801   -1.1949 O   0  0  0  0  0  0  0  0  0  0  0  0
    1.6919   -2.0922    0.1518 H   0  0  0  0  0  0  0  0  0  0  0  0
    0.6149   -0.4398   -2.0501 H   0  0  0  0  0  0  0  0  0  0  0  0
   -1.4256   -0.0472   -0.6234 H   0  0  0  0  0  0  0  0  0  0  0  0
   -0.9210   -1.3156    0.4723 H   0  0  0  0  0  0  0  0  0  0  0  0
   -1.8764   -1.6237   -2.4192 H   0  0  0  0  0  0  0  0  0  0  0  0
   -1.4055   -2.9974   -1.4309 H   0  0  0  0  0  0  0  0  0  0  0  0
    2.4940    0.3096    0.2244 N   0  0  0  0  0  0  0  0  0  0  0  0
    3.1792    1.2475    1.1217 C   0  0  2  0  0  0  0  0  0  0  0  0
    4.3622    1.9565    0.4339 C   0  0  0  0  0  0  0  0  0  0  0  0
    5.1696    1.3205   -0.2350 O   0  0  0  0  0  0  0  0  0  0  0  0
    3.6578    0.4525    2.3378 C   0  0  0  0  0  0  0  0  0  0  0  0
    3.0625   -0.3633   -0.2868 H   0  0  0  0  0  0  0  0  0  0  0  0
    2.4885    2.0224    1.4681 H   0  0  0  0  0  0  0  0  0  0  0  0
    4.3644   -0.3266    2.0342 H   0  0  0  0  0  0  0  0  0  0  0  0
    4.1535    1.1142    3.0542 H   0  0  0  0  0  0  0  0  0  0  0  0
    2.8074   -0.0246    2.8357 H   0  0  0  0  0  0  0  0  0  0  0  0
    4.5511    3.3150    0.6129 N   0  0  0  0  0  0  0  0  0  0  0  0
    5.6236    4.0637   -0.0285 C   0  0  0  0  0  0  0  0  0  0  0  0
    3.8166    3.8234    1.0975 H   0  0  0  0  0  0  0  0  0  0  0  0
    6.5992    3.6801    0.2876 H   0  0  0  0  0  0  0  0  0  0  0  0
    5.5481    3.9833   -1.1179 H   0  0  0  0  0  0  0  0  0  0  0  0
    5.5628    5.1210    0.2461 H   0  0  0  0  0  0  0  0  0  0  0  0
  1  2  2  0  0  0  0
  1  3  1  0  0  0  0
  1  7  1  0  0  0  0
  3  4  1  0  0  0  0
  3  5  1  0  0  0  0
  3  6  1  0  0  0  0
  7  8  1  0  0  0  0
  7 12  1  0  0  0  0
  8  9  1  0  0  0  0
  8 11  1  0  0  0  0
  8 13  1  0  0  0  0
  9 10  2  0  0  0  0
  9 17  1  0  0  0  0
 11 14  1  0  0  0  0
 11 15  1  0  0  0  0
 11 16  1  0  0  0  0
 17 18  1  0  0  0  0
 17 26  1  0  0  0  0
 18 19  1  0  0  0  0
 18 21  1  0  0  0  0
 18 27  1  0  0  0  0
 19 20  2  0  0  0  0
 19 32  1  0  0  0  0
 21 22  1  0  0  0  0
 21 28  1  0  0  0  0
 21 29  1  0  0  0  0
 22 23  1  0  0  0  0
 22 30  1  0  0  0  0
 22 31  1  0  0  0  0
 23 24  1  0  0  0  0
 23 25  2  0  0  0  0
 32 33  1  0  0  0  0
 32 37  1  0  0  0  0
 33 34  1  0  0  0  0
 33 36  1  0  0  0  0
 33 38  1  0  0  0  0
 34 35  2  0  0  0  0
 34 42  1  0  0  0  0
 36 39  1  0  0  0  0
 36 40  1  0  0  0  0
 36 41  1  0  0  0  0
 42 43  1  0  0  0  0
 42 44  1  0  0  0  0
 43 45  1  0  0  0  0
 43 46  1  0  0  0  0
 43 47  1  0  0  0  0
M  CHG  1  24  -1
M  END
$$$$

  -OEChem-05262216243D

 47 46  0     1  0  0  0  0  0999 V2000
    0.4592   -3.1477    1.9004 C   0  0  0  0  0  0  0  0  0  0  0  0
    1.6245   -2.7665    1.8958 O   0  0  0  0  0  0  0  0  0  0  0  0
   -0.4932   -2.7003    2.9940 C   0  0  0  0  0  0  0  0  0  0  0  0
   -1.4632   -2.4332    2.5646 H   0  0  0  0  0  0  0  0  0  0  0  0
   -0.6407   -3.5091    3.7134 H   0  0  0  0  0  0  0  0  0  0  0  0
   -0.0890   -1.8274    3.5133 H   0  0  0  0  0  0  0  0  0  0  0  0
    0.0090   -3.9319    0.8602 N   0  0  0  0  0  0  0  0  0  0  0  0
    0.8589   -4.3345   -0.2763 C   0  0  2  0  0  0  0  0  0  0  0  0
    1.0056   -3.2147   -1.3389 C   0  0  0  0  0  0  0  0  0  0  0  0
    0.8561   -3.4241   -2.5366 O   0  0  0  0  0  0  0  0  0  0  0  0
    0.2588   -5.6245   -0.8494 C   0  0  0  0  0  0  0  0  0  0  0  0
   -1.0118   -3.9647    0.7426 H   0  0  0  0  0  0  0  0  0  0  0  0
    1.8657   -4.5683    0.0836 H   0  0  0  0  0  0  0  0  0  0  0  0
   -0.7517   -5.4441   -1.2302 H   0  0  0  0  0  0  0  0  0  0  0  0
    0.8763   -6.0007   -1.6709 H   0  0  0  0  0  0  0  0  0  0  0  0
    0.2063   -6.3957   -0.0751 H   0  0  0  0  0  0  0  0  0  0  0  0
    1.3308   -1.9277   -0.9671 N   0  0  0  0  0  0  0  0  0  0  0  0
    0.3905   -0.7888   -1.1203 C   0  0  2  0  0  0  0  0  0  0  0  0
    0.9598    0.3786   -0.2695 C   0  0  0  0  0  0  0  0  0  0  0  0
    0.2938    1.0488    0.5119 O   0  0  0  0  0  0  0  0  0  0  0  0
   -1.0401   -1.1061   -0.5850 C   0  0  0  0  0  0  0  0  0  0  0  0
   -1.8943   -2.1604   -1.3195 C   0  0  0  0  0  0  0  0  0  0  0  0
   -3.2215   -2.3158   -0.5929 C   0  0  0  0  0  0  0  0  0  0  0  0
   -3.1677   -3.0390    0.4399 O   0  5  0  0  0  0  0  0  0  0  0  0
   -4.2464   -1.7309   -1.0159 O   0  0  0  0  0  0  0  0  0  0  0  0
    1.7068   -1.9578   -0.0150 H   0  0  0  0  0  0  0  0  0  0  0  0
    0.3331   -0.4856   -2.1699 H   0  0  0  0  0  0  0  0  0  0  0  0
   -1.6209   -0.1770   -0.6218 H   0  0  0  0  0  0  0  0  0  0  0  0
   -0.9681   -1.3817    0.4678 H   0  0  0  0  0  0  0  0  0  0  0  0
   -2.0663   -1.8410   -2.3514 H   0  0  0  0  0  0  0  0  0  0  0  0
   -1.4416   -3.1445   -1.3531 H   0  0  0  0  0  0  0  0  0  0  0  0
    2.3125    0.6538   -0.3569 N   0  0  0  0  0  0  0  0  0  0  0  0
    3.0318    1.6253    0.4752 C   0  0  2  0  0  0  0  0  0  0  0  0
    4.1858    2.3144   -0.2812 C   0  0  0  0  0  0  0  0  0  0  0  0
    4.7721    1.7393   -1.1918 O   0  0  0  0  0  0  0  0  0  0  0  0
    3.5642    0.8823    1.7040 C   0  0  0  0  0  0  0  0  0  0  0  0
    2.8507    0.1087   -1.0295 H   0  0  0  0  0  0  0  0  0  0  0  0
    2.3447    2.4127    0.8019 H   0  0  0  0  0  0  0  0  0  0  0  0
    4.2593    0.0924    1.4016 H   0  0  0  0  0  0  0  0  0  0  0  0
    4.0880    1.5718    2.3726 H   0  0  0  0  0  0  0  0  0  0  0  0
    2.7385    0.4233    2.2578 H   0  0  0  0  0  0  0  0  0  0  0  0
    4.5803    3.5917    0.0763 N   0  0  0  0  0  0  0  0  0  0  0  0
    5.6105    4.3393   -0.6331 C   0  0  0  0  0  0  0  0  0  0  0  0
    4.0308    4.0651    0.7876 H   0  0  0  0  0  0  0  0  0  0  0  0
    6.5491    3.7755   -0.6545 H   0  0  0  0  0  0  0  0  0  0  0  0
    5.2955    4.5406   -1.6622 H   0  0  0  0  0  0  0  0  0  0  0  0
    5.7947    5.2950   -0.1332 H   0  0  0  0  0  0  0  0  0  0  0  0
  1  2  2  0  0  0  0
  1  3  1  0  0  0  0
  1  7  1  0  0  0  0
  3  4  1  0  0  0  0
  3  5  1  0  0  0  0
  3  6  1  0  0  0  0
  7  8  1  0  0  0  0
  7 12  1  0  0  0  0
  8  9  1  0  0  0  0
  8 11  1  0  0  0  0
  8 13  1  0  0  0  0
  9 10  2  0  0  0  0
  9 17  1  0  0  0  0
 11 14  1  0  0  0  0
 11 15  1  0  0  0  0
 11 16  1  0  0  0  0
 17 18  1  0  0  0  0
 17 26  1  0  0  0  0
 18 19  1  0  0  0  0
 18 21  1  0  0  0  0
 18 27  1  0  0  0  0
 19 20  2  0  0  0  0
 19 32  1  0  0  0  0
 21 22  1  0  0  0  0
 21 28  1  0  0  0  0
 21 29  1  0  0  0  0
 22 23  1  0  0  0  0
 22 30  1  0  0  0  0
 22 31  1  0  0  0  0
 23 24  1  0  0  0  0
 23 25  2  0  0  0  0
 32 33  1  0  0  0  0
 32 37  1  0  0  0  0
 33 34  1  0  0  0  0
 33 36  1  0  0  0  0
 33 38  1  0  0  0  0
 34 35  2  0  0  0  0
 34 42  1  0  0  0  0
 36 39  1  0  0  0  0
 36 40  1  0  0  0  0
 36 41  1  0  0  0  0
 42 43  1  0  0  0  0
 42 44  1  0  0  0  0
 43 45  1  0  0  0  0
 43 46  1  0  0  0  0
 43 47  1  0  0  0  0
M  CHG  1  24  -1
M  END
$$$$

  -OEChem-05262216243D

 47 46  0     1  0  0  0  0  0999 V2000
    0.5008   -3.0947    1.8948 C   0  0  0  0  0  0  0  0  0  0  0  0
    1.6674   -2.7175    1.8891 O   0  0  0  0  0  0  0  0  0  0  0  0
   -0.4579   -2.6198    2.9708 C   0  0  0  0  0  0  0  0  0  0  0  0
   -1.4313   -2.3812    2.5324 H   0  0  0  0  0  0  0  0  0  0  0  0
   -0.5939   -3.4042    3.7187 H   0  0  0  0  0  0  0  0  0  0  0  0
   -0.0657   -1.7228    3.4573 H   0  0  0  0  0  0  0  0  0  0  0  0
    0.0585   -3.9091    0.8744 N   0  0  0  0  0  0  0  0  0  0  0  0
    0.9161   -4.3294   -0.2495 C   0  0  2  0  0  0  0  0  0  0  0  0
    1.0506   -3.2324   -1.3372 C   0  0  0  0  0  0  0  0  0  0  0  0
    0.9137   -3.4738   -2.5305 O   0  0  0  0  0  0  0  0  0  0  0  0
    0.3357   -5.6413   -0.7919 C   0  0  0  0  0  0  0  0  0  0  0  0
   -0.9616   -3.9529    0.7545 H   0  0  0  0  0  0  0  0  0  0  0  0
    1.9251   -4.5411    0.1178 H   0  0  0  0  0  0  0  0  0  0  0  0
   -0.6715   -5.4824   -1.1903 H   0  0  0  0  0  0  0  0  0  0  0  0
    0.9681   -6.0340   -1.5939 H   0  0  0  0  0  0  0  0  0  0  0  0
    0.2808   -6.3901    0.0038 H   0  0  0  0  0  0  0  0  0  0  0  0
    1.3475   -1.9299   -0.9965 N   0  0  0  0  0  0  0  0  0  0  0  0
    0.3833   -0.8186   -1.1828 C   0  0  2  0  0  0  0  0  0  0  0  0
    0.9223    0.3810   -0.3610 C   0  0  0  0  0  0  0  0  0  0  0  0
    0.3329    0.8859    0.5888 O   0  0  0  0  0  0  0  0  0  0  0  0
   -1.0447   -1.1477   -0.6506 C   0  0  0  0  0  0  0  0  0  0  0  0
   -1.8739   -2.2349   -1.3633 C   0  0  0  0  0  0  0  0  0  0  0  0
   -3.2021   -2.3913   -0.6392 C   0  0  0  0  0  0  0  0  0  0  0  0
   -3.1473   -3.0967    0.4054 O   0  5  0  0  0  0  0  0  0  0  0  0
   -4.2276   -1.8133   -1.0710 O   0  0  0  0  0  0  0  0  0  0  0  0
    1.7228   -1.9255   -0.0438 H   0  0  0  0  0  0  0  0  0  0  0  0
    0.3243   -0.5440   -2.2405 H   0  0  0  0  0  0  0  0  0  0  0  0
   -1.6378   -0.2277   -0.7112 H   0  0  0  0  0  0  0  0  0  0  0  0
   -0.9768   -1.4004    0.4085 H   0  0  0  0  0  0  0  0  0  0  0  0
   -2.0457   -1.9442   -2.4037 H   0  0  0  0  0  0  0  0  0  0  0  0
   -1.4025   -3.2113   -1.3696 H   0  0  0  0  0  0  0  0  0  0  0  0
    2.1709    0.8808   -0.6798 N   0  0  0  0  0  0  0  0  0  0  0  0
    2.8674    1.9371    0.0637 C   0  0  2  0  0  0  0  0  0  0  0  0
    3.8534    2.7294   -0.8190 C   0  0  0  0  0  0  0  0  0  0  0  0
    4.3065    2.2433   -1.8497 O   0  0  0  0  0  0  0  0  0  0  0  0
    3.6074    1.2883    1.2379 C   0  0  0  0  0  0  0  0  0  0  0  0
    2.6571    0.4498   -1.4653 H   0  0  0  0  0  0  0  0  0  0  0  0
    2.1335    2.6513    0.4511 H   0  0  0  0  0  0  0  0  0  0  0  0
    4.3461    0.5679    0.8725 H   0  0  0  0  0  0  0  0  0  0  0  0
    4.1235    2.0471    1.8332 H   0  0  0  0  0  0  0  0  0  0  0  0
    2.9013    0.7619    1.8882 H   0  0  0  0  0  0  0  0  0  0  0  0
    4.2430    4.0033   -0.4451 N   0  0  0  0  0  0  0  0  0  0  0  0
    5.1260    4.8392   -1.2477 C   0  0  0  0  0  0  0  0  0  0  0  0
    3.8149    4.3958    0.3884 H   0  0  0  0  0  0  0  0  0  0  0  0
    6.0776    4.3286   -1.4293 H   0  0  0  0  0  0  0  0  0  0  0  0
    4.6600    5.0718   -2.2109 H   0  0  0  0  0  0  0  0  0  0  0  0
    5.3335    5.7786   -0.7263 H   0  0  0  0  0  0  0  0  0  0  0  0
  1  2  2  0  0  0  0
  1  3  1  0  0  0  0
  1  7  1  0  0  0  0
  3  4  1  0  0  0  0
  3  5  1  0  0  0  0
  3  6  1  0  0  0  0
  7  8  1  0  0  0  0
  7 12  1  0  0  0  0
  8  9  1  0  0  0  0
  8 11  1  0  0  0  0
  8 13  1  0  0  0  0
  9 10  2  0  0  0  0
  9 17  1  0  0  0  0
 11 14  1  0  0  0  0
 11 15  1  0  0  0  0
 11 16  1  0  0  0  0
 17 18  1  0  0  0  0
 17 26  1  0  0  0  0
 18 19  1  0  0  0  0
 18 21  1  0  0  0  0
 18 27  1  0  0  0  0
 19 20  2  0  0  0  0
 19 32  1  0  0  0  0
 21 22  1  0  0  0  0
 21 28  1  0  0  0  0
 21 29  1  0  0  0  0
 22 23  1  0  0  0  0
 22 30  1  0  0  0  0
 22 31  1  0  0  0  0
 23 24  1  0  0  0  0
 23 25  2  0  0  0  0
 32 33  1  0  0  0  0
 32 37  1  0  0  0  0
 33 34  1  0  0  0  0
 33 36  1  0  0  0  0
 33 38  1  0  0  0  0
 34 35  2  0  0  0  0
 34 42  1  0  0  0  0
 36 39  1  0  0  0  0
 36 40  1  0  0  0  0
 36 41  1  0  0  0  0
 42 43  1  0  0  0  0
 42 44  1  0  0  0  0
 43 45  1  0  0  0  0
 43 46  1  0  0  0  0
 43 47  1  0  0  0  0
M  CHG  1  24  -1
M  END
$$$$

  -OEChem-05262216243D

 47 46  0     1  0  0  0  0  0999 V2000
    0.4737   -3.1037    1.8689 C   0  0  0  0  0  0  0  0  0  0  0  0
    1.6643   -2.8150    1.9016 O   0  0  0  0  0  0  0  0  0  0  0  0
   -0.4835   -2.5331    2.8984 C   0  0  0  0  0  0  0  0  0  0  0  0
   -0.5357   -3.1951    3.7654 H   0  0  0  0  0  0  0  0  0  0  0  0
   -0.1436   -1.5442    3.2185 H   0  0  0  0  0  0  0  0  0  0  0  0
   -1.4854   -2.4340    2.4701 H   0  0  0  0  0  0  0  0  0  0  0  0
    0.0081   -3.8949    0.8399 N   0  0  0  0  0  0  0  0  0  0  0  0
    0.8653   -4.3546   -0.2686 C   0  0  2  0  0  0  0  0  0  0  0  0
    1.0665   -3.2615   -1.3494 C   0  0  0  0  0  0  0  0  0  0  0  0
    0.9446   -3.4942   -2.5463 O   0  0  0  0  0  0  0  0  0  0  0  0
    0.2362   -5.6382   -0.8249 C   0  0  0  0  0  0  0  0  0  0  0  0
   -1.0093   -3.8801    0.6955 H   0  0  0  0  0  0  0  0  0  0  0  0
    1.8575   -4.6119    0.1151 H   0  0  0  0  0  0  0  0  0  0  0  0
   -0.7579   -5.4346   -1.2355 H   0  0  0  0  0  0  0  0  0  0  0  0
    0.8613   -6.0545   -1.6208 H   0  0  0  0  0  0  0  0  0  0  0  0
    0.1385   -6.3874   -0.0336 H   0  0  0  0  0  0  0  0  0  0  0  0
    1.3990   -1.9705   -0.9979 N   0  0  0  0  0  0  0  0  0  0  0  0
    0.4737   -0.8316   -1.2016 C   0  0  2  0  0  0  0  0  0  0  0  0
    1.0193    0.3560   -0.3710 C   0  0  0  0  0  0  0  0  0  0  0  0
    0.5771    0.6762    0.7273 O   0  0  0  0  0  0  0  0  0  0  0  0
   -0.9795   -1.1076   -0.7110 C   0  0  0  0  0  0  0  0  0  0  0  0
   -1.8252   -2.1610   -1.4537 C   0  0  0  0  0  0  0  0  0  0  0  0
   -3.1799   -2.2719   -0.7716 C   0  0  0  0  0  0  0  0  0  0  0  0
   -4.1664   -1.6477   -1.2296 O   0  5  0  0  0  0  0  0  0  0  0  0
   -3.1834   -2.9746    0.2759 O   0  0  0  0  0  0  0  0  0  0  0  0
    1.7546   -1.9785   -0.0377 H   0  0  0  0  0  0  0  0  0  0  0  0
    0.4481   -0.5584   -2.2607 H   0  0  0  0  0  0  0  0  0  0  0  0
   -1.5337   -0.1638   -0.7739 H   0  0  0  0  0  0  0  0  0  0  0  0
   -0.9509   -1.3763    0.3460 H   0  0  0  0  0  0  0  0  0  0  0  0
   -1.9546   -1.8600   -2.4972 H   0  0  0  0  0  0  0  0  0  0  0  0
   -1.3892   -3.1539   -1.4510 H   0  0  0  0  0  0  0  0  0  0  0  0
    2.1273    1.0334   -0.8434 N   0  0  0  0  0  0  0  0  0  0  0  0
    2.8012    2.1338   -0.1442 C   0  0  2  0  0  0  0  0  0  0  0  0
    3.4360    3.1453   -1.1205 C   0  0  0  0  0  0  0  0  0  0  0  0
    3.7911    2.7958   -2.2413 O   0  0  0  0  0  0  0  0  0  0  0  0
    3.8705    1.5337    0.7734 C   0  0  0  0  0  0  0  0  0  0  0  0
    2.4961    0.7502   -1.7502 H   0  0  0  0  0  0  0  0  0  0  0  0
    2.0731    2.6816    0.4631 H   0  0  0  0  0  0  0  0  0  0  0  0
    4.6111    0.9807    0.1868 H   0  0  0  0  0  0  0  0  0  0  0  0
    4.3840    2.3225    1.3308 H   0  0  0  0  0  0  0  0  0  0  0  0
    3.4114    0.8462    1.4911 H   0  0  0  0  0  0  0  0  0  0  0  0
    3.6211    4.4605   -0.7326 N   0  0  0  0  0  0  0  0  0  0  0  0
    4.1689    5.4853   -1.6118 C   0  0  0  0  0  0  0  0  0  0  0  0
    3.2786    4.7287    0.1854 H   0  0  0  0  0  0  0  0  0  0  0  0
    5.1995    5.2408   -1.8884 H   0  0  0  0  0  0  0  0  0  0  0  0
    3.5689    5.5688   -2.5240 H   0  0  0  0  0  0  0  0  0  0  0  0
    4.1666    6.4560   -1.1073 H   0  0  0  0  0  0  0  0  0  0  0  0
  1  2  2  0  0  0  0
  1  3  1  0  0  0  0
  1  7  1  0  0  0  0
  3  4  1  0  0  0  0
  3  5  1  0  0  0  0
  3  6  1  0  0  0  0
  7  8  1  0  0  0  0
  7 12  1  0  0  0  0
  8  9  1  0  0  0  0
  8 11  1  0  0  0  0
  8 13  1  0  0  0  0
  9 10  2  0  0  0  0
  9 17  1  0  0  0  0
 11 14  1  0  0  0  0
 11 15  1  0  0  0  0
 11 16  1  0  0  0  0
 17 18  1  0  0  0  0
 17 26  1  0  0  0  0
 18 19  1  0  0  0  0
 18 21  1  0  0  0  0
 18 27  1  0  0  0  0
 19 20  2  0  0  0  0
 19 32  1  0  0  0  0
 21 22  1  0  0  0  0
 21 28  1  0  0  0  0
 21 29  1  0  0  0  0
 22 23  1  0  0  0  0
 22 30  1  0  0  0  0
 22 31  1  0  0  0  0
 23 24  1  0  0  0  0
 23 25  2  0  0  0  0
 32 33  1  0  0  0  0
 32 37  1  0  0  0  0
 33 34  1  0  0  0  0
 33 36  1  0  0  0  0
 33 38  1  0  0  0  0
 34 35  2  0  0  0  0
 34 42  1  0  0  0  0
 36 39  1  0  0  0  0
 36 40  1  0  0  0  0
 36 41  1  0  0  0  0
 42 43  1  0  0  0  0
 42 44  1  0  0  0  0
 43 45  1  0  0  0  0
 43 46  1  0  0  0  0
 43 47  1  0  0  0  0
M  CHG  1  24  -1
M  END
$$$$

  -OEChem-05262216243D

 47 46  0     1  0  0  0  0  0999 V2000
    0.4935   -3.0692    1.8767 C   0  0  0  0  0  0  0  0  0  0  0  0
    1.6962   -2.8464    1.9458 O   0  0  0  0  0  0  0  0  0  0  0  0
   -0.4623   -2.4261    2.8639 C   0  0  0  0  0  0  0  0  0  0  0  0
   -1.4838   -2.4449    2.4724 H   0  0  0  0  0  0  0  0  0  0  0  0
   -0.4389   -2.9673    3.8123 H   0  0  0  0  0  0  0  0  0  0  0  0
   -0.1756   -1.3846    3.0336 H   0  0  0  0  0  0  0  0  0  0  0  0
    0.0192   -3.8528    0.8457 N   0  0  0  0  0  0  0  0  0  0  0  0
    0.8840   -4.3595   -0.2364 C   0  0  2  0  0  0  0  0  0  0  0  0
    1.1420   -3.2907   -1.3296 C   0  0  0  0  0  0  0  0  0  0  0  0
    1.0401   -3.5412   -2.5250 O   0  0  0  0  0  0  0  0  0  0  0  0
    0.2242   -5.6316   -0.7847 C   0  0  0  0  0  0  0  0  0  0  0  0
   -0.9931   -3.7987    0.6763 H   0  0  0  0  0  0  0  0  0  0  0  0
    1.8597   -4.6422    0.1711 H   0  0  0  0  0  0  0  0  0  0  0  0
   -0.7554   -5.4042   -1.2169 H   0  0  0  0  0  0  0  0  0  0  0  0
    0.8496   -6.0806   -1.5621 H   0  0  0  0  0  0  0  0  0  0  0  0
    0.0884   -6.3639    0.0165 H   0  0  0  0  0  0  0  0  0  0  0  0
    1.4846   -1.9978   -0.9929 N   0  0  0  0  0  0  0  0  0  0  0  0
    0.5831   -0.8523   -1.2515 C   0  0  2  0  0  0  0  0  0  0  0  0
    1.1030    0.3545   -0.4356 C   0  0  0  0  0  0  0  0  0  0  0  0
    0.8227    0.5216    0.7466 O   0  0  0  0  0  0  0  0  0  0  0  0
   -0.8861   -1.0881   -0.7912 C   0  0  0  0  0  0  0  0  0  0  0  0
   -1.7318   -2.1470   -1.5242 C   0  0  0  0  0  0  0  0  0  0  0  0
   -3.1038   -2.2110   -0.8714 C   0  0  0  0  0  0  0  0  0  0  0  0
   -4.0623   -1.5687   -1.3629 O   0  5  0  0  0  0  0  0  0  0  0  0
   -3.1468   -2.8852    0.1936 O   0  0  0  0  0  0  0  0  0  0  0  0
    1.8121   -1.9863   -0.0225 H   0  0  0  0  0  0  0  0  0  0  0  0
    0.5906   -0.6105   -2.3186 H   0  0  0  0  0  0  0  0  0  0  0  0
   -1.4204   -0.1366   -0.8940 H   0  0  0  0  0  0  0  0  0  0  0  0
   -0.8897   -1.3299    0.2733 H   0  0  0  0  0  0  0  0  0  0  0  0
   -1.8305   -1.8746   -2.5788 H   0  0  0  0  0  0  0  0  0  0  0  0
   -1.3142   -3.1466   -1.4816 H   0  0  0  0  0  0  0  0  0  0  0  0
    2.0190    1.2142   -1.0118 N   0  0  0  0  0  0  0  0  0  0  0  0
    2.5946    2.3891   -0.3461 C   0  0  2  0  0  0  0  0  0  0  0  0
    2.8316    3.5562   -1.3259 C   0  0  0  0  0  0  0  0  0  0  0  0
    3.0583    3.3404   -2.5118 O   0  0  0  0  0  0  0  0  0  0  0  0
    3.9094    1.9683    0.3153 C   0  0  0  0  0  0  0  0  0  0  0  0
    2.2450    1.0694   -1.9946 H   0  0  0  0  0  0  0  0  0  0  0  0
    1.9061    2.7492    0.4254 H   0  0  0  0  0  0  0  0  0  0  0  0
    4.6199    1.6122   -0.4376 H   0  0  0  0  0  0  0  0  0  0  0  0
    4.3575    2.8125    0.8475 H   0  0  0  0  0  0  0  0  0  0  0  0
    3.7297    1.1619    1.0336 H   0  0  0  0  0  0  0  0  0  0  0  0
    2.7994    4.8615   -0.8685 N   0  0  0  0  0  0  0  0  0  0  0  0
    2.9461    6.0186   -1.7416 C   0  0  0  0  0  0  0  0  0  0  0  0
    2.5426    5.0077    0.1035 H   0  0  0  0  0  0  0  0  0  0  0  0
    3.9130    5.9912   -2.2548 H   0  0  0  0  0  0  0  0  0  0  0  0
    2.1483    6.0361   -2.4916 H   0  0  0  0  0  0  0  0  0  0  0  0
    2.8923    6.9417   -1.1566 H   0  0  0  0  0  0  0  0  0  0  0  0
  1  2  2  0  0  0  0
  1  3  1  0  0  0  0
  1  7  1  0  0  0  0
  3  4  1  0  0  0  0
  3  5  1  0  0  0  0
  3  6  1  0  0  0  0
  7  8  1  0  0  0  0
  7 12  1  0  0  0  0
  8  9  1  0  0  0  0
  8 11  1  0  0  0  0
  8 13  1  0  0  0  0
  9 10  2  0  0  0  0
  9 17  1  0  0  0  0
 11 14  1  0  0  0  0
 11 15  1  0  0  0  0
 11 16  1  0  0  0  0
 17 18  1  0  0  0  0
 17 26  1  0  0  0  0
 18 19  1  0  0  0  0
 18 21  1  0  0  0  0
 18 27  1  0  0  0  0
 19 20  2  0  0  0  0
 19 32  1  0  0  0  0
 21 22  1  0  0  0  0
 21 28  1  0  0  0  0
 21 29  1  0  0  0  0
 22 23  1  0  0  0  0
 22 30  1  0  0  0  0
 22 31  1  0  0  0  0
 23 24  1  0  0  0  0
 23 25  2  0  0  0  0
 32 33  1  0  0  0  0
 32 37  1  0  0  0  0
 33 34  1  0  0  0  0
 33 36  1  0  0  0  0
 33 38  1  0  0  0  0
 34 35  2  0  0  0  0
 34 42  1  0  0  0  0
 36 39  1  0  0  0  0
 36 40  1  0  0  0  0
 36 41  1  0  0  0  0
 42 43  1  0  0  0  0
 42 44  1  0  0  0  0
 43 45  1  0  0  0  0
 43 46  1  0  0  0  0
 43 47  1  0  0  0  0
M  CHG  1  24  -1
M  END
$$$$

  -OEChem-05262216243D

 47 46  0     1  0  0  0  0  0999 V2000
    0.5333   -3.0263    1.8614 C   0  0  0  0  0  0  0  0  0  0  0  0
    1.7364   -2.8148    1.9506 O   0  0  0  0  0  0  0  0  0  0  0  0
   -0.4315   -2.3825    2.8390 C   0  0  0  0  0  0  0  0  0  0  0  0
   -1.4465   -2.3872    2.4308 H   0  0  0  0  0  0  0  0  0  0  0  0
   -0.4286   -2.9328    3.7824 H   0  0  0  0  0  0  0  0  0  0  0  0
   -0.1358   -1.3459    3.0233 H   0  0  0  0  0  0  0  0  0  0  0  0
    0.0678   -3.8030    0.8213 N   0  0  0  0  0  0  0  0  0  0  0  0
    0.9405   -4.2932   -0.2618 C   0  0  2  0  0  0  0  0  0  0  0  0
    1.1626   -3.2212   -1.3589 C   0  0  0  0  0  0  0  0  0  0  0  0
    1.0444   -3.4743   -2.5524 O   0  0  0  0  0  0  0  0  0  0  0  0
    0.3148   -5.5858   -0.8003 C   0  0  0  0  0  0  0  0  0  0  0  0
   -0.9437   -3.7536    0.6480 H   0  0  0  0  0  0  0  0  0  0  0  0
    1.9259   -4.5473    0.1407 H   0  0  0  0  0  0  0  0  0  0  0  0
   -0.6770   -5.3900   -1.2198 H   0  0  0  0  0  0  0  0  0  0  0  0
    0.9443   -6.0154   -1.5855 H   0  0  0  0  0  0  0  0  0  0  0  0
    0.2133   -6.3210    0.0034 H   0  0  0  0  0  0  0  0  0  0  0  0
    1.4788   -1.9208   -1.0256 N   0  0  0  0  0  0  0  0  0  0  0  0
    0.5586   -0.7944   -1.2969 C   0  0  2  0  0  0  0  0  0  0  0  0
    1.0407    0.4295   -0.4876 C   0  0  0  0  0  0  0  0  0  0  0  0
    0.9700    0.4607    0.7364 O   0  0  0  0  0  0  0  0  0  0  0  0
   -0.9021   -1.0441   -0.8217 C   0  0  0  0  0  0  0  0  0  0  0  0
   -1.7370   -2.1279   -1.5294 C   0  0  0  0  0  0  0  0  0  0  0  0
   -3.1030   -2.2000   -0.8645 C   0  0  0  0  0  0  0  0  0  0  0  0
   -4.0661   -1.5543   -1.3422 O   0  5  0  0  0  0  0  0  0  0  0  0
   -3.1337   -2.8736    0.2009 O   0  0  0  0  0  0  0  0  0  0  0  0
    1.8065   -1.8924   -0.0556 H   0  0  0  0  0  0  0  0  0  0  0  0
    0.5602   -0.5646   -2.3667 H   0  0  0  0  0  0  0  0  0  0  0  0
   -1.4523   -0.1027   -0.9329 H   0  0  0  0  0  0  0  0  0  0  0  0
   -0.8916   -1.2705    0.2467 H   0  0  0  0  0  0  0  0  0  0  0  0
   -1.8483   -1.8757   -2.5879 H   0  0  0  0  0  0  0  0  0  0  0  0
   -1.3026   -3.1198   -1.4721 H   0  0  0  0  0  0  0  0  0  0  0  0
    1.6825    1.4705   -1.1312 N   0  0  0  0  0  0  0  0  0  0  0  0
    2.1895    2.6746   -0.4628 C   0  0  2  0  0  0  0  0  0  0  0  0
    2.2014    3.8981   -1.4018 C   0  0  0  0  0  0  0  0  0  0  0  0
    2.2421    3.7516   -2.6189 O   0  0  0  0  0  0  0  0  0  0  0  0
    3.6021    2.3858    0.0545 C   0  0  0  0  0  0  0  0  0  0  0  0
    1.7306    1.4405   -2.1488 H   0  0  0  0  0  0  0  0  0  0  0  0
    1.5393    2.9199    0.3838 H   0  0  0  0  0  0  0  0  0  0  0  0
    4.2687    2.1325   -0.7760 H   0  0  0  0  0  0  0  0  0  0  0  0
    4.0063    3.2592    0.5744 H   0  0  0  0  0  0  0  0  0  0  0  0
    3.5848    1.5450    0.7555 H   0  0  0  0  0  0  0  0  0  0  0  0
    2.1687    5.1763   -0.8738 N   0  0  0  0  0  0  0  0  0  0  0  0
    2.1081    6.3794   -1.6934 C   0  0  0  0  0  0  0  0  0  0  0  0
    2.0788    5.2618    0.1344 H   0  0  0  0  0  0  0  0  0  0  0  0
    2.9900    6.4475   -2.3387 H   0  0  0  0  0  0  0  0  0  0  0  0
    1.2105    6.3706   -2.3208 H   0  0  0  0  0  0  0  0  0  0  0  0
    2.0759    7.2684   -1.0565 H   0  0  0  0  0  0  0  0  0  0  0  0
  1  2  2  0  0  0  0
  1  3  1  0  0  0  0
  1  7  1  0  0  0  0
  3  4  1  0  0  0  0
  3  5  1  0  0  0  0
  3  6  1  0  0  0  0
  7  8  1  0  0  0  0
  7 12  1  0  0  0  0
  8  9  1  0  0  0  0
  8 11  1  0  0  0  0
  8 13  1  0  0  0  0
  9 10  2  0  0  0  0
  9 17  1  0  0  0  0
 11 14  1  0  0  0  0
 11 15  1  0  0  0  0
 11 16  1  0  0  0  0
 17 18  1  0  0  0  0
 17 26  1  0  0  0  0
 18 19  1  0  0  0  0
 18 21  1  0  0  0  0
 18 27  1  0  0  0  0
 19 20  2  0  0  0  0
 19 32  1  0  0  0  0
 21 22  1  0  0  0  0
 21 28  1  0  0  0  0
 21 29  1  0  0  0  0
 22 23  1  0  0  0  0
 22 30  1  0  0  0  0
 22 31  1  0  0  0  0
 23 24  1  0  0  0  0
 23 25  2  0  0  0  0
 32 33  1  0  0  0  0
 32 37  1  0  0  0  0
 33 34  1  0  0  0  0
 33 36  1  0  0  0  0
 33 38  1  0  0  0  0
 34 35  2  0  0  0  0
 34 42  1  0  0  0  0
 36 39  1  0  0  0  0
 36 40  1  0  0  0  0
 36 41  1  0  0  0  0
 42 43  1  0  0  0  0
 42 44  1  0  0  0  0
 43 45  1  0  0  0  0
 43 46  1  0  0  0  0
 43 47  1  0  0  0  0
M  CHG  1  24  -1
M  END
$$$$

  -OEChem-05262216243D

 47 46  0     1  0  0  0  0  0999 V2000
    0.4560   -3.0305    1.8890 C   0  0  0  0  0  0  0  0  0  0  0  0
    1.6554   -2.8859    2.0857 O   0  0  0  0  0  0  0  0  0  0  0  0
   -0.5538   -2.3895    2.8221 C   0  0  0  0  0  0  0  0  0  0  0  0
   -1.5503   -2.8051    2.6468 H   0  0  0  0  0  0  0  0  0  0  0  0
   -0.2724   -2.5735    3.8615 H   0  0  0  0  0  0  0  0  0  0  0  0
   -0.5889   -1.3112    2.6456 H   0  0  0  0  0  0  0  0  0  0  0  0
    0.0373   -3.7330    0.7794 N   0  0  0  0  0  0  0  0  0  0  0  0
    0.9584   -4.2176   -0.2659 C   0  0  2  0  0  0  0  0  0  0  0  0
    1.2155   -3.1461   -1.3560 C   0  0  0  0  0  0  0  0  0  0  0  0
    1.1190   -3.3966   -2.5522 O   0  0  0  0  0  0  0  0  0  0  0  0
    0.3618   -5.5137   -0.8292 C   0  0  0  0  0  0  0  0  0  0  0  0
   -0.9618   -3.6504    0.5520 H   0  0  0  0  0  0  0  0  0  0  0  0
    1.9290   -4.4662    0.1745 H   0  0  0  0  0  0  0  0  0  0  0  0
   -0.6072   -5.3203   -1.3003 H   0  0  0  0  0  0  0  0  0  0  0  0
    1.0313   -5.9466   -1.5790 H   0  0  0  0  0  0  0  0  0  0  0  0
    0.2191   -6.2455   -0.0285 H   0  0  0  0  0  0  0  0  0  0  0  0
    1.5212   -1.8450   -1.0166 N   0  0  0  0  0  0  0  0  0  0  0  0
    0.6092   -0.7187   -1.3146 C   0  0  2  0  0  0  0  0  0  0  0  0
    1.0619    0.5092   -0.4981 C   0  0  0  0  0  0  0  0  0  0  0  0
    1.1997    0.4413    0.7187 O   0  0  0  0  0  0  0  0  0  0  0  0
   -0.8569   -0.9633   -0.8603 C   0  0  0  0  0  0  0  0  0  0  0  0
   -1.6801   -2.0533   -1.5717 C   0  0  0  0  0  0  0  0  0  0  0  0
   -3.0543   -2.1170   -0.9249 C   0  0  0  0  0  0  0  0  0  0  0  0
   -4.0072   -1.4637   -1.4119 O   0  5  0  0  0  0  0  0  0  0  0  0
   -3.0976   -2.7843    0.1440 O   0  0  0  0  0  0  0  0  0  0  0  0
    1.8281   -1.8056   -0.0409 H   0  0  0  0  0  0  0  0  0  0  0  0
    0.6341   -0.4957   -2.3855 H   0  0  0  0  0  0  0  0  0  0  0  0
   -1.4074   -0.0242   -0.9894 H   0  0  0  0  0  0  0  0  0  0  0  0
   -0.8591   -1.1798    0.2109 H   0  0  0  0  0  0  0  0  0  0  0  0
   -1.7768   -1.8076   -2.6333 H   0  0  0  0  0  0  0  0  0  0  0  0
   -1.2481   -3.0454   -1.5044 H   0  0  0  0  0  0  0  0  0  0  0  0
    1.4316    1.6747   -1.1421 N   0  0  0  0  0  0  0  0  0  0  0  0
    1.8698    2.8974   -0.4592 C   0  0  2  0  0  0  0  0  0  0  0  0
    1.5369    4.1652   -1.2718 C   0  0  0  0  0  0  0  0  0  0  0  0
    1.3835    4.1049   -2.4872 O   0  0  0  0  0  0  0  0  0  0  0  0
    3.3794    2.8045   -0.2148 C   0  0  0  0  0  0  0  0  0  0  0  0
    1.2732    1.7301   -2.1475 H   0  0  0  0  0  0  0  0  0  0  0  0
    1.3530    2.9809    0.5027 H   0  0  0  0  0  0  0  0  0  0  0  0
    3.9155    2.7150   -1.1651 H   0  0  0  0  0  0  0  0  0  0  0  0
    3.7395    3.6959    0.3072 H   0  0  0  0  0  0  0  0  0  0  0  0
    3.6114    1.9285    0.3992 H   0  0  0  0  0  0  0  0  0  0  0  0
    1.4196    5.3868   -0.6333 N   0  0  0  0  0  0  0  0  0  0  0  0
    1.0563    6.6180   -1.3228 C   0  0  0  0  0  0  0  0  0  0  0  0
    1.4902    5.3917    0.3802 H   0  0  0  0  0  0  0  0  0  0  0  0
    1.7792    6.8414   -2.1144 H   0  0  0  0  0  0  0  0  0  0  0  0
    0.0605    6.5274   -1.7692 H   0  0  0  0  0  0  0  0  0  0  0  0
    1.0460    7.4557   -0.6190 H   0  0  0  0  0  0  0  0  0  0  0  0
  1  2  2  0  0  0  0
  1  3  1  0  0  0  0
  1  7  1  0  0  0  0
  3  4  1  0  0  0  0
  3  5  1  0  0  0  0
  3  6  1  0  0  0  0
  7  8  1  0  0  0  0
  7 12  1  0  0  0  0
  8  9  1  0  0  0  0
  8 11  1  0  0  0  0
  8 13  1  0  0  0  0
  9 10  2  0  0  0  0
  9 17  1  0  0  0  0
 11 14  1  0  0  0  0
 11 15  1  0  0  0  0
 11 16  1  0  0  0  0
 17 18  1  0  0  0  0
 17 26  1  0  0  0  0
 18 19  1  0  0  0  0
 18 21  1  0  0  0  0
 18 27  1  0  0  0  0
 19 20  2  0  0  0  0
 19 32  1  0  0  0  0
 21 22  1  0  0  0  0
 21 28  1  0  0  0  0
 21 29  1  0  0  0  0
 22 23  1  0  0  0  0
 22 30  1  0  0  0  0
 22 31  1  0  0  0  0
 23 24  1  0  0  0  0
 23 25  2  0  0  0  0
 32 33  1  0  0  0  0
 32 37  1  0  0  0  0
 33 34  1  0  0  0  0
 33 36  1  0  0  0  0
 33 38  1  0  0  0  0
 34 35  2  0  0  0  0
 34 42  1  0  0  0  0
 36 39  1  0  0  0  0
 36 40  1  0  0  0  0
 36 41  1  0  0  0  0
 42 43  1  0  0  0  0
 42 44  1  0  0  0  0
 43 45  1  0  0  0  0
 43 46  1  0  0  0  0
 43 47  1  0  0  0  0
M  CHG  1  24  -1
M  END
$$$$

  -OEChem-05262216243D

 47 46  0     1  0  0  0  0  0999 V2000
    0.3395   -3.0939    1.9432 C   0  0  0  0  0  0  0  0  0  0  0  0
    1.5155   -2.9985    2.2675 O   0  0  0  0  0  0  0  0  0  0  0  0
   -0.7549   -2.5802    2.8605 C   0  0  0  0  0  0  0  0  0  0  0  0
   -1.5779   -3.2987    2.8985 H   0  0  0  0  0  0  0  0  0  0  0  0
   -0.3652   -2.4336    3.8709 H   0  0  0  0  0  0  0  0  0  0  0  0
   -1.1408   -1.6287    2.4869 H   0  0  0  0  0  0  0  0  0  0  0  0
    0.0127   -3.6705    0.7356 N   0  0  0  0  0  0  0  0  0  0  0  0
    1.0025   -4.1039   -0.2700 C   0  0  2  0  0  0  0  0  0  0  0  0
    1.2504   -3.0250   -1.3545 C   0  0  0  0  0  0  0  0  0  0  0  0
    1.1503   -3.2686   -2.5520 O   0  0  0  0  0  0  0  0  0  0  0  0
    0.4940   -5.4279   -0.8539 C   0  0  0  0  0  0  0  0  0  0  0  0
   -0.9720   -3.5789    0.4532 H   0  0  0  0  0  0  0  0  0  0  0  0
    1.9671   -4.3019    0.2075 H   0  0  0  0  0  0  0  0  0  0  0  0
   -0.4696   -5.2837   -1.3535 H   0  0  0  0  0  0  0  0  0  0  0  0
    1.2076   -5.8216   -1.5842 H   0  0  0  0  0  0  0  0  0  0  0  0
    0.3672   -6.1692   -0.0593 H   0  0  0  0  0  0  0  0  0  0  0  0
    1.5460   -1.7232   -1.0117 N   0  0  0  0  0  0  0  0  0  0  0  0
    0.6353   -0.5971   -1.3127 C   0  0  2  0  0  0  0  0  0  0  0  0
    1.0731    0.6333   -0.4924 C   0  0  0  0  0  0  0  0  0  0  0  0
    1.4317    0.5095    0.6741 O   0  0  0  0  0  0  0  0  0  0  0  0
   -0.8263   -0.8525   -0.8549 C   0  0  0  0  0  0  0  0  0  0  0  0
   -1.6457   -1.9485   -1.5639 C   0  0  0  0  0  0  0  0  0  0  0  0
   -3.0159   -2.0202   -0.9108 C   0  0  0  0  0  0  0  0  0  0  0  0
   -3.9680   -1.3481   -1.3723 O   0  5  0  0  0  0  0  0  0  0  0  0
   -3.0526   -2.7102    0.1436 O   0  0  0  0  0  0  0  0  0  0  0  0
    1.8578   -1.6738   -0.0389 H   0  0  0  0  0  0  0  0  0  0  0  0
    0.6628   -0.3733   -2.3834 H   0  0  0  0  0  0  0  0  0  0  0  0
   -1.3852    0.0826   -0.9778 H   0  0  0  0  0  0  0  0  0  0  0  0
   -0.8160   -1.0724    0.2162 H   0  0  0  0  0  0  0  0  0  0  0  0
   -1.7507   -1.6992   -2.6236 H   0  0  0  0  0  0  0  0  0  0  0  0
   -1.2090   -2.9393   -1.5061 H   0  0  0  0  0  0  0  0  0  0  0  0
    1.1462    1.8812   -1.0826 N   0  0  0  0  0  0  0  0  0  0  0  0
    1.5244    3.1119   -0.3775 C   0  0  2  0  0  0  0  0  0  0  0  0
    0.9141    4.3667   -1.0353 C   0  0  0  0  0  0  0  0  0  0  0  0
    0.6059    4.3591   -2.2222 O   0  0  0  0  0  0  0  0  0  0  0  0
    3.0530    3.2178   -0.3596 C   0  0  0  0  0  0  0  0  0  0  0  0
    0.7949    1.9758   -2.0350 H   0  0  0  0  0  0  0  0  0  0  0  0
    1.1539    3.0665    0.6520 H   0  0  0  0  0  0  0  0  0  0  0  0
    3.4453    3.2569   -1.3809 H   0  0  0  0  0  0  0  0  0  0  0  0
    3.3687    4.1209    0.1710 H   0  0  0  0  0  0  0  0  0  0  0  0
    3.4888    2.3510    0.1474 H   0  0  0  0  0  0  0  0  0  0  0  0
    0.7257    5.5194   -0.2937 N   0  0  0  0  0  0  0  0  0  0  0  0
    0.1071    6.7240   -0.8321 C   0  0  0  0  0  0  0  0  0  0  0  0
    0.9336    5.4745    0.6995 H   0  0  0  0  0  0  0  0  0  0  0  0
    0.6691    7.0886   -1.6983 H   0  0  0  0  0  0  0  0  0  0  0  0
   -0.9238    6.5200   -1.1400 H   0  0  0  0  0  0  0  0  0  0  0  0
    0.0925    7.5128   -0.0740 H   0  0  0  0  0  0  0  0  0  0  0  0
  1  2  2  0  0  0  0
  1  3  1  0  0  0  0
  1  7  1  0  0  0  0
  3  4  1  0  0  0  0
  3  5  1  0  0  0  0
  3  6  1  0  0  0  0
  7  8  1  0  0  0  0
  7 12  1  0  0  0  0
  8  9  1  0  0  0  0
  8 11  1  0  0  0  0
  8 13  1  0  0  0  0
  9 10  2  0  0  0  0
  9 17  1  0  0  0  0
 11 14  1  0  0  0  0
 11 15  1  0  0  0  0
 11 16  1  0  0  0  0
 17 18  1  0  0  0  0
 17 26  1  0  0  0  0
 18 19  1  0  0  0  0
 18 21  1  0  0  0  0
 18 27  1  0  0  0  0
 19 20  2  0  0  0  0
 19 32  1  0  0  0  0
 21 22  1  0  0  0  0
 21 28  1  0  0  0  0
 21 29  1  0  0  0  0
 22 23  1  0  0  0  0
 22 30  1  0  0  0  0
 22 31  1  0  0  0  0
 23 24  1  0  0  0  0
 23 25  2  0  0  0  0
 32 33  1  0  0  0  0
 32 37  1  0  0  0  0
 33 34  1  0  0  0  0
 33 36  1  0  0  0  0
 33 38  1  0  0  0  0
 34 35  2  0  0  0  0
 34 42  1  0  0  0  0
 36 39  1  0  0  0  0
 36 40  1  0  0  0  0
 36 41  1  0  0  0  0
 42 43  1  0  0  0  0
 42 44  1  0  0  0  0
 43 45  1  0  0  0  0
 43 46  1  0  0  0  0
 43 47  1  0  0  0  0
M  CHG  1  24  -1
M  END
$$$$

  -OEChem-05262216243D

 47 46  0     1  0  0  0  0  0999 V2000
    0.3403   -3.0434    1.9150 C   0  0  0  0  0  0  0  0  0  0  0  0
    1.5208   -2.9536    2.2241 O   0  0  0  0  0  0  0  0  0  0  0  0
   -0.7409   -2.5461    2.8567 C   0  0  0  0  0  0  0  0  0  0  0  0
   -1.4295   -3.3606    3.0939 H   0  0  0  0  0  0  0  0  0  0  0  0
   -0.2970   -2.1738    3.7833 H   0  0  0  0  0  0  0  0  0  0  0  0
   -1.3069   -1.7385    2.3862 H   0  0  0  0  0  0  0  0  0  0  0  0
   -0.0044   -3.6047    0.7052 N   0  0  0  0  0  0  0  0  0  0  0  0
    0.9717   -4.0351   -0.3157 C   0  0  2  0  0  0  0  0  0  0  0  0
    1.2218   -2.9445   -1.3883 C   0  0  0  0  0  0  0  0  0  0  0  0
    1.0971   -3.1690   -2.5873 O   0  0  0  0  0  0  0  0  0  0  0  0
    0.4459   -5.3462   -0.9130 C   0  0  0  0  0  0  0  0  0  0  0  0
   -0.9912   -3.5022    0.4347 H   0  0  0  0  0  0  0  0  0  0  0  0
    1.9378   -4.2496    0.1514 H   0  0  0  0  0  0  0  0  0  0  0  0
   -0.5123   -5.1825   -1.4166 H   0  0  0  0  0  0  0  0  0  0  0  0
    1.1578   -5.7446   -1.6424 H   0  0  0  0  0  0  0  0  0  0  0  0
    0.3034   -6.0920   -0.1255 H   0  0  0  0  0  0  0  0  0  0  0  0
    1.5440   -1.6531   -1.0301 N   0  0  0  0  0  0  0  0  0  0  0  0
    0.6582   -0.5009   -1.3084 C   0  0  2  0  0  0  0  0  0  0  0  0
    1.1186    0.7146   -0.4770 C   0  0  0  0  0  0  0  0  0  0  0  0
    1.6714    0.5586    0.6072 O   0  0  0  0  0  0  0  0  0  0  0  0
   -0.8014   -0.7342   -0.8325 C   0  0  0  0  0  0  0  0  0  0  0  0
   -1.6538   -1.8047   -1.5413 C   0  0  0  0  0  0  0  0  0  0  0  0
   -3.0144   -1.8562   -0.8670 C   0  0  0  0  0  0  0  0  0  0  0  0
   -3.9548   -1.1461   -1.2943 O   0  5  0  0  0  0  0  0  0  0  0  0
   -3.0510   -2.5678    0.1729 O   0  0  0  0  0  0  0  0  0  0  0  0
    1.8804   -1.6176   -0.0648 H   0  0  0  0  0  0  0  0  0  0  0  0
    0.6804   -0.2633   -2.3762 H   0  0  0  0  0  0  0  0  0  0  0  0
   -1.3459    0.2119   -0.9340 H   0  0  0  0  0  0  0  0  0  0  0  0
   -0.7766   -0.9671    0.2355 H   0  0  0  0  0  0  0  0  0  0  0  0
   -1.7712   -1.5395   -2.5960 H   0  0  0  0  0  0  0  0  0  0  0  0
   -1.2365   -2.8047   -1.5029 H   0  0  0  0  0  0  0  0  0  0  0  0
    0.9228    2.0003   -0.9453 N   0  0  0  0  0  0  0  0  0  0  0  0
    1.2268    3.2145   -0.1791 C   0  0  2  0  0  0  0  0  0  0  0  0
    0.3608    4.4092   -0.6272 C   0  0  0  0  0  0  0  0  0  0  0  0
   -0.0820    4.4611   -1.7694 O   0  0  0  0  0  0  0  0  0  0  0  0
    2.7128    3.5467   -0.3495 C   0  0  0  0  0  0  0  0  0  0  0  0
    0.3918    2.1132   -1.8087 H   0  0  0  0  0  0  0  0  0  0  0  0
    1.0162    3.0344    0.8804 H   0  0  0  0  0  0  0  0  0  0  0  0
    2.9467    3.7179   -1.4050 H   0  0  0  0  0  0  0  0  0  0  0  0
    2.9719    4.4464    0.2165 H   0  0  0  0  0  0  0  0  0  0  0  0
    3.3319    2.7207    0.0148 H   0  0  0  0  0  0  0  0  0  0  0  0
    0.0865    5.4386    0.2553 N   0  0  0  0  0  0  0  0  0  0  0  0
   -0.7918    6.5548   -0.0701 C   0  0  0  0  0  0  0  0  0  0  0  0
    0.4031    5.3258    1.2138 H   0  0  0  0  0  0  0  0  0  0  0  0
   -0.4260    7.0864   -0.9546 H   0  0  0  0  0  0  0  0  0  0  0  0
   -1.8075    6.1973   -0.2686 H   0  0  0  0  0  0  0  0  0  0  0  0
   -0.8292    7.2608    0.7648 H   0  0  0  0  0  0  0  0  0  0  0  0
  1  2  2  0  0  0  0
  1  3  1  0  0  0  0
  1  7  1  0  0  0  0
  3  4  1  0  0  0  0
  3  5  1  0  0  0  0
  3  6  1  0  0  0  0
  7  8  1  0  0  0  0
  7 12  1  0  0  0  0
  8  9  1  0  0  0  0
  8 11  1  0  0  0  0
  8 13  1  0  0  0  0
  9 10  2  0  0  0  0
  9 17  1  0  0  0  0
 11 14  1  0  0  0  0
 11 15  1  0  0  0  0
 11 16  1  0  0  0  0
 17 18  1  0  0  0  0
 17 26  1  0  0  0  0
 18 19  1  0  0  0  0
 18 21  1  0  0  0  0
 18 27  1  0  0  0  0
 19 20  2  0  0  0  0
 19 32  1  0  0  0  0
 21 22  1  0  0  0  0
 21 28  1  0  0  0  0
 21 29  1  0  0  0  0
 22 23  1  0  0  0  0
 22 30  1  0  0  0  0
 22 31  1  0  0  0  0
 23 24  1  0  0  0  0
 23 25  2  0  0  0  0
 32 33  1  0  0  0  0
 32 37  1  0  0  0  0
 33 34  1  0  0  0  0
 33 36  1  0  0  0  0
 33 38  1  0  0  0  0
 34 35  2  0  0  0  0
 34 42  1  0  0  0  0
 36 39  1  0  0  0  0
 36 40  1  0  0  0  0
 36 41  1  0  0  0  0
 42 43  1  0  0  0  0
 42 44  1  0  0  0  0
 43 45  1  0  0  0  0
 43 46  1  0  0  0  0
 43 47  1  0  0  0  0
M  CHG  1  24  -1
M  END
$$$$

  -OEChem-05262216243D

 47 46  0     1  0  0  0  0  0999 V2000
    0.3567   -2.9878    1.8952 C   0  0  0  0  0  0  0  0  0  0  0  0
    1.5402   -2.8871    2.1877 O   0  0  0  0  0  0  0  0  0  0  0  0
   -0.7093   -2.4747    2.8449 C   0  0  0  0  0  0  0  0  0  0  0  0
   -1.6305   -3.0514    2.7232 H   0  0  0  0  0  0  0  0  0  0  0  0
   -0.3683   -2.5681    3.8785 H   0  0  0  0  0  0  0  0  0  0  0  0
   -0.9252   -1.4251    2.6323 H   0  0  0  0  0  0  0  0  0  0  0  0
   -0.0025   -3.5470    0.6887 N   0  0  0  0  0  0  0  0  0  0  0  0
    0.9596   -3.9549   -0.3541 C   0  0  2  0  0  0  0  0  0  0  0  0
    1.1637   -2.8552   -1.4269 C   0  0  0  0  0  0  0  0  0  0  0  0
    0.9931   -3.0703   -2.6219 O   0  0  0  0  0  0  0  0  0  0  0  0
    0.4428   -5.2719   -0.9452 C   0  0  0  0  0  0  0  0  0  0  0  0
   -0.9937   -3.4456    0.4340 H   0  0  0  0  0  0  0  0  0  0  0  0
    1.9397   -4.1530    0.0908 H   0  0  0  0  0  0  0  0  0  0  0  0
   -0.5341   -5.1226   -1.4163 H   0  0  0  0  0  0  0  0  0  0  0  0
    1.1387   -5.6495   -1.7006 H   0  0  0  0  0  0  0  0  0  0  0  0
    0.3401   -6.0267   -0.1598 H   0  0  0  0  0  0  0  0  0  0  0  0
    1.4840   -1.5641   -1.0671 N   0  0  0  0  0  0  0  0  0  0  0  0
    0.5887   -0.4090   -1.3035 C   0  0  2  0  0  0  0  0  0  0  0  0
    1.0749    0.7979   -0.4686 C   0  0  0  0  0  0  0  0  0  0  0  0
    1.8567    0.6405    0.4645 O   0  0  0  0  0  0  0  0  0  0  0  0
   -0.8557   -0.6647   -0.7868 C   0  0  0  0  0  0  0  0  0  0  0  0
   -1.7203   -1.7314   -1.4880 C   0  0  0  0  0  0  0  0  0  0  0  0
   -3.0595   -1.8076   -0.7742 C   0  0  0  0  0  0  0  0  0  0  0  0
   -4.0228   -1.1101   -1.1698 O   0  5  0  0  0  0  0  0  0  0  0  0
   -3.0543   -2.5248    0.2626 O   0  0  0  0  0  0  0  0  0  0  0  0
    1.8726   -1.5288   -0.1218 H   0  0  0  0  0  0  0  0  0  0  0  0
    0.5773   -0.1538   -2.3674 H   0  0  0  0  0  0  0  0  0  0  0  0
   -1.4163    0.2743   -0.8578 H   0  0  0  0  0  0  0  0  0  0  0  0
   -0.7977   -0.9136    0.2764 H   0  0  0  0  0  0  0  0  0  0  0  0
   -1.8715   -1.4499   -2.5341 H   0  0  0  0  0  0  0  0  0  0  0  0
   -1.2954   -2.7290   -1.4792 H   0  0  0  0  0  0  0  0  0  0  0  0
    0.6147    2.0752   -0.7325 N   0  0  0  0  0  0  0  0  0  0  0  0
    0.9454    3.2588    0.0708 C   0  0  2  0  0  0  0  0  0  0  0  0
   -0.1181    4.3665   -0.0692 C   0  0  0  0  0  0  0  0  0  0  0  0
   -0.7725    4.4709   -1.1004 O   0  0  0  0  0  0  0  0  0  0  0  0
    2.3136    3.7920   -0.3675 C   0  0  0  0  0  0  0  0  0  0  0  0
   -0.0959    2.1833   -1.4565 H   0  0  0  0  0  0  0  0  0  0  0  0
    0.9901    2.9750    1.1275 H   0  0  0  0  0  0  0  0  0  0  0  0
    2.2928    4.0737   -1.4250 H   0  0  0  0  0  0  0  0  0  0  0  0
    2.5879    4.6710    0.2230 H   0  0  0  0  0  0  0  0  0  0  0  0
    3.0846    3.0284   -0.2258 H   0  0  0  0  0  0  0  0  0  0  0  0
   -0.3235    5.2678    0.9600 N   0  0  0  0  0  0  0  0  0  0  0  0
   -1.3543    6.2974    0.9229 C   0  0  0  0  0  0  0  0  0  0  0  0
    0.1778    5.1047    1.8283 H   0  0  0  0  0  0  0  0  0  0  0  0
   -1.2203    6.9436    0.0490 H   0  0  0  0  0  0  0  0  0  0  0  0
   -2.3488    5.8414    0.8750 H   0  0  0  0  0  0  0  0  0  0  0  0
   -1.2994    6.9189    1.8216 H   0  0  0  0  0  0  0  0  0  0  0  0
  1  2  2  0  0  0  0
  1  3  1  0  0  0  0
  1  7  1  0  0  0  0
  3  4  1  0  0  0  0
  3  5  1  0  0  0  0
  3  6  1  0  0  0  0
  7  8  1  0  0  0  0
  7 12  1  0  0  0  0
  8  9  1  0  0  0  0
  8 11  1  0  0  0  0
  8 13  1  0  0  0  0
  9 10  2  0  0  0  0
  9 17  1  0  0  0  0
 11 14  1  0  0  0  0
 11 15  1  0  0  0  0
 11 16  1  0  0  0  0
 17 18  1  0  0  0  0
 17 26  1  0  0  0  0
 18 19  1  0  0  0  0
 18 21  1  0  0  0  0
 18 27  1  0  0  0  0
 19 20  2  0  0  0  0
 19 32  1  0  0  0  0
 21 22  1  0  0  0  0
 21 28  1  0  0  0  0
 21 29  1  0  0  0  0
 22 23  1  0  0  0  0
 22 30  1  0  0  0  0
 22 31  1  0  0  0  0
 23 24  1  0  0  0  0
 23 25  2  0  0  0  0
 32 33  1  0  0  0  0
 32 37  1  0  0  0  0
 33 34  1  0  0  0  0
 33 36  1  0  0  0  0
 33 38  1  0  0  0  0
 34 35  2  0  0  0  0
 34 42  1  0  0  0  0
 36 39  1  0  0  0  0
 36 40  1  0  0  0  0
 36 41  1  0  0  0  0
 42 43  1  0  0  0  0
 42 44  1  0  0  0  0
 43 45  1  0  0  0  0
 43 46  1  0  0  0  0
 43 47  1  0  0  0  0
M  CHG  1  24  -1
M  END
$$$$
