@<TRIPOS>MOLECULE
default_name
   19    18     1     0     0
SMALL
No Charge or Current Charge


@<TRIPOS>ATOM
      1 H1          26.0440    24.9720    24.0000 H          1 ACE       0.112300
      2 CH3         26.0000    26.0600    24.0000 C.3        1 ACE      -0.366200
      3 H2          25.4800    26.4060    24.8910 H          1 ACE       0.112300
      4 H3          25.4800    26.4060    23.1090 H          1 ACE       0.112300
      5 C           27.4090    26.6070    24.0000 C.2        1 ACE       0.597200
      6 O           28.3660    25.8440    24.0000 O.2        1 ACE      -0.567900
      7 N           27.5360    27.9310    24.0000 N.am       2 GLY      -0.415700
      8 H           26.7060    28.5050    24.0000 H          2 GLY       0.271900
      9 CA          28.8220    28.6300    24.0000 C.3        2 GLY      -0.025200
     10 HA2         29.3900    28.3370    24.8840 H          2 GLY       0.069800
     11 HA3         29.3900    28.3370    23.1160 H          2 GLY       0.069800
     12 C           28.6620    30.1530    24.0000 C.2        2 GLY       0.597300
     13 O           27.5420    30.6600    24.0000 O.2        2 GLY      -0.567900
     14 N           29.7910    30.8730    24.0000 N.am       3 NME      -0.415700
     15 H           30.6640    30.3690    24.0000 H          3 NME       0.271900
     16 CH3         29.8530    32.3360    24.0000 C.3        3 NME      -0.149000
     17 HH31        28.8480    32.7650    24.0000 H          3 NME       0.097600
     18 HH32        30.3800    32.6850    24.8890 H          3 NME       0.097600
     19 HH33        30.3800    32.6850    23.1110 H          3 NME       0.097600
@<TRIPOS>BOND
     1     5     6 2   
     2     5     7 am  
     3     2     3 1   
     4     2     4 1   
     5     2     5 1   
     6     1     2 1   
     7    12    13 2   
     8    12    14 am  
     9     9    10 1   
    10     9    11 1   
    11     9    12 1   
    12     7     8 1   
    13     7     9 1   
    14    16    17 1   
    15    16    18 1   
    16    16    19 1   
    17    14    15 1   
    18    14    16 1   
@<TRIPOS>SUBSTRUCTURE
     1 ACE         1 TEMP              0 ****  ****    0 ROOT
