
  -OEChem-05262214473D

 51 50  0     1  0  0  0  0  0999 V2000
    1.3524   -3.0009    1.4091 C   0  0  0  0  0  0  0  0  0  0  0  0
    1.8758   -1.9880    0.9598 O   0  0  0  0  0  0  0  0  0  0  0  0
    2.2030   -4.1782    1.7536 C   0  0  0  0  0  0  0  0  0  0  0  0
    2.3264   -4.8705    0.9053 H   0  0  0  0  0  0  0  0  0  0  0  0
    3.2257   -3.8876    2.0432 H   0  0  0  0  0  0  0  0  0  0  0  0
    1.8327   -4.8004    2.5839 H   0  0  0  0  0  0  0  0  0  0  0  0
    0.0005   -3.1873    1.6465 N   0  0  0  0  0  0  0  0  0  0  0  0
   -0.9949   -2.1807    1.3864 C   0  0  2  0  0  0  0  0  0  0  0  0
   -0.3083   -0.8216    1.4164 C   0  0  0  0  0  0  0  0  0  0  0  0
    0.7533   -0.6191    2.0022 O   0  0  0  0  0  0  0  0  0  0  0  0
   -2.1232   -2.2423    2.4042 C   0  0  0  0  0  0  0  0  0  0  0  0
   -0.3048   -4.0823    2.0245 H   0  0  0  0  0  0  0  0  0  0  0  0
   -1.3830   -2.3724    0.3801 H   0  0  0  0  0  0  0  0  0  0  0  0
   -1.7534   -2.0527    3.4185 H   0  0  0  0  0  0  0  0  0  0  0  0
   -2.8936   -1.4947    2.1882 H   0  0  0  0  0  0  0  0  0  0  0  0
   -2.5964   -3.2301    2.4022 H   0  0  0  0  0  0  0  0  0  0  0  0
   -1.0412    0.1517    0.7482 N   0  0  0  0  0  0  0  0  0  0  0  0
   -0.6079    1.5223    0.6467 C   0  0  2  0  0  0  0  0  0  0  0  0
   -1.6568    2.2956   -0.1514 C   0  0  0  0  0  0  0  0  0  0  0  0
   -2.6871    1.7776   -0.5778 O   0  0  0  0  0  0  0  0  0  0  0  0
    0.8133    1.6644    0.0505 C   0  0  2  0  0  0  0  0  0  0  0  0
    1.8891    1.0018    0.9394 C   0  0  0  0  0  0  0  0  0  0  0  0
    1.1298    3.1423   -0.2144 C   0  0  0  0  0  0  0  0  0  0  0  0
    3.2495    0.8884    0.2634 C   0  0  0  0  0  0  0  0  0  0  0  0
   -1.9022   -0.1128    0.2753 H   0  0  0  0  0  0  0  0  0  0  0  0
   -0.6201    1.9173    1.6706 H   0  0  0  0  0  0  0  0  0  0  0  0
    0.8247    1.1548   -0.9223 H   0  0  0  0  0  0  0  0  0  0  0  0
    2.0214    1.5890    1.8553 H   0  0  0  0  0  0  0  0  0  0  0  0
    1.5661    0.0005    1.2484 H   0  0  0  0  0  0  0  0  0  0  0  0
    1.1346    3.7130    0.7205 H   0  0  0  0  0  0  0  0  0  0  0  0
    2.1192    3.2607   -0.6667 H   0  0  0  0  0  0  0  0  0  0  0  0
    0.3941    3.5965   -0.8862 H   0  0  0  0  0  0  0  0  0  0  0  0
    3.1920    0.3109   -0.6636 H   0  0  0  0  0  0  0  0  0  0  0  0
    3.9551    0.3767    0.9261 H   0  0  0  0  0  0  0  0  0  0  0  0
    3.6583    1.8774    0.0337 H   0  0  0  0  0  0  0  0  0  0  0  0
   -1.3204    3.6336   -0.3000 N   0  0  0  0  0  0  0  0  0  0  0  0
   -2.1526    4.5877   -0.9969 C   0  0  2  0  0  0  0  0  0  0  0  0
   -1.8681    5.9687   -0.4211 C   0  0  0  0  0  0  0  0  0  0  0  0
   -1.3928    6.1435    0.6990 O   0  0  0  0  0  0  0  0  0  0  0  0
   -3.6264    4.2368   -0.8649 C   0  0  0  0  0  0  0  0  0  0  0  0
   -0.4456    3.9585    0.1010 H   0  0  0  0  0  0  0  0  0  0  0  0
   -1.8508    4.5611   -2.0496 H   0  0  0  0  0  0  0  0  0  0  0  0
   -3.9471    4.2583    0.1830 H   0  0  0  0  0  0  0  0  0  0  0  0
   -4.2537    4.9443   -1.4171 H   0  0  0  0  0  0  0  0  0  0  0  0
   -3.8239    3.2315   -1.2524 H   0  0  0  0  0  0  0  0  0  0  0  0
   -2.2475    6.9839   -1.2881 N   0  0  0  0  0  0  0  0  0  0  0  0
   -2.0918    8.3831   -0.9658 C   0  0  0  0  0  0  0  0  0  0  0  0
   -2.6157    6.7467   -2.2045 H   0  0  0  0  0  0  0  0  0  0  0  0
   -3.0159    8.7581   -0.5017 H   0  0  0  0  0  0  0  0  0  0  0  0
   -1.2532    8.5066   -0.2647 H   0  0  0  0  0  0  0  0  0  0  0  0
   -1.8872    8.9505   -1.8857 H   0  0  0  0  0  0  0  0  0  0  0  0
  1  3  1  0  0  0  0
  1  7  1  0  0  0  0
  1  2  2  0  0  0  0
 37 38  1  0  0  0  0
 38 46  1  0  0  0  0
 38 39  2  0  0  0  0
  8  9  1  0  0  0  0
  9 17  1  0  0  0  0
  9 10  2  0  0  0  0
 18 19  1  0  0  0  0
 19 36  1  0  0  0  0
 19 20  2  0  0  0  0
 22 24  1  0  0  0  0
 37 40  1  0  0  0  0
  8 11  1  0  0  0  0
 21 23  1  0  0  0  0
 46 47  1  0  0  0  0
 21 22  1  0  0  0  0
 36 37  1  0  0  0  0
  7  8  1  0  0  0  0
 18 21  1  0  0  0  0
 17 18  1  0  0  0  0
  3  4  1  0  0  0  0
  3  5  1  0  0  0  0
  3  6  1  0  0  0  0
 24 33  1  0  0  0  0
 24 34  1  0  0  0  0
 24 35  1  0  0  0  0
 40 43  1  0  0  0  0
 40 44  1  0  0  0  0
 40 45  1  0  0  0  0
 11 14  1  0  0  0  0
 11 15  1  0  0  0  0
 11 16  1  0  0  0  0
 23 30  1  0  0  0  0
 23 31  1  0  0  0  0
 23 32  1  0  0  0  0
 47 49  1  0  0  0  0
 47 50  1  0  0  0  0
 47 51  1  0  0  0  0
 22 28  1  0  0  0  0
 22 29  1  0  0  0  0
 37 42  1  0  0  0  0
  8 13  1  0  0  0  0
 18 26  1  0  0  0  0
 21 27  1  0  0  0  0
 46 48  1  0  0  0  0
  7 12  1  0  0  0  0
 36 41  1  0  0  0  0
 17 25  1  0  0  0  0
M  END
$$$$

  -OEChem-05262214473D

 51 50  0     1  0  0  0  0  0999 V2000
    1.3524   -3.0009    1.4091 C   0  0  0  0  0  0  0  0  0  0  0  0
    1.8758   -1.9880    0.9598 O   0  0  0  0  0  0  0  0  0  0  0  0
    2.2030   -4.1782    1.7536 C   0  0  0  0  0  0  0  0  0  0  0  0
    2.3264   -4.8705    0.9053 H   0  0  0  0  0  0  0  0  0  0  0  0
    3.2257   -3.8876    2.0432 H   0  0  0  0  0  0  0  0  0  0  0  0
    1.8327   -4.8004    2.5839 H   0  0  0  0  0  0  0  0  0  0  0  0
    0.0005   -3.1873    1.6465 N   0  0  0  0  0  0  0  0  0  0  0  0
   -0.9949   -2.1807    1.3864 C   0  0  2  0  0  0  0  0  0  0  0  0
   -0.3083   -0.8216    1.4164 C   0  0  0  0  0  0  0  0  0  0  0  0
    0.7533   -0.6191    2.0022 O   0  0  0  0  0  0  0  0  0  0  0  0
   -2.1232   -2.2423    2.4042 C   0  0  0  0  0  0  0  0  0  0  0  0
   -0.3048   -4.0823    2.0245 H   0  0  0  0  0  0  0  0  0  0  0  0
   -1.3830   -2.3724    0.3801 H   0  0  0  0  0  0  0  0  0  0  0  0
   -1.7534   -2.0527    3.4185 H   0  0  0  0  0  0  0  0  0  0  0  0
   -2.8936   -1.4947    2.1882 H   0  0  0  0  0  0  0  0  0  0  0  0
   -2.5964   -3.2301    2.4022 H   0  0  0  0  0  0  0  0  0  0  0  0
   -1.0412    0.1517    0.7482 N   0  0  0  0  0  0  0  0  0  0  0  0
   -0.6079    1.5223    0.6467 C   0  0  2  0  0  0  0  0  0  0  0  0
   -1.6568    2.2956   -0.1514 C   0  0  0  0  0  0  0  0  0  0  0  0
   -2.7934    1.8703   -0.3482 O   0  0  0  0  0  0  0  0  0  0  0  0
    0.8133    1.6644    0.0505 C   0  0  2  0  0  0  0  0  0  0  0  0
    1.8891    1.0018    0.9394 C   0  0  0  0  0  0  0  0  0  0  0  0
    1.1298    3.1423   -0.2144 C   0  0  0  0  0  0  0  0  0  0  0  0
    3.2495    0.8884    0.2634 C   0  0  0  0  0  0  0  0  0  0  0  0
   -1.9022   -0.1128    0.2753 H   0  0  0  0  0  0  0  0  0  0  0  0
   -0.6201    1.9173    1.6706 H   0  0  0  0  0  0  0  0  0  0  0  0
    0.8247    1.1548   -0.9223 H   0  0  0  0  0  0  0  0  0  0  0  0
    2.0214    1.5890    1.8553 H   0  0  0  0  0  0  0  0  0  0  0  0
    1.5661    0.0005    1.2484 H   0  0  0  0  0  0  0  0  0  0  0  0
    1.1346    3.7130    0.7205 H   0  0  0  0  0  0  0  0  0  0  0  0
    2.1192    3.2607   -0.6667 H   0  0  0  0  0  0  0  0  0  0  0  0
    0.3941    3.5965   -0.8862 H   0  0  0  0  0  0  0  0  0  0  0  0
    3.1920    0.3109   -0.6636 H   0  0  0  0  0  0  0  0  0  0  0  0
    3.9551    0.3767    0.9261 H   0  0  0  0  0  0  0  0  0  0  0  0
    3.6583    1.8774    0.0337 H   0  0  0  0  0  0  0  0  0  0  0  0
   -1.1827    3.5251   -0.5861 N   0  0  0  0  0  0  0  0  0  0  0  0
   -1.9820    4.4599   -1.3450 C   0  0  2  0  0  0  0  0  0  0  0  0
   -1.4498    5.8611   -1.0750 C   0  0  0  0  0  0  0  0  0  0  0  0
   -0.8012    6.1506   -0.0717 O   0  0  0  0  0  0  0  0  0  0  0  0
   -3.4536    4.3568   -0.9757 C   0  0  0  0  0  0  0  0  0  0  0  0
   -0.2262    3.7809   -0.3595 H   0  0  0  0  0  0  0  0  0  0  0  0
   -1.8396    4.2120   -2.4025 H   0  0  0  0  0  0  0  0  0  0  0  0
   -3.6159    4.6017    0.0803 H   0  0  0  0  0  0  0  0  0  0  0  0
   -4.0614    5.0455   -1.5718 H   0  0  0  0  0  0  0  0  0  0  0  0
   -3.8270    3.3407   -1.1425 H   0  0  0  0  0  0  0  0  0  0  0  0
   -1.8213    6.7602   -2.0649 N   0  0  0  0  0  0  0  0  0  0  0  0
   -1.4496    8.1554   -2.0303 C   0  0  0  0  0  0  0  0  0  0  0  0
   -2.3434    6.4286   -2.8707 H   0  0  0  0  0  0  0  0  0  0  0  0
   -2.2444    8.7350   -1.5379 H   0  0  0  0  0  0  0  0  0  0  0  0
   -0.5106    8.2707   -1.4692 H   0  0  0  0  0  0  0  0  0  0  0  0
   -1.3105    8.5232   -3.0576 H   0  0  0  0  0  0  0  0  0  0  0  0
  1  3  1  0  0  0  0
  1  7  1  0  0  0  0
  1  2  2  0  0  0  0
 37 38  1  0  0  0  0
 38 46  1  0  0  0  0
 38 39  2  0  0  0  0
  8  9  1  0  0  0  0
  9 17  1  0  0  0  0
  9 10  2  0  0  0  0
 18 19  1  0  0  0  0
 19 36  1  0  0  0  0
 19 20  2  0  0  0  0
 22 24  1  0  0  0  0
 37 40  1  0  0  0  0
  8 11  1  0  0  0  0
 21 23  1  0  0  0  0
 46 47  1  0  0  0  0
 21 22  1  0  0  0  0
 36 37  1  0  0  0  0
  7  8  1  0  0  0  0
 18 21  1  0  0  0  0
 17 18  1  0  0  0  0
  3  4  1  0  0  0  0
  3  5  1  0  0  0  0
  3  6  1  0  0  0  0
 24 33  1  0  0  0  0
 24 34  1  0  0  0  0
 24 35  1  0  0  0  0
 40 43  1  0  0  0  0
 40 44  1  0  0  0  0
 40 45  1  0  0  0  0
 11 14  1  0  0  0  0
 11 15  1  0  0  0  0
 11 16  1  0  0  0  0
 23 30  1  0  0  0  0
 23 31  1  0  0  0  0
 23 32  1  0  0  0  0
 47 49  1  0  0  0  0
 47 50  1  0  0  0  0
 47 51  1  0  0  0  0
 22 28  1  0  0  0  0
 22 29  1  0  0  0  0
 37 42  1  0  0  0  0
  8 13  1  0  0  0  0
 18 26  1  0  0  0  0
 21 27  1  0  0  0  0
 46 48  1  0  0  0  0
  7 12  1  0  0  0  0
 36 41  1  0  0  0  0
 17 25  1  0  0  0  0
M  END
$$$$

  -OEChem-05262214473D

 51 50  0     1  0  0  0  0  0999 V2000
    1.3524   -3.0009    1.4091 C   0  0  0  0  0  0  0  0  0  0  0  0
    1.8758   -1.9880    0.9598 O   0  0  0  0  0  0  0  0  0  0  0  0
    2.2030   -4.1782    1.7536 C   0  0  0  0  0  0  0  0  0  0  0  0
    2.3264   -4.8705    0.9053 H   0  0  0  0  0  0  0  0  0  0  0  0
    3.2257   -3.8876    2.0432 H   0  0  0  0  0  0  0  0  0  0  0  0
    1.8327   -4.8004    2.5839 H   0  0  0  0  0  0  0  0  0  0  0  0
    0.0005   -3.1873    1.6465 N   0  0  0  0  0  0  0  0  0  0  0  0
   -0.9949   -2.1807    1.3864 C   0  0  2  0  0  0  0  0  0  0  0  0
   -0.3083   -0.8216    1.4164 C   0  0  0  0  0  0  0  0  0  0  0  0
    0.7533   -0.6191    2.0022 O   0  0  0  0  0  0  0  0  0  0  0  0
   -2.1232   -2.2423    2.4042 C   0  0  0  0  0  0  0  0  0  0  0  0
   -0.3048   -4.0823    2.0245 H   0  0  0  0  0  0  0  0  0  0  0  0
   -1.3830   -2.3724    0.3801 H   0  0  0  0  0  0  0  0  0  0  0  0
   -1.7534   -2.0527    3.4185 H   0  0  0  0  0  0  0  0  0  0  0  0
   -2.8936   -1.4947    2.1882 H   0  0  0  0  0  0  0  0  0  0  0  0
   -2.5964   -3.2301    2.4022 H   0  0  0  0  0  0  0  0  0  0  0  0
   -1.0412    0.1517    0.7482 N   0  0  0  0  0  0  0  0  0  0  0  0
   -0.6079    1.5223    0.6467 C   0  0  2  0  0  0  0  0  0  0  0  0
   -1.6568    2.2956   -0.1514 C   0  0  0  0  0  0  0  0  0  0  0  0
   -2.8536    2.0150   -0.1290 O   0  0  0  0  0  0  0  0  0  0  0  0
    0.8133    1.6644    0.0505 C   0  0  2  0  0  0  0  0  0  0  0  0
    1.8891    1.0018    0.9394 C   0  0  0  0  0  0  0  0  0  0  0  0
    1.1298    3.1423   -0.2144 C   0  0  0  0  0  0  0  0  0  0  0  0
    3.2495    0.8884    0.2634 C   0  0  0  0  0  0  0  0  0  0  0  0
   -1.9022   -0.1128    0.2753 H   0  0  0  0  0  0  0  0  0  0  0  0
   -0.6201    1.9173    1.6706 H   0  0  0  0  0  0  0  0  0  0  0  0
    0.8247    1.1548   -0.9223 H   0  0  0  0  0  0  0  0  0  0  0  0
    2.0214    1.5890    1.8553 H   0  0  0  0  0  0  0  0  0  0  0  0
    1.5661    0.0005    1.2484 H   0  0  0  0  0  0  0  0  0  0  0  0
    1.1346    3.7130    0.7205 H   0  0  0  0  0  0  0  0  0  0  0  0
    2.1192    3.2607   -0.6667 H   0  0  0  0  0  0  0  0  0  0  0  0
    0.3941    3.5965   -0.8862 H   0  0  0  0  0  0  0  0  0  0  0  0
    3.1920    0.3109   -0.6636 H   0  0  0  0  0  0  0  0  0  0  0  0
    3.9551    0.3767    0.9261 H   0  0  0  0  0  0  0  0  0  0  0  0
    3.6583    1.8774    0.0337 H   0  0  0  0  0  0  0  0  0  0  0  0
   -1.1018    3.3509   -0.8611 N   0  0  0  0  0  0  0  0  0  0  0  0
   -1.8800    4.2515   -1.6808 C   0  0  2  0  0  0  0  0  0  0  0  0
   -1.1460    5.5845   -1.7422 C   0  0  0  0  0  0  0  0  0  0  0  0
   -0.3297    5.9405   -0.8949 O   0  0  0  0  0  0  0  0  0  0  0  0
   -3.2850    4.4297   -1.1267 C   0  0  0  0  0  0  0  0  0  0  0  0
   -0.0986    3.4978   -0.8015 H   0  0  0  0  0  0  0  0  0  0  0  0
   -1.9222    3.8107   -2.6827 H   0  0  0  0  0  0  0  0  0  0  0  0
   -3.2630    4.8703   -0.1233 H   0  0  0  0  0  0  0  0  0  0  0  0
   -3.8823    5.0897   -1.7644 H   0  0  0  0  0  0  0  0  0  0  0  0
   -3.8009    3.4661   -1.0553 H   0  0  0  0  0  0  0  0  0  0  0  0
   -1.5416    6.3485   -2.8313 N   0  0  0  0  0  0  0  0  0  0  0  0
   -0.9996    7.6595   -3.1021 C   0  0  0  0  0  0  0  0  0  0  0  0
   -2.2106    5.9662   -3.4932 H   0  0  0  0  0  0  0  0  0  0  0  0
   -1.6380    8.4243   -2.6358 H   0  0  0  0  0  0  0  0  0  0  0  0
    0.0171    7.7285   -2.6880 H   0  0  0  0  0  0  0  0  0  0  0  0
   -0.9647    7.8243   -4.1892 H   0  0  0  0  0  0  0  0  0  0  0  0
  1  3  1  0  0  0  0
  1  7  1  0  0  0  0
  1  2  2  0  0  0  0
 37 38  1  0  0  0  0
 38 46  1  0  0  0  0
 38 39  2  0  0  0  0
  8  9  1  0  0  0  0
  9 17  1  0  0  0  0
  9 10  2  0  0  0  0
 18 19  1  0  0  0  0
 19 36  1  0  0  0  0
 19 20  2  0  0  0  0
 22 24  1  0  0  0  0
 37 40  1  0  0  0  0
  8 11  1  0  0  0  0
 21 23  1  0  0  0  0
 46 47  1  0  0  0  0
 21 22  1  0  0  0  0
 36 37  1  0  0  0  0
  7  8  1  0  0  0  0
 18 21  1  0  0  0  0
 17 18  1  0  0  0  0
  3  4  1  0  0  0  0
  3  5  1  0  0  0  0
  3  6  1  0  0  0  0
 24 33  1  0  0  0  0
 24 34  1  0  0  0  0
 24 35  1  0  0  0  0
 40 43  1  0  0  0  0
 40 44  1  0  0  0  0
 40 45  1  0  0  0  0
 11 14  1  0  0  0  0
 11 15  1  0  0  0  0
 11 16  1  0  0  0  0
 23 30  1  0  0  0  0
 23 31  1  0  0  0  0
 23 32  1  0  0  0  0
 47 49  1  0  0  0  0
 47 50  1  0  0  0  0
 47 51  1  0  0  0  0
 22 28  1  0  0  0  0
 22 29  1  0  0  0  0
 37 42  1  0  0  0  0
  8 13  1  0  0  0  0
 18 26  1  0  0  0  0
 21 27  1  0  0  0  0
 46 48  1  0  0  0  0
  7 12  1  0  0  0  0
 36 41  1  0  0  0  0
 17 25  1  0  0  0  0
M  END
$$$$

  -OEChem-05262214473D

 51 50  0     1  0  0  0  0  0999 V2000
    1.3524   -3.0009    1.4091 C   0  0  0  0  0  0  0  0  0  0  0  0
    1.8758   -1.9880    0.9598 O   0  0  0  0  0  0  0  0  0  0  0  0
    2.2030   -4.1782    1.7536 C   0  0  0  0  0  0  0  0  0  0  0  0
    2.3264   -4.8705    0.9053 H   0  0  0  0  0  0  0  0  0  0  0  0
    3.2257   -3.8876    2.0432 H   0  0  0  0  0  0  0  0  0  0  0  0
    1.8327   -4.8004    2.5839 H   0  0  0  0  0  0  0  0  0  0  0  0
    0.0005   -3.1873    1.6465 N   0  0  0  0  0  0  0  0  0  0  0  0
   -0.9949   -2.1807    1.3864 C   0  0  2  0  0  0  0  0  0  0  0  0
   -0.3083   -0.8216    1.4164 C   0  0  0  0  0  0  0  0  0  0  0  0
    0.7533   -0.6191    2.0022 O   0  0  0  0  0  0  0  0  0  0  0  0
   -2.1232   -2.2423    2.4042 C   0  0  0  0  0  0  0  0  0  0  0  0
   -0.3048   -4.0823    2.0245 H   0  0  0  0  0  0  0  0  0  0  0  0
   -1.3830   -2.3724    0.3801 H   0  0  0  0  0  0  0  0  0  0  0  0
   -1.7534   -2.0527    3.4185 H   0  0  0  0  0  0  0  0  0  0  0  0
   -2.8936   -1.4947    2.1882 H   0  0  0  0  0  0  0  0  0  0  0  0
   -2.5964   -3.2301    2.4022 H   0  0  0  0  0  0  0  0  0  0  0  0
   -1.0412    0.1517    0.7482 N   0  0  0  0  0  0  0  0  0  0  0  0
   -0.6079    1.5223    0.6467 C   0  0  2  0  0  0  0  0  0  0  0  0
   -1.6568    2.2956   -0.1514 C   0  0  0  0  0  0  0  0  0  0  0  0
   -2.8634    2.2018    0.0650 O   0  0  0  0  0  0  0  0  0  0  0  0
    0.8133    1.6644    0.0505 C   0  0  2  0  0  0  0  0  0  0  0  0
    1.8891    1.0018    0.9394 C   0  0  0  0  0  0  0  0  0  0  0  0
    1.1298    3.1423   -0.2144 C   0  0  0  0  0  0  0  0  0  0  0  0
    3.2495    0.8884    0.2634 C   0  0  0  0  0  0  0  0  0  0  0  0
   -1.9022   -0.1128    0.2753 H   0  0  0  0  0  0  0  0  0  0  0  0
   -0.6201    1.9173    1.6706 H   0  0  0  0  0  0  0  0  0  0  0  0
    0.8247    1.1548   -0.9223 H   0  0  0  0  0  0  0  0  0  0  0  0
    2.0214    1.5890    1.8553 H   0  0  0  0  0  0  0  0  0  0  0  0
    1.5661    0.0005    1.2484 H   0  0  0  0  0  0  0  0  0  0  0  0
    1.1346    3.7130    0.7205 H   0  0  0  0  0  0  0  0  0  0  0  0
    2.1192    3.2607   -0.6667 H   0  0  0  0  0  0  0  0  0  0  0  0
    0.3941    3.5965   -0.8862 H   0  0  0  0  0  0  0  0  0  0  0  0
    3.1920    0.3109   -0.6636 H   0  0  0  0  0  0  0  0  0  0  0  0
    3.9551    0.3767    0.9261 H   0  0  0  0  0  0  0  0  0  0  0  0
    3.6583    1.8774    0.0337 H   0  0  0  0  0  0  0  0  0  0  0  0
   -1.0832    3.1229   -1.1064 N   0  0  0  0  0  0  0  0  0  0  0  0
   -1.8537    3.9768   -1.9815 C   0  0  2  0  0  0  0  0  0  0  0  0
   -0.9773    5.1578   -2.3774 C   0  0  0  0  0  0  0  0  0  0  0  0
   -0.0104    5.5276   -1.7144 O   0  0  0  0  0  0  0  0  0  0  0  0
   -3.1321    4.4505   -1.3075 C   0  0  0  0  0  0  0  0  0  0  0  0
   -0.0714    3.1286   -1.1948 H   0  0  0  0  0  0  0  0  0  0  0  0
   -2.0930    3.3844   -2.8713 H   0  0  0  0  0  0  0  0  0  0  0  0
   -2.9124    5.0459   -0.4138 H   0  0  0  0  0  0  0  0  0  0  0  0
   -3.7284    5.0741   -1.9817 H   0  0  0  0  0  0  0  0  0  0  0  0
   -3.7473    3.5992   -0.9968 H   0  0  0  0  0  0  0  0  0  0  0  0
   -1.4275    5.7768   -3.5351 N   0  0  0  0  0  0  0  0  0  0  0  0
   -0.7723    6.9293   -4.1083 C   0  0  0  0  0  0  0  0  0  0  0  0
   -2.2263    5.3909   -4.0298 H   0  0  0  0  0  0  0  0  0  0  0  0
   -1.2381    7.8472   -3.7205 H   0  0  0  0  0  0  0  0  0  0  0  0
    0.2939    6.9169   -3.8380 H   0  0  0  0  0  0  0  0  0  0  0  0
   -0.8733    6.9014   -5.2033 H   0  0  0  0  0  0  0  0  0  0  0  0
  1  3  1  0  0  0  0
  1  7  1  0  0  0  0
  1  2  2  0  0  0  0
 37 38  1  0  0  0  0
 38 46  1  0  0  0  0
 38 39  2  0  0  0  0
  8  9  1  0  0  0  0
  9 17  1  0  0  0  0
  9 10  2  0  0  0  0
 18 19  1  0  0  0  0
 19 36  1  0  0  0  0
 19 20  2  0  0  0  0
 22 24  1  0  0  0  0
 37 40  1  0  0  0  0
  8 11  1  0  0  0  0
 21 23  1  0  0  0  0
 46 47  1  0  0  0  0
 21 22  1  0  0  0  0
 36 37  1  0  0  0  0
  7  8  1  0  0  0  0
 18 21  1  0  0  0  0
 17 18  1  0  0  0  0
  3  4  1  0  0  0  0
  3  5  1  0  0  0  0
  3  6  1  0  0  0  0
 24 33  1  0  0  0  0
 24 34  1  0  0  0  0
 24 35  1  0  0  0  0
 40 43  1  0  0  0  0
 40 44  1  0  0  0  0
 40 45  1  0  0  0  0
 11 14  1  0  0  0  0
 11 15  1  0  0  0  0
 11 16  1  0  0  0  0
 23 30  1  0  0  0  0
 23 31  1  0  0  0  0
 23 32  1  0  0  0  0
 47 49  1  0  0  0  0
 47 50  1  0  0  0  0
 47 51  1  0  0  0  0
 22 28  1  0  0  0  0
 22 29  1  0  0  0  0
 37 42  1  0  0  0  0
  8 13  1  0  0  0  0
 18 26  1  0  0  0  0
 21 27  1  0  0  0  0
 46 48  1  0  0  0  0
  7 12  1  0  0  0  0
 36 41  1  0  0  0  0
 17 25  1  0  0  0  0
M  END
$$$$

  -OEChem-05262214473D

 51 50  0     1  0  0  0  0  0999 V2000
    1.3524   -3.0009    1.4091 C   0  0  0  0  0  0  0  0  0  0  0  0
    1.8758   -1.9880    0.9598 O   0  0  0  0  0  0  0  0  0  0  0  0
    2.2030   -4.1782    1.7536 C   0  0  0  0  0  0  0  0  0  0  0  0
    2.3264   -4.8705    0.9053 H   0  0  0  0  0  0  0  0  0  0  0  0
    3.2257   -3.8876    2.0432 H   0  0  0  0  0  0  0  0  0  0  0  0
    1.8327   -4.8004    2.5839 H   0  0  0  0  0  0  0  0  0  0  0  0
    0.0005   -3.1873    1.6465 N   0  0  0  0  0  0  0  0  0  0  0  0
   -0.9949   -2.1807    1.3864 C   0  0  2  0  0  0  0  0  0  0  0  0
   -0.3083   -0.8216    1.4164 C   0  0  0  0  0  0  0  0  0  0  0  0
    0.7533   -0.6191    2.0022 O   0  0  0  0  0  0  0  0  0  0  0  0
   -2.1232   -2.2423    2.4042 C   0  0  0  0  0  0  0  0  0  0  0  0
   -0.3048   -4.0823    2.0245 H   0  0  0  0  0  0  0  0  0  0  0  0
   -1.3830   -2.3724    0.3801 H   0  0  0  0  0  0  0  0  0  0  0  0
   -1.7534   -2.0527    3.4185 H   0  0  0  0  0  0  0  0  0  0  0  0
   -2.8936   -1.4947    2.1882 H   0  0  0  0  0  0  0  0  0  0  0  0
   -2.5964   -3.2301    2.4022 H   0  0  0  0  0  0  0  0  0  0  0  0
   -1.0412    0.1517    0.7482 N   0  0  0  0  0  0  0  0  0  0  0  0
   -0.6079    1.5223    0.6467 C   0  0  2  0  0  0  0  0  0  0  0  0
   -1.6568    2.2956   -0.1514 C   0  0  0  0  0  0  0  0  0  0  0  0
   -2.8222    2.4181    0.2204 O   0  0  0  0  0  0  0  0  0  0  0  0
    0.8133    1.6644    0.0505 C   0  0  2  0  0  0  0  0  0  0  0  0
    1.8891    1.0018    0.9394 C   0  0  0  0  0  0  0  0  0  0  0  0
    1.1298    3.1423   -0.2144 C   0  0  0  0  0  0  0  0  0  0  0  0
    3.2495    0.8884    0.2634 C   0  0  0  0  0  0  0  0  0  0  0  0
   -1.9022   -0.1128    0.2753 H   0  0  0  0  0  0  0  0  0  0  0  0
   -0.6201    1.9173    1.6706 H   0  0  0  0  0  0  0  0  0  0  0  0
    0.8247    1.1548   -0.9223 H   0  0  0  0  0  0  0  0  0  0  0  0
    2.0214    1.5890    1.8553 H   0  0  0  0  0  0  0  0  0  0  0  0
    1.5661    0.0005    1.2484 H   0  0  0  0  0  0  0  0  0  0  0  0
    1.1346    3.7130    0.7205 H   0  0  0  0  0  0  0  0  0  0  0  0
    2.1192    3.2607   -0.6667 H   0  0  0  0  0  0  0  0  0  0  0  0
    0.3941    3.5965   -0.8862 H   0  0  0  0  0  0  0  0  0  0  0  0
    3.1920    0.3109   -0.6636 H   0  0  0  0  0  0  0  0  0  0  0  0
    3.9551    0.3767    0.9261 H   0  0  0  0  0  0  0  0  0  0  0  0
    3.6583    1.8774    0.0337 H   0  0  0  0  0  0  0  0  0  0  0  0
   -1.1283    2.8565   -1.3053 N   0  0  0  0  0  0  0  0  0  0  0  0
   -1.9048    3.6545   -2.2266 C   0  0  2  0  0  0  0  0  0  0  0  0
   -0.9552    4.6099   -2.9372 C   0  0  0  0  0  0  0  0  0  0  0  0
    0.1348    4.9400   -2.4745 O   0  0  0  0  0  0  0  0  0  0  0  0
   -3.0052    4.4178   -1.5060 C   0  0  0  0  0  0  0  0  0  0  0  0
   -0.1466    2.6984   -1.5127 H   0  0  0  0  0  0  0  0  0  0  0  0
   -2.3403    2.9622   -2.9553 H   0  0  0  0  0  0  0  0  0  0  0  0
   -2.5881    5.1165   -0.7716 H   0  0  0  0  0  0  0  0  0  0  0  0
   -3.6105    4.9995   -2.2090 H   0  0  0  0  0  0  0  0  0  0  0  0
   -3.6699    3.7309   -0.9709 H   0  0  0  0  0  0  0  0  0  0  0  0
   -1.4867    5.0842   -4.1283 N   0  0  0  0  0  0  0  0  0  0  0  0
   -0.7832    6.0144   -4.9802 C   0  0  0  0  0  0  0  0  0  0  0  0
   -2.3895    4.7421   -4.4439 H   0  0  0  0  0  0  0  0  0  0  0  0
   -1.0719    7.0430   -4.7180 H   0  0  0  0  0  0  0  0  0  0  0  0
    0.3009    5.8912   -4.8409 H   0  0  0  0  0  0  0  0  0  0  0  0
   -1.0426    5.8175   -6.0309 H   0  0  0  0  0  0  0  0  0  0  0  0
  1  3  1  0  0  0  0
  1  7  1  0  0  0  0
  1  2  2  0  0  0  0
 37 38  1  0  0  0  0
 38 46  1  0  0  0  0
 38 39  2  0  0  0  0
  8  9  1  0  0  0  0
  9 17  1  0  0  0  0
  9 10  2  0  0  0  0
 18 19  1  0  0  0  0
 19 36  1  0  0  0  0
 19 20  2  0  0  0  0
 22 24  1  0  0  0  0
 37 40  1  0  0  0  0
  8 11  1  0  0  0  0
 21 23  1  0  0  0  0
 46 47  1  0  0  0  0
 21 22  1  0  0  0  0
 36 37  1  0  0  0  0
  7  8  1  0  0  0  0
 18 21  1  0  0  0  0
 17 18  1  0  0  0  0
  3  4  1  0  0  0  0
  3  5  1  0  0  0  0
  3  6  1  0  0  0  0
 24 33  1  0  0  0  0
 24 34  1  0  0  0  0
 24 35  1  0  0  0  0
 40 43  1  0  0  0  0
 40 44  1  0  0  0  0
 40 45  1  0  0  0  0
 11 14  1  0  0  0  0
 11 15  1  0  0  0  0
 11 16  1  0  0  0  0
 23 30  1  0  0  0  0
 23 31  1  0  0  0  0
 23 32  1  0  0  0  0
 47 49  1  0  0  0  0
 47 50  1  0  0  0  0
 47 51  1  0  0  0  0
 22 28  1  0  0  0  0
 22 29  1  0  0  0  0
 37 42  1  0  0  0  0
  8 13  1  0  0  0  0
 18 26  1  0  0  0  0
 21 27  1  0  0  0  0
 46 48  1  0  0  0  0
  7 12  1  0  0  0  0
 36 41  1  0  0  0  0
 17 25  1  0  0  0  0
M  END
$$$$

  -OEChem-05262214473D

 51 50  0     1  0  0  0  0  0999 V2000
    1.3524   -3.0009    1.4091 C   0  0  0  0  0  0  0  0  0  0  0  0
    1.8758   -1.9880    0.9598 O   0  0  0  0  0  0  0  0  0  0  0  0
    2.2030   -4.1782    1.7536 C   0  0  0  0  0  0  0  0  0  0  0  0
    2.3264   -4.8705    0.9053 H   0  0  0  0  0  0  0  0  0  0  0  0
    3.2257   -3.8876    2.0432 H   0  0  0  0  0  0  0  0  0  0  0  0
    1.8327   -4.8004    2.5839 H   0  0  0  0  0  0  0  0  0  0  0  0
    0.0005   -3.1873    1.6465 N   0  0  0  0  0  0  0  0  0  0  0  0
   -0.9949   -2.1807    1.3864 C   0  0  2  0  0  0  0  0  0  0  0  0
   -0.3083   -0.8216    1.4164 C   0  0  0  0  0  0  0  0  0  0  0  0
    0.7533   -0.6191    2.0022 O   0  0  0  0  0  0  0  0  0  0  0  0
   -2.1232   -2.2423    2.4042 C   0  0  0  0  0  0  0  0  0  0  0  0
   -0.3048   -4.0823    2.0245 H   0  0  0  0  0  0  0  0  0  0  0  0
   -1.3830   -2.3724    0.3801 H   0  0  0  0  0  0  0  0  0  0  0  0
   -1.7534   -2.0527    3.4185 H   0  0  0  0  0  0  0  0  0  0  0  0
   -2.8936   -1.4947    2.1882 H   0  0  0  0  0  0  0  0  0  0  0  0
   -2.5964   -3.2301    2.4022 H   0  0  0  0  0  0  0  0  0  0  0  0
   -1.0412    0.1517    0.7482 N   0  0  0  0  0  0  0  0  0  0  0  0
   -0.6079    1.5223    0.6467 C   0  0  2  0  0  0  0  0  0  0  0  0
   -1.6568    2.2956   -0.1514 C   0  0  0  0  0  0  0  0  0  0  0  0
   -2.7329    2.6490    0.3267 O   0  0  0  0  0  0  0  0  0  0  0  0
    0.8133    1.6644    0.0505 C   0  0  2  0  0  0  0  0  0  0  0  0
    1.8891    1.0018    0.9394 C   0  0  0  0  0  0  0  0  0  0  0  0
    1.1298    3.1423   -0.2144 C   0  0  0  0  0  0  0  0  0  0  0  0
    3.2495    0.8884    0.2634 C   0  0  0  0  0  0  0  0  0  0  0  0
   -1.9022   -0.1128    0.2753 H   0  0  0  0  0  0  0  0  0  0  0  0
   -0.6201    1.9173    1.6706 H   0  0  0  0  0  0  0  0  0  0  0  0
    0.8247    1.1548   -0.9223 H   0  0  0  0  0  0  0  0  0  0  0  0
    2.0214    1.5890    1.8553 H   0  0  0  0  0  0  0  0  0  0  0  0
    1.5661    0.0005    1.2484 H   0  0  0  0  0  0  0  0  0  0  0  0
    1.1346    3.7130    0.7205 H   0  0  0  0  0  0  0  0  0  0  0  0
    2.1192    3.2607   -0.6667 H   0  0  0  0  0  0  0  0  0  0  0  0
    0.3941    3.5965   -0.8862 H   0  0  0  0  0  0  0  0  0  0  0  0
    3.1920    0.3109   -0.6636 H   0  0  0  0  0  0  0  0  0  0  0  0
    3.9551    0.3767    0.9261 H   0  0  0  0  0  0  0  0  0  0  0  0
    3.6583    1.8774    0.0337 H   0  0  0  0  0  0  0  0  0  0  0  0
   -1.2338    2.5700   -1.4442 N   0  0  0  0  0  0  0  0  0  0  0  0
   -2.0298    3.3066   -2.3994 C   0  0  2  0  0  0  0  0  0  0  0  0
   -1.0812    3.9783   -3.3835 C   0  0  0  0  0  0  0  0  0  0  0  0
    0.0961    4.2178   -3.1233 O   0  0  0  0  0  0  0  0  0  0  0  0
   -2.9131    4.3338   -1.7084 C   0  0  0  0  0  0  0  0  0  0  0  0
   -0.3191    2.2366   -1.7335 H   0  0  0  0  0  0  0  0  0  0  0  0
   -2.6472    2.5729   -2.9291 H   0  0  0  0  0  0  0  0  0  0  0  0
   -2.3121    5.0773   -1.1722 H   0  0  0  0  0  0  0  0  0  0  0  0
   -3.5363    4.8712   -2.4308 H   0  0  0  0  0  0  0  0  0  0  0  0
   -3.5739    3.8523   -0.9795 H   0  0  0  0  0  0  0  0  0  0  0  0
   -1.7152    4.3178   -4.5705 N   0  0  0  0  0  0  0  0  0  0  0  0
   -1.0316    4.9773   -5.6585 C   0  0  0  0  0  0  0  0  0  0  0  0
   -2.6891    4.0639   -4.7072 H   0  0  0  0  0  0  0  0  0  0  0  0
   -1.1507    6.0665   -5.5605 H   0  0  0  0  0  0  0  0  0  0  0  0
    0.0377    4.7213   -5.6284 H   0  0  0  0  0  0  0  0  0  0  0  0
   -1.4611    4.6463   -6.6155 H   0  0  0  0  0  0  0  0  0  0  0  0
  1  3  1  0  0  0  0
  1  7  1  0  0  0  0
  1  2  2  0  0  0  0
 37 38  1  0  0  0  0
 38 46  1  0  0  0  0
 38 39  2  0  0  0  0
  8  9  1  0  0  0  0
  9 17  1  0  0  0  0
  9 10  2  0  0  0  0
 18 19  1  0  0  0  0
 19 36  1  0  0  0  0
 19 20  2  0  0  0  0
 22 24  1  0  0  0  0
 37 40  1  0  0  0  0
  8 11  1  0  0  0  0
 21 23  1  0  0  0  0
 46 47  1  0  0  0  0
 21 22  1  0  0  0  0
 36 37  1  0  0  0  0
  7  8  1  0  0  0  0
 18 21  1  0  0  0  0
 17 18  1  0  0  0  0
  3  4  1  0  0  0  0
  3  5  1  0  0  0  0
  3  6  1  0  0  0  0
 24 33  1  0  0  0  0
 24 34  1  0  0  0  0
 24 35  1  0  0  0  0
 40 43  1  0  0  0  0
 40 44  1  0  0  0  0
 40 45  1  0  0  0  0
 11 14  1  0  0  0  0
 11 15  1  0  0  0  0
 11 16  1  0  0  0  0
 23 30  1  0  0  0  0
 23 31  1  0  0  0  0
 23 32  1  0  0  0  0
 47 49  1  0  0  0  0
 47 50  1  0  0  0  0
 47 51  1  0  0  0  0
 22 28  1  0  0  0  0
 22 29  1  0  0  0  0
 37 42  1  0  0  0  0
  8 13  1  0  0  0  0
 18 26  1  0  0  0  0
 21 27  1  0  0  0  0
 46 48  1  0  0  0  0
  7 12  1  0  0  0  0
 36 41  1  0  0  0  0
 17 25  1  0  0  0  0
M  END
$$$$

  -OEChem-05262214473D

 51 50  0     1  0  0  0  0  0999 V2000
    1.3524   -3.0009    1.4091 C   0  0  0  0  0  0  0  0  0  0  0  0
    1.8758   -1.9880    0.9598 O   0  0  0  0  0  0  0  0  0  0  0  0
    2.2030   -4.1782    1.7536 C   0  0  0  0  0  0  0  0  0  0  0  0
    2.3264   -4.8705    0.9053 H   0  0  0  0  0  0  0  0  0  0  0  0
    3.2257   -3.8876    2.0432 H   0  0  0  0  0  0  0  0  0  0  0  0
    1.8327   -4.8004    2.5839 H   0  0  0  0  0  0  0  0  0  0  0  0
    0.0005   -3.1873    1.6465 N   0  0  0  0  0  0  0  0  0  0  0  0
   -0.9949   -2.1807    1.3864 C   0  0  2  0  0  0  0  0  0  0  0  0
   -0.3083   -0.8216    1.4164 C   0  0  0  0  0  0  0  0  0  0  0  0
    0.7533   -0.6191    2.0022 O   0  0  0  0  0  0  0  0  0  0  0  0
   -2.1232   -2.2423    2.4042 C   0  0  0  0  0  0  0  0  0  0  0  0
   -0.3048   -4.0823    2.0245 H   0  0  0  0  0  0  0  0  0  0  0  0
   -1.3830   -2.3724    0.3801 H   0  0  0  0  0  0  0  0  0  0  0  0
   -1.7534   -2.0527    3.4185 H   0  0  0  0  0  0  0  0  0  0  0  0
   -2.8936   -1.4947    2.1882 H   0  0  0  0  0  0  0  0  0  0  0  0
   -2.5964   -3.2301    2.4022 H   0  0  0  0  0  0  0  0  0  0  0  0
   -1.0412    0.1517    0.7482 N   0  0  0  0  0  0  0  0  0  0  0  0
   -0.6079    1.5223    0.6467 C   0  0  2  0  0  0  0  0  0  0  0  0
   -1.6568    2.2956   -0.1514 C   0  0  0  0  0  0  0  0  0  0  0  0
   -2.6015    2.8789    0.3766 O   0  0  0  0  0  0  0  0  0  0  0  0
    0.8133    1.6644    0.0505 C   0  0  2  0  0  0  0  0  0  0  0  0
    1.8891    1.0018    0.9394 C   0  0  0  0  0  0  0  0  0  0  0  0
    1.1298    3.1423   -0.2144 C   0  0  0  0  0  0  0  0  0  0  0  0
    3.2495    0.8884    0.2634 C   0  0  0  0  0  0  0  0  0  0  0  0
   -1.9022   -0.1128    0.2753 H   0  0  0  0  0  0  0  0  0  0  0  0
   -0.6201    1.9173    1.6706 H   0  0  0  0  0  0  0  0  0  0  0  0
    0.8247    1.1548   -0.9223 H   0  0  0  0  0  0  0  0  0  0  0  0
    2.0214    1.5890    1.8553 H   0  0  0  0  0  0  0  0  0  0  0  0
    1.5661    0.0005    1.2484 H   0  0  0  0  0  0  0  0  0  0  0  0
    1.1346    3.7130    0.7205 H   0  0  0  0  0  0  0  0  0  0  0  0
    2.1192    3.2607   -0.6667 H   0  0  0  0  0  0  0  0  0  0  0  0
    0.3941    3.5965   -0.8862 H   0  0  0  0  0  0  0  0  0  0  0  0
    3.1920    0.3109   -0.6636 H   0  0  0  0  0  0  0  0  0  0  0  0
    3.9551    0.3767    0.9261 H   0  0  0  0  0  0  0  0  0  0  0  0
    3.6583    1.8774    0.0337 H   0  0  0  0  0  0  0  0  0  0  0  0
   -1.3927    2.2828   -1.5136 N   0  0  0  0  0  0  0  0  0  0  0  0
   -2.2203    2.9566   -2.4881 C   0  0  2  0  0  0  0  0  0  0  0  0
   -1.3468    3.3059   -3.6858 C   0  0  0  0  0  0  0  0  0  0  0  0
   -0.1239    3.4101   -3.6166 O   0  0  0  0  0  0  0  0  0  0  0  0
   -2.8620    4.2042   -1.9011 C   0  0  0  0  0  0  0  0  0  0  0  0
   -0.5770    1.7746   -1.8422 H   0  0  0  0  0  0  0  0  0  0  0  0
   -2.9928    2.2430   -2.7945 H   0  0  0  0  0  0  0  0  0  0  0  0
   -2.1034    4.9310   -1.5884 H   0  0  0  0  0  0  0  0  0  0  0  0
   -3.5111    4.6978   -2.6319 H   0  0  0  0  0  0  0  0  0  0  0  0
   -3.4659    3.9550   -1.0219 H   0  0  0  0  0  0  0  0  0  0  0  0
   -2.0974    3.5298   -4.8315 N   0  0  0  0  0  0  0  0  0  0  0  0
   -1.5006    3.8887   -6.0968 C   0  0  0  0  0  0  0  0  0  0  0  0
   -3.1047    3.4025   -4.8018 H   0  0  0  0  0  0  0  0  0  0  0  0
   -1.4691    4.9842   -6.1904 H   0  0  0  0  0  0  0  0  0  0  0  0
   -0.4778    3.4870   -6.1467 H   0  0  0  0  0  0  0  0  0  0  0  0
   -2.1002    3.4678   -6.9174 H   0  0  0  0  0  0  0  0  0  0  0  0
  1  3  1  0  0  0  0
  1  7  1  0  0  0  0
  1  2  2  0  0  0  0
 37 38  1  0  0  0  0
 38 46  1  0  0  0  0
 38 39  2  0  0  0  0
  8  9  1  0  0  0  0
  9 17  1  0  0  0  0
  9 10  2  0  0  0  0
 18 19  1  0  0  0  0
 19 36  1  0  0  0  0
 19 20  2  0  0  0  0
 22 24  1  0  0  0  0
 37 40  1  0  0  0  0
  8 11  1  0  0  0  0
 21 23  1  0  0  0  0
 46 47  1  0  0  0  0
 21 22  1  0  0  0  0
 36 37  1  0  0  0  0
  7  8  1  0  0  0  0
 18 21  1  0  0  0  0
 17 18  1  0  0  0  0
  3  4  1  0  0  0  0
  3  5  1  0  0  0  0
  3  6  1  0  0  0  0
 24 33  1  0  0  0  0
 24 34  1  0  0  0  0
 24 35  1  0  0  0  0
 40 43  1  0  0  0  0
 40 44  1  0  0  0  0
 40 45  1  0  0  0  0
 11 14  1  0  0  0  0
 11 15  1  0  0  0  0
 11 16  1  0  0  0  0
 23 30  1  0  0  0  0
 23 31  1  0  0  0  0
 23 32  1  0  0  0  0
 47 49  1  0  0  0  0
 47 50  1  0  0  0  0
 47 51  1  0  0  0  0
 22 28  1  0  0  0  0
 22 29  1  0  0  0  0
 37 42  1  0  0  0  0
  8 13  1  0  0  0  0
 18 26  1  0  0  0  0
 21 27  1  0  0  0  0
 46 48  1  0  0  0  0
  7 12  1  0  0  0  0
 36 41  1  0  0  0  0
 17 25  1  0  0  0  0
M  END
$$$$

  -OEChem-05262214473D

 51 50  0     1  0  0  0  0  0999 V2000
    1.3524   -3.0009    1.4091 C   0  0  0  0  0  0  0  0  0  0  0  0
    1.8758   -1.9880    0.9598 O   0  0  0  0  0  0  0  0  0  0  0  0
    2.2030   -4.1782    1.7536 C   0  0  0  0  0  0  0  0  0  0  0  0
    2.3264   -4.8705    0.9053 H   0  0  0  0  0  0  0  0  0  0  0  0
    3.2257   -3.8876    2.0432 H   0  0  0  0  0  0  0  0  0  0  0  0
    1.8327   -4.8004    2.5839 H   0  0  0  0  0  0  0  0  0  0  0  0
    0.0005   -3.1873    1.6465 N   0  0  0  0  0  0  0  0  0  0  0  0
   -0.9949   -2.1807    1.3864 C   0  0  2  0  0  0  0  0  0  0  0  0
   -0.3083   -0.8216    1.4164 C   0  0  0  0  0  0  0  0  0  0  0  0
    0.7533   -0.6191    2.0022 O   0  0  0  0  0  0  0  0  0  0  0  0
   -2.1232   -2.2423    2.4042 C   0  0  0  0  0  0  0  0  0  0  0  0
   -0.3048   -4.0823    2.0245 H   0  0  0  0  0  0  0  0  0  0  0  0
   -1.3830   -2.3724    0.3801 H   0  0  0  0  0  0  0  0  0  0  0  0
   -1.7534   -2.0527    3.4185 H   0  0  0  0  0  0  0  0  0  0  0  0
   -2.8936   -1.4947    2.1882 H   0  0  0  0  0  0  0  0  0  0  0  0
   -2.5964   -3.2301    2.4022 H   0  0  0  0  0  0  0  0  0  0  0  0
   -1.0412    0.1517    0.7482 N   0  0  0  0  0  0  0  0  0  0  0  0
   -0.6079    1.5223    0.6467 C   0  0  2  0  0  0  0  0  0  0  0  0
   -1.6568    2.2956   -0.1514 C   0  0  0  0  0  0  0  0  0  0  0  0
   -2.4369    3.0920    0.3668 O   0  0  0  0  0  0  0  0  0  0  0  0
    0.8133    1.6644    0.0505 C   0  0  2  0  0  0  0  0  0  0  0  0
    1.8891    1.0018    0.9394 C   0  0  0  0  0  0  0  0  0  0  0  0
    1.1298    3.1423   -0.2144 C   0  0  0  0  0  0  0  0  0  0  0  0
    3.2495    0.8884    0.2634 C   0  0  0  0  0  0  0  0  0  0  0  0
   -1.9022   -0.1128    0.2753 H   0  0  0  0  0  0  0  0  0  0  0  0
   -0.6201    1.9173    1.6706 H   0  0  0  0  0  0  0  0  0  0  0  0
    0.8247    1.1548   -0.9223 H   0  0  0  0  0  0  0  0  0  0  0  0
    2.0214    1.5890    1.8553 H   0  0  0  0  0  0  0  0  0  0  0  0
    1.5661    0.0005    1.2484 H   0  0  0  0  0  0  0  0  0  0  0  0
    1.1346    3.7130    0.7205 H   0  0  0  0  0  0  0  0  0  0  0  0
    2.1192    3.2607   -0.6667 H   0  0  0  0  0  0  0  0  0  0  0  0
    0.3941    3.5965   -0.8862 H   0  0  0  0  0  0  0  0  0  0  0  0
    3.1920    0.3109   -0.6636 H   0  0  0  0  0  0  0  0  0  0  0  0
    3.9551    0.3767    0.9261 H   0  0  0  0  0  0  0  0  0  0  0  0
    3.6583    1.8774    0.0337 H   0  0  0  0  0  0  0  0  0  0  0  0
   -1.5940    2.0146   -1.5088 N   0  0  0  0  0  0  0  0  0  0  0  0
   -2.4631    2.6286   -2.4867 C   0  0  2  0  0  0  0  0  0  0  0  0
   -1.7338    2.6386   -3.8237 C   0  0  0  0  0  0  0  0  0  0  0  0
   -0.5102    2.5721   -3.9208 O   0  0  0  0  0  0  0  0  0  0  0  0
   -2.8553    4.0379   -2.0709 C   0  0  0  0  0  0  0  0  0  0  0  0
   -0.9028    1.3439   -1.8313 H   0  0  0  0  0  0  0  0  0  0  0  0
   -3.3537    1.9950   -2.5605 H   0  0  0  0  0  0  0  0  0  0  0  0
   -1.9760    4.6875   -1.9917 H   0  0  0  0  0  0  0  0  0  0  0  0
   -3.5365    4.4912   -2.7986 H   0  0  0  0  0  0  0  0  0  0  0  0
   -3.3532    4.0321   -1.0953 H   0  0  0  0  0  0  0  0  0  0  0  0
   -2.6073    2.7740   -4.8936 N   0  0  0  0  0  0  0  0  0  0  0  0
   -2.1582    2.8226   -6.2654 C   0  0  0  0  0  0  0  0  0  0  0  0
   -3.6079    2.8030   -4.7212 H   0  0  0  0  0  0  0  0  0  0  0  0
   -2.0055    3.8700   -6.5649 H   0  0  0  0  0  0  0  0  0  0  0  0
   -1.2105    2.2724   -6.3605 H   0  0  0  0  0  0  0  0  0  0  0  0
   -2.9164    2.3622   -6.9159 H   0  0  0  0  0  0  0  0  0  0  0  0
  1  3  1  0  0  0  0
  1  7  1  0  0  0  0
  1  2  2  0  0  0  0
 37 38  1  0  0  0  0
 38 46  1  0  0  0  0
 38 39  2  0  0  0  0
  8  9  1  0  0  0  0
  9 17  1  0  0  0  0
  9 10  2  0  0  0  0
 18 19  1  0  0  0  0
 19 36  1  0  0  0  0
 19 20  2  0  0  0  0
 22 24  1  0  0  0  0
 37 40  1  0  0  0  0
  8 11  1  0  0  0  0
 21 23  1  0  0  0  0
 46 47  1  0  0  0  0
 21 22  1  0  0  0  0
 36 37  1  0  0  0  0
  7  8  1  0  0  0  0
 18 21  1  0  0  0  0
 17 18  1  0  0  0  0
  3  4  1  0  0  0  0
  3  5  1  0  0  0  0
  3  6  1  0  0  0  0
 24 33  1  0  0  0  0
 24 34  1  0  0  0  0
 24 35  1  0  0  0  0
 40 43  1  0  0  0  0
 40 44  1  0  0  0  0
 40 45  1  0  0  0  0
 11 14  1  0  0  0  0
 11 15  1  0  0  0  0
 11 16  1  0  0  0  0
 23 30  1  0  0  0  0
 23 31  1  0  0  0  0
 23 32  1  0  0  0  0
 47 49  1  0  0  0  0
 47 50  1  0  0  0  0
 47 51  1  0  0  0  0
 22 28  1  0  0  0  0
 22 29  1  0  0  0  0
 37 42  1  0  0  0  0
  8 13  1  0  0  0  0
 18 26  1  0  0  0  0
 21 27  1  0  0  0  0
 46 48  1  0  0  0  0
  7 12  1  0  0  0  0
 36 41  1  0  0  0  0
 17 25  1  0  0  0  0
M  END
$$$$

  -OEChem-05262214473D

 51 50  0     1  0  0  0  0  0999 V2000
    1.3524   -3.0009    1.4091 C   0  0  0  0  0  0  0  0  0  0  0  0
    1.8758   -1.9880    0.9598 O   0  0  0  0  0  0  0  0  0  0  0  0
    2.2030   -4.1782    1.7536 C   0  0  0  0  0  0  0  0  0  0  0  0
    2.3264   -4.8705    0.9053 H   0  0  0  0  0  0  0  0  0  0  0  0
    3.2257   -3.8876    2.0432 H   0  0  0  0  0  0  0  0  0  0  0  0
    1.8327   -4.8004    2.5839 H   0  0  0  0  0  0  0  0  0  0  0  0
    0.0005   -3.1873    1.6465 N   0  0  0  0  0  0  0  0  0  0  0  0
   -0.9949   -2.1807    1.3864 C   0  0  2  0  0  0  0  0  0  0  0  0
   -0.3083   -0.8216    1.4164 C   0  0  0  0  0  0  0  0  0  0  0  0
    0.7533   -0.6191    2.0022 O   0  0  0  0  0  0  0  0  0  0  0  0
   -2.1232   -2.2423    2.4042 C   0  0  0  0  0  0  0  0  0  0  0  0
   -0.3048   -4.0823    2.0245 H   0  0  0  0  0  0  0  0  0  0  0  0
   -1.3830   -2.3724    0.3801 H   0  0  0  0  0  0  0  0  0  0  0  0
   -1.7534   -2.0527    3.4185 H   0  0  0  0  0  0  0  0  0  0  0  0
   -2.8936   -1.4947    2.1882 H   0  0  0  0  0  0  0  0  0  0  0  0
   -2.5964   -3.2301    2.4022 H   0  0  0  0  0  0  0  0  0  0  0  0
   -1.0412    0.1517    0.7482 N   0  0  0  0  0  0  0  0  0  0  0  0
   -0.6079    1.5223    0.6467 C   0  0  2  0  0  0  0  0  0  0  0  0
   -1.6568    2.2956   -0.1514 C   0  0  0  0  0  0  0  0  0  0  0  0
   -2.2504    3.2739    0.2980 O   0  0  0  0  0  0  0  0  0  0  0  0
    0.8133    1.6644    0.0505 C   0  0  2  0  0  0  0  0  0  0  0  0
    1.8891    1.0018    0.9394 C   0  0  0  0  0  0  0  0  0  0  0  0
    1.1298    3.1423   -0.2144 C   0  0  0  0  0  0  0  0  0  0  0  0
    3.2495    0.8884    0.2634 C   0  0  0  0  0  0  0  0  0  0  0  0
   -1.9022   -0.1128    0.2753 H   0  0  0  0  0  0  0  0  0  0  0  0
   -0.6201    1.9173    1.6706 H   0  0  0  0  0  0  0  0  0  0  0  0
    0.8247    1.1548   -0.9223 H   0  0  0  0  0  0  0  0  0  0  0  0
    2.0214    1.5890    1.8553 H   0  0  0  0  0  0  0  0  0  0  0  0
    1.5661    0.0005    1.2484 H   0  0  0  0  0  0  0  0  0  0  0  0
    1.1346    3.7130    0.7205 H   0  0  0  0  0  0  0  0  0  0  0  0
    2.1192    3.2607   -0.6667 H   0  0  0  0  0  0  0  0  0  0  0  0
    0.3941    3.5965   -0.8862 H   0  0  0  0  0  0  0  0  0  0  0  0
    3.1920    0.3109   -0.6636 H   0  0  0  0  0  0  0  0  0  0  0  0
    3.9551    0.3767    0.9261 H   0  0  0  0  0  0  0  0  0  0  0  0
    3.6583    1.8774    0.0337 H   0  0  0  0  0  0  0  0  0  0  0  0
   -1.8242    1.7836   -1.4302 N   0  0  0  0  0  0  0  0  0  0  0  0
   -2.7419    2.3449   -2.3952 C   0  0  2  0  0  0  0  0  0  0  0  0
   -2.2159    2.0219   -3.7876 C   0  0  0  0  0  0  0  0  0  0  0  0
   -1.0365    1.7608   -4.0152 O   0  0  0  0  0  0  0  0  0  0  0  0
   -2.8937    3.8462   -2.2063 C   0  0  0  0  0  0  0  0  0  0  0  0
   -1.2743    0.9739   -1.7016 H   0  0  0  0  0  0  0  0  0  0  0  0
   -3.7051    1.8458   -2.2432 H   0  0  0  0  0  0  0  0  0  0  0  0
   -1.9387    4.3634   -2.3547 H   0  0  0  0  0  0  0  0  0  0  0  0
   -3.6109    4.2654   -2.9196 H   0  0  0  0  0  0  0  0  0  0  0  0
   -3.2436    4.0783   -1.1946 H   0  0  0  0  0  0  0  0  0  0  0  0
   -3.2102    2.1019   -4.7526 N   0  0  0  0  0  0  0  0  0  0  0  0
   -2.9595    1.8518   -6.1528 C   0  0  0  0  0  0  0  0  0  0  0  0
   -4.1645    2.3063   -4.4710 H   0  0  0  0  0  0  0  0  0  0  0  0
   -2.7233    2.7997   -6.6585 H   0  0  0  0  0  0  0  0  0  0  0  0
   -2.1104    1.1602   -6.2554 H   0  0  0  0  0  0  0  0  0  0  0  0
   -3.8540    1.4048   -6.6112 H   0  0  0  0  0  0  0  0  0  0  0  0
  1  3  1  0  0  0  0
  1  7  1  0  0  0  0
  1  2  2  0  0  0  0
 37 38  1  0  0  0  0
 38 46  1  0  0  0  0
 38 39  2  0  0  0  0
  8  9  1  0  0  0  0
  9 17  1  0  0  0  0
  9 10  2  0  0  0  0
 18 19  1  0  0  0  0
 19 36  1  0  0  0  0
 19 20  2  0  0  0  0
 22 24  1  0  0  0  0
 37 40  1  0  0  0  0
  8 11  1  0  0  0  0
 21 23  1  0  0  0  0
 46 47  1  0  0  0  0
 21 22  1  0  0  0  0
 36 37  1  0  0  0  0
  7  8  1  0  0  0  0
 18 21  1  0  0  0  0
 17 18  1  0  0  0  0
  3  4  1  0  0  0  0
  3  5  1  0  0  0  0
  3  6  1  0  0  0  0
 24 33  1  0  0  0  0
 24 34  1  0  0  0  0
 24 35  1  0  0  0  0
 40 43  1  0  0  0  0
 40 44  1  0  0  0  0
 40 45  1  0  0  0  0
 11 14  1  0  0  0  0
 11 15  1  0  0  0  0
 11 16  1  0  0  0  0
 23 30  1  0  0  0  0
 23 31  1  0  0  0  0
 23 32  1  0  0  0  0
 47 49  1  0  0  0  0
 47 50  1  0  0  0  0
 47 51  1  0  0  0  0
 22 28  1  0  0  0  0
 22 29  1  0  0  0  0
 37 42  1  0  0  0  0
  8 13  1  0  0  0  0
 18 26  1  0  0  0  0
 21 27  1  0  0  0  0
 46 48  1  0  0  0  0
  7 12  1  0  0  0  0
 36 41  1  0  0  0  0
 17 25  1  0  0  0  0
M  END
$$$$

  -OEChem-05262214473D

 51 50  0     1  0  0  0  0  0999 V2000
    1.3524   -3.0009    1.4091 C   0  0  0  0  0  0  0  0  0  0  0  0
    1.8758   -1.9880    0.9598 O   0  0  0  0  0  0  0  0  0  0  0  0
    2.2030   -4.1782    1.7536 C   0  0  0  0  0  0  0  0  0  0  0  0
    2.3264   -4.8705    0.9053 H   0  0  0  0  0  0  0  0  0  0  0  0
    3.2257   -3.8876    2.0432 H   0  0  0  0  0  0  0  0  0  0  0  0
    1.8327   -4.8004    2.5839 H   0  0  0  0  0  0  0  0  0  0  0  0
    0.0005   -3.1873    1.6465 N   0  0  0  0  0  0  0  0  0  0  0  0
   -0.9949   -2.1807    1.3864 C   0  0  2  0  0  0  0  0  0  0  0  0
   -0.3083   -0.8216    1.4164 C   0  0  0  0  0  0  0  0  0  0  0  0
    0.7533   -0.6191    2.0022 O   0  0  0  0  0  0  0  0  0  0  0  0
   -2.1232   -2.2423    2.4042 C   0  0  0  0  0  0  0  0  0  0  0  0
   -0.3048   -4.0823    2.0245 H   0  0  0  0  0  0  0  0  0  0  0  0
   -1.3830   -2.3724    0.3801 H   0  0  0  0  0  0  0  0  0  0  0  0
   -1.7534   -2.0527    3.4185 H   0  0  0  0  0  0  0  0  0  0  0  0
   -2.8936   -1.4947    2.1882 H   0  0  0  0  0  0  0  0  0  0  0  0
   -2.5964   -3.2301    2.4022 H   0  0  0  0  0  0  0  0  0  0  0  0
   -1.0412    0.1517    0.7482 N   0  0  0  0  0  0  0  0  0  0  0  0
   -0.6079    1.5223    0.6467 C   0  0  2  0  0  0  0  0  0  0  0  0
   -1.6568    2.2956   -0.1514 C   0  0  0  0  0  0  0  0  0  0  0  0
   -2.0547    3.4122    0.1747 O   0  0  0  0  0  0  0  0  0  0  0  0
    0.8133    1.6644    0.0505 C   0  0  2  0  0  0  0  0  0  0  0  0
    1.8891    1.0018    0.9394 C   0  0  0  0  0  0  0  0  0  0  0  0
    1.1298    3.1423   -0.2144 C   0  0  0  0  0  0  0  0  0  0  0  0
    3.2495    0.8884    0.2634 C   0  0  0  0  0  0  0  0  0  0  0  0
   -1.9022   -0.1128    0.2753 H   0  0  0  0  0  0  0  0  0  0  0  0
   -0.6201    1.9173    1.6706 H   0  0  0  0  0  0  0  0  0  0  0  0
    0.8247    1.1548   -0.9223 H   0  0  0  0  0  0  0  0  0  0  0  0
    2.0214    1.5890    1.8553 H   0  0  0  0  0  0  0  0  0  0  0  0
    1.5661    0.0005    1.2484 H   0  0  0  0  0  0  0  0  0  0  0  0
    1.1346    3.7130    0.7205 H   0  0  0  0  0  0  0  0  0  0  0  0
    2.1192    3.2607   -0.6667 H   0  0  0  0  0  0  0  0  0  0  0  0
    0.3941    3.5965   -0.8862 H   0  0  0  0  0  0  0  0  0  0  0  0
    3.1920    0.3109   -0.6636 H   0  0  0  0  0  0  0  0  0  0  0  0
    3.9551    0.3767    0.9261 H   0  0  0  0  0  0  0  0  0  0  0  0
    3.6583    1.8774    0.0337 H   0  0  0  0  0  0  0  0  0  0  0  0
   -2.0674    1.6055   -1.2831 N   0  0  0  0  0  0  0  0  0  0  0  0
   -3.0375    2.1248   -2.2200 C   0  0  2  0  0  0  0  0  0  0  0  0
   -2.7602    1.4978   -3.5800 C   0  0  0  0  0  0  0  0  0  0  0  0
   -1.6668    1.0316   -3.8933 O   0  0  0  0  0  0  0  0  0  0  0  0
   -2.9743    3.6422   -2.2979 C   0  0  0  0  0  0  0  0  0  0  0  0
   -1.6662    0.6897   -1.4619 H   0  0  0  0  0  0  0  0  0  0  0  0
   -4.0232    1.8055   -1.8642 H   0  0  0  0  0  0  0  0  0  0  0  0
   -1.9940    3.9809   -2.6526 H   0  0  0  0  0  0  0  0  0  0  0  0
   -3.7290    4.0359   -2.9867 H   0  0  0  0  0  0  0  0  0  0  0  0
   -3.1445    4.0904   -1.3131 H   0  0  0  0  0  0  0  0  0  0  0  0
   -3.8649    1.5592   -4.4179 N   0  0  0  0  0  0  0  0  0  0  0  0
   -3.8501    1.0425   -5.7666 C   0  0  0  0  0  0  0  0  0  0  0  0
   -4.7365    1.9462   -4.0682 H   0  0  0  0  0  0  0  0  0  0  0  0
   -3.5736    1.8463   -6.4647 H   0  0  0  0  0  0  0  0  0  0  0  0
   -3.1162    0.2262   -5.8383 H   0  0  0  0  0  0  0  0  0  0  0  0
   -4.8492    0.6610   -6.0239 H   0  0  0  0  0  0  0  0  0  0  0  0
  1  3  1  0  0  0  0
  1  7  1  0  0  0  0
  1  2  2  0  0  0  0
 37 38  1  0  0  0  0
 38 46  1  0  0  0  0
 38 39  2  0  0  0  0
  8  9  1  0  0  0  0
  9 17  1  0  0  0  0
  9 10  2  0  0  0  0
 18 19  1  0  0  0  0
 19 36  1  0  0  0  0
 19 20  2  0  0  0  0
 22 24  1  0  0  0  0
 37 40  1  0  0  0  0
  8 11  1  0  0  0  0
 21 23  1  0  0  0  0
 46 47  1  0  0  0  0
 21 22  1  0  0  0  0
 36 37  1  0  0  0  0
  7  8  1  0  0  0  0
 18 21  1  0  0  0  0
 17 18  1  0  0  0  0
  3  4  1  0  0  0  0
  3  5  1  0  0  0  0
  3  6  1  0  0  0  0
 24 33  1  0  0  0  0
 24 34  1  0  0  0  0
 24 35  1  0  0  0  0
 40 43  1  0  0  0  0
 40 44  1  0  0  0  0
 40 45  1  0  0  0  0
 11 14  1  0  0  0  0
 11 15  1  0  0  0  0
 11 16  1  0  0  0  0
 23 30  1  0  0  0  0
 23 31  1  0  0  0  0
 23 32  1  0  0  0  0
 47 49  1  0  0  0  0
 47 50  1  0  0  0  0
 47 51  1  0  0  0  0
 22 28  1  0  0  0  0
 22 29  1  0  0  0  0
 37 42  1  0  0  0  0
  8 13  1  0  0  0  0
 18 26  1  0  0  0  0
 21 27  1  0  0  0  0
 46 48  1  0  0  0  0
  7 12  1  0  0  0  0
 36 41  1  0  0  0  0
 17 25  1  0  0  0  0
M  END
$$$$

  -OEChem-05262214473D

 51 50  0     1  0  0  0  0  0999 V2000
    1.3524   -3.0009    1.4091 C   0  0  0  0  0  0  0  0  0  0  0  0
    1.8758   -1.9880    0.9598 O   0  0  0  0  0  0  0  0  0  0  0  0
    2.2030   -4.1782    1.7536 C   0  0  0  0  0  0  0  0  0  0  0  0
    2.3264   -4.8705    0.9053 H   0  0  0  0  0  0  0  0  0  0  0  0
    3.2257   -3.8876    2.0432 H   0  0  0  0  0  0  0  0  0  0  0  0
    1.8327   -4.8004    2.5839 H   0  0  0  0  0  0  0  0  0  0  0  0
    0.0005   -3.1873    1.6465 N   0  0  0  0  0  0  0  0  0  0  0  0
   -0.9949   -2.1807    1.3864 C   0  0  2  0  0  0  0  0  0  0  0  0
   -0.3083   -0.8216    1.4164 C   0  0  0  0  0  0  0  0  0  0  0  0
    0.7533   -0.6191    2.0022 O   0  0  0  0  0  0  0  0  0  0  0  0
   -2.1232   -2.2423    2.4042 C   0  0  0  0  0  0  0  0  0  0  0  0
   -0.3048   -4.0823    2.0245 H   0  0  0  0  0  0  0  0  0  0  0  0
   -1.3830   -2.3724    0.3801 H   0  0  0  0  0  0  0  0  0  0  0  0
   -1.7534   -2.0527    3.4185 H   0  0  0  0  0  0  0  0  0  0  0  0
   -2.8936   -1.4947    2.1882 H   0  0  0  0  0  0  0  0  0  0  0  0
   -2.5964   -3.2301    2.4022 H   0  0  0  0  0  0  0  0  0  0  0  0
   -1.0412    0.1517    0.7482 N   0  0  0  0  0  0  0  0  0  0  0  0
   -0.6079    1.5223    0.6467 C   0  0  2  0  0  0  0  0  0  0  0  0
   -1.6568    2.2956   -0.1514 C   0  0  0  0  0  0  0  0  0  0  0  0
   -1.8631    3.4974    0.0054 O   0  0  0  0  0  0  0  0  0  0  0  0
    0.8133    1.6644    0.0505 C   0  0  2  0  0  0  0  0  0  0  0  0
    1.8891    1.0018    0.9394 C   0  0  0  0  0  0  0  0  0  0  0  0
    1.1298    3.1423   -0.2144 C   0  0  0  0  0  0  0  0  0  0  0  0
    3.2495    0.8884    0.2634 C   0  0  0  0  0  0  0  0  0  0  0  0
   -1.9022   -0.1128    0.2753 H   0  0  0  0  0  0  0  0  0  0  0  0
   -0.6201    1.9173    1.6706 H   0  0  0  0  0  0  0  0  0  0  0  0
    0.8247    1.1548   -0.9223 H   0  0  0  0  0  0  0  0  0  0  0  0
    2.0214    1.5890    1.8553 H   0  0  0  0  0  0  0  0  0  0  0  0
    1.5661    0.0005    1.2484 H   0  0  0  0  0  0  0  0  0  0  0  0
    1.1346    3.7130    0.7205 H   0  0  0  0  0  0  0  0  0  0  0  0
    2.1192    3.2607   -0.6667 H   0  0  0  0  0  0  0  0  0  0  0  0
    0.3941    3.5965   -0.8862 H   0  0  0  0  0  0  0  0  0  0  0  0
    3.1920    0.3109   -0.6636 H   0  0  0  0  0  0  0  0  0  0  0  0
    3.9551    0.3767    0.9261 H   0  0  0  0  0  0  0  0  0  0  0  0
    3.6583    1.8774    0.0337 H   0  0  0  0  0  0  0  0  0  0  0  0
   -2.3072    1.4925   -1.0775 N   0  0  0  0  0  0  0  0  0  0  0  0
   -3.3299    1.9832   -1.9729 C   0  0  2  0  0  0  0  0  0  0  0  0
   -3.3296    1.1020   -3.2151 C   0  0  0  0  0  0  0  0  0  0  0  0
   -2.3583    0.4340   -3.5635 O   0  0  0  0  0  0  0  0  0  0  0  0
   -3.0918    3.4397   -2.3397 C   0  0  0  0  0  0  0  0  0  0  0  0
   -2.0517    0.5108   -1.1285 H   0  0  0  0  0  0  0  0  0  0  0  0
   -4.2862    1.8770   -1.4493 H   0  0  0  0  0  0  0  0  0  0  0  0
   -2.1382    3.5659   -2.8651 H   0  0  0  0  0  0  0  0  0  0  0  0
   -3.8830    3.8183   -2.9952 H   0  0  0  0  0  0  0  0  0  0  0  0
   -3.0626    4.0677   -1.4427 H   0  0  0  0  0  0  0  0  0  0  0  0
   -4.5268    1.1829   -3.9126 N   0  0  0  0  0  0  0  0  0  0  0  0
   -4.7691    0.4497   -5.1331 C   0  0  0  0  0  0  0  0  0  0  0  0
   -5.2849    1.7472   -3.5402 H   0  0  0  0  0  0  0  0  0  0  0  0
   -4.4984    1.0748   -5.9968 H   0  0  0  0  0  0  0  0  0  0  0  0
   -4.1594   -0.4659   -5.1378 H   0  0  0  0  0  0  0  0  0  0  0  0
   -5.8341    0.1814   -5.1942 H   0  0  0  0  0  0  0  0  0  0  0  0
  1  3  1  0  0  0  0
  1  7  1  0  0  0  0
  1  2  2  0  0  0  0
 37 38  1  0  0  0  0
 38 46  1  0  0  0  0
 38 39  2  0  0  0  0
  8  9  1  0  0  0  0
  9 17  1  0  0  0  0
  9 10  2  0  0  0  0
 18 19  1  0  0  0  0
 19 36  1  0  0  0  0
 19 20  2  0  0  0  0
 22 24  1  0  0  0  0
 37 40  1  0  0  0  0
  8 11  1  0  0  0  0
 21 23  1  0  0  0  0
 46 47  1  0  0  0  0
 21 22  1  0  0  0  0
 36 37  1  0  0  0  0
  7  8  1  0  0  0  0
 18 21  1  0  0  0  0
 17 18  1  0  0  0  0
  3  4  1  0  0  0  0
  3  5  1  0  0  0  0
  3  6  1  0  0  0  0
 24 33  1  0  0  0  0
 24 34  1  0  0  0  0
 24 35  1  0  0  0  0
 40 43  1  0  0  0  0
 40 44  1  0  0  0  0
 40 45  1  0  0  0  0
 11 14  1  0  0  0  0
 11 15  1  0  0  0  0
 11 16  1  0  0  0  0
 23 30  1  0  0  0  0
 23 31  1  0  0  0  0
 23 32  1  0  0  0  0
 47 49  1  0  0  0  0
 47 50  1  0  0  0  0
 47 51  1  0  0  0  0
 22 28  1  0  0  0  0
 22 29  1  0  0  0  0
 37 42  1  0  0  0  0
  8 13  1  0  0  0  0
 18 26  1  0  0  0  0
 21 27  1  0  0  0  0
 46 48  1  0  0  0  0
  7 12  1  0  0  0  0
 36 41  1  0  0  0  0
 17 25  1  0  0  0  0
M  END
$$$$

  -OEChem-05262214473D

 51 50  0     1  0  0  0  0  0999 V2000
    1.3524   -3.0009    1.4091 C   0  0  0  0  0  0  0  0  0  0  0  0
    1.8758   -1.9880    0.9598 O   0  0  0  0  0  0  0  0  0  0  0  0
    2.2030   -4.1782    1.7536 C   0  0  0  0  0  0  0  0  0  0  0  0
    2.3264   -4.8705    0.9053 H   0  0  0  0  0  0  0  0  0  0  0  0
    3.2257   -3.8876    2.0432 H   0  0  0  0  0  0  0  0  0  0  0  0
    1.8327   -4.8004    2.5839 H   0  0  0  0  0  0  0  0  0  0  0  0
    0.0005   -3.1873    1.6465 N   0  0  0  0  0  0  0  0  0  0  0  0
   -0.9949   -2.1807    1.3864 C   0  0  2  0  0  0  0  0  0  0  0  0
   -0.3083   -0.8216    1.4164 C   0  0  0  0  0  0  0  0  0  0  0  0
    0.7533   -0.6191    2.0022 O   0  0  0  0  0  0  0  0  0  0  0  0
   -2.1232   -2.2423    2.4042 C   0  0  0  0  0  0  0  0  0  0  0  0
   -0.3048   -4.0823    2.0245 H   0  0  0  0  0  0  0  0  0  0  0  0
   -1.3830   -2.3724    0.3801 H   0  0  0  0  0  0  0  0  0  0  0  0
   -1.7534   -2.0527    3.4185 H   0  0  0  0  0  0  0  0  0  0  0  0
   -2.8936   -1.4947    2.1882 H   0  0  0  0  0  0  0  0  0  0  0  0
   -2.5964   -3.2301    2.4022 H   0  0  0  0  0  0  0  0  0  0  0  0
   -1.0412    0.1517    0.7482 N   0  0  0  0  0  0  0  0  0  0  0  0
   -0.6079    1.5223    0.6467 C   0  0  2  0  0  0  0  0  0  0  0  0
   -1.6568    2.2956   -0.1514 C   0  0  0  0  0  0  0  0  0  0  0  0
   -1.6886    3.5237   -0.1983 O   0  0  0  0  0  0  0  0  0  0  0  0
    0.8133    1.6644    0.0505 C   0  0  2  0  0  0  0  0  0  0  0  0
    1.8891    1.0018    0.9394 C   0  0  0  0  0  0  0  0  0  0  0  0
    1.1298    3.1423   -0.2144 C   0  0  0  0  0  0  0  0  0  0  0  0
    3.2495    0.8884    0.2634 C   0  0  0  0  0  0  0  0  0  0  0  0
   -1.9022   -0.1128    0.2753 H   0  0  0  0  0  0  0  0  0  0  0  0
   -0.6201    1.9173    1.6706 H   0  0  0  0  0  0  0  0  0  0  0  0
    0.8247    1.1548   -0.9223 H   0  0  0  0  0  0  0  0  0  0  0  0
    2.0214    1.5890    1.8553 H   0  0  0  0  0  0  0  0  0  0  0  0
    1.5661    0.0005    1.2484 H   0  0  0  0  0  0  0  0  0  0  0  0
    1.1346    3.7130    0.7205 H   0  0  0  0  0  0  0  0  0  0  0  0
    2.1192    3.2607   -0.6667 H   0  0  0  0  0  0  0  0  0  0  0  0
    0.3941    3.5965   -0.8862 H   0  0  0  0  0  0  0  0  0  0  0  0
    3.1920    0.3109   -0.6636 H   0  0  0  0  0  0  0  0  0  0  0  0
    3.9551    0.3767    0.9261 H   0  0  0  0  0  0  0  0  0  0  0  0
    3.6583    1.8774    0.0337 H   0  0  0  0  0  0  0  0  0  0  0  0
   -2.5271    1.4523   -0.8274 N   0  0  0  0  0  0  0  0  0  0  0  0
   -3.5991    1.9299   -1.6708 C   0  0  2  0  0  0  0  0  0  0  0  0
   -3.8854    0.8615   -2.7178 C   0  0  0  0  0  0  0  0  0  0  0  0
   -3.0638    0.0089   -3.0481 O   0  0  0  0  0  0  0  0  0  0  0  0
   -3.2381    3.2527   -2.3286 C   0  0  0  0  0  0  0  0  0  0  0  0
   -2.4046    0.4493   -0.7243 H   0  0  0  0  0  0  0  0  0  0  0  0
   -4.4763    2.0553   -1.0268 H   0  0  0  0  0  0  0  0  0  0  0  0
   -2.3613    3.1468   -2.9779 H   0  0  0  0  0  0  0  0  0  0  0  0
   -4.0622    3.6273   -2.9446 H   0  0  0  0  0  0  0  0  0  0  0  0
   -3.0036    4.0117   -1.5745 H   0  0  0  0  0  0  0  0  0  0  0  0
   -5.1508    0.9987   -3.2709 N   0  0  0  0  0  0  0  0  0  0  0  0
   -5.6540    0.1139   -4.2955 C   0  0  0  0  0  0  0  0  0  0  0  0
   -5.7723    1.7230   -2.9231 H   0  0  0  0  0  0  0  0  0  0  0  0
   -5.4347    0.5376   -5.2867 H   0  0  0  0  0  0  0  0  0  0  0  0
   -5.1689   -0.8689   -4.2016 H   0  0  0  0  0  0  0  0  0  0  0  0
   -6.7416   -0.0014   -4.1786 H   0  0  0  0  0  0  0  0  0  0  0  0
  1  3  1  0  0  0  0
  1  7  1  0  0  0  0
  1  2  2  0  0  0  0
 37 38  1  0  0  0  0
 38 46  1  0  0  0  0
 38 39  2  0  0  0  0
  8  9  1  0  0  0  0
  9 17  1  0  0  0  0
  9 10  2  0  0  0  0
 18 19  1  0  0  0  0
 19 36  1  0  0  0  0
 19 20  2  0  0  0  0
 22 24  1  0  0  0  0
 37 40  1  0  0  0  0
  8 11  1  0  0  0  0
 21 23  1  0  0  0  0
 46 47  1  0  0  0  0
 21 22  1  0  0  0  0
 36 37  1  0  0  0  0
  7  8  1  0  0  0  0
 18 21  1  0  0  0  0
 17 18  1  0  0  0  0
  3  4  1  0  0  0  0
  3  5  1  0  0  0  0
  3  6  1  0  0  0  0
 24 33  1  0  0  0  0
 24 34  1  0  0  0  0
 24 35  1  0  0  0  0
 40 43  1  0  0  0  0
 40 44  1  0  0  0  0
 40 45  1  0  0  0  0
 11 14  1  0  0  0  0
 11 15  1  0  0  0  0
 11 16  1  0  0  0  0
 23 30  1  0  0  0  0
 23 31  1  0  0  0  0
 23 32  1  0  0  0  0
 47 49  1  0  0  0  0
 47 50  1  0  0  0  0
 47 51  1  0  0  0  0
 22 28  1  0  0  0  0
 22 29  1  0  0  0  0
 37 42  1  0  0  0  0
  8 13  1  0  0  0  0
 18 26  1  0  0  0  0
 21 27  1  0  0  0  0
 46 48  1  0  0  0  0
  7 12  1  0  0  0  0
 36 41  1  0  0  0  0
 17 25  1  0  0  0  0
M  END
$$$$

  -OEChem-05262214473D

 51 50  0     1  0  0  0  0  0999 V2000
    1.3524   -3.0009    1.4091 C   0  0  0  0  0  0  0  0  0  0  0  0
    1.8758   -1.9880    0.9598 O   0  0  0  0  0  0  0  0  0  0  0  0
    2.2030   -4.1782    1.7536 C   0  0  0  0  0  0  0  0  0  0  0  0
    2.3264   -4.8705    0.9053 H   0  0  0  0  0  0  0  0  0  0  0  0
    3.2257   -3.8876    2.0432 H   0  0  0  0  0  0  0  0  0  0  0  0
    1.8327   -4.8004    2.5839 H   0  0  0  0  0  0  0  0  0  0  0  0
    0.0005   -3.1873    1.6465 N   0  0  0  0  0  0  0  0  0  0  0  0
   -0.9949   -2.1807    1.3864 C   0  0  2  0  0  0  0  0  0  0  0  0
   -0.3083   -0.8216    1.4164 C   0  0  0  0  0  0  0  0  0  0  0  0
    0.7533   -0.6191    2.0022 O   0  0  0  0  0  0  0  0  0  0  0  0
   -2.1232   -2.2423    2.4042 C   0  0  0  0  0  0  0  0  0  0  0  0
   -0.3048   -4.0823    2.0245 H   0  0  0  0  0  0  0  0  0  0  0  0
   -1.3830   -2.3724    0.3801 H   0  0  0  0  0  0  0  0  0  0  0  0
   -1.7534   -2.0527    3.4185 H   0  0  0  0  0  0  0  0  0  0  0  0
   -2.8936   -1.4947    2.1882 H   0  0  0  0  0  0  0  0  0  0  0  0
   -2.5964   -3.2301    2.4022 H   0  0  0  0  0  0  0  0  0  0  0  0
   -1.0412    0.1517    0.7482 N   0  0  0  0  0  0  0  0  0  0  0  0
   -0.6079    1.5223    0.6467 C   0  0  2  0  0  0  0  0  0  0  0  0
   -1.6568    2.2956   -0.1514 C   0  0  0  0  0  0  0  0  0  0  0  0
   -1.5433    3.4893   -0.4226 O   0  0  0  0  0  0  0  0  0  0  0  0
    0.8133    1.6644    0.0505 C   0  0  2  0  0  0  0  0  0  0  0  0
    1.8891    1.0018    0.9394 C   0  0  0  0  0  0  0  0  0  0  0  0
    1.1298    3.1423   -0.2144 C   0  0  0  0  0  0  0  0  0  0  0  0
    3.2495    0.8884    0.2634 C   0  0  0  0  0  0  0  0  0  0  0  0
   -1.9022   -0.1128    0.2753 H   0  0  0  0  0  0  0  0  0  0  0  0
   -0.6201    1.9173    1.6706 H   0  0  0  0  0  0  0  0  0  0  0  0
    0.8247    1.1548   -0.9223 H   0  0  0  0  0  0  0  0  0  0  0  0
    2.0214    1.5890    1.8553 H   0  0  0  0  0  0  0  0  0  0  0  0
    1.5661    0.0005    1.2484 H   0  0  0  0  0  0  0  0  0  0  0  0
    1.1346    3.7130    0.7205 H   0  0  0  0  0  0  0  0  0  0  0  0
    2.1192    3.2607   -0.6667 H   0  0  0  0  0  0  0  0  0  0  0  0
    0.3941    3.5965   -0.8862 H   0  0  0  0  0  0  0  0  0  0  0  0
    3.1920    0.3109   -0.6636 H   0  0  0  0  0  0  0  0  0  0  0  0
    3.9551    0.3767    0.9261 H   0  0  0  0  0  0  0  0  0  0  0  0
    3.6583    1.8774    0.0337 H   0  0  0  0  0  0  0  0  0  0  0  0
   -2.7122    1.4876   -0.5499 N   0  0  0  0  0  0  0  0  0  0  0  0
   -3.8267    1.9685   -1.3343 C   0  0  2  0  0  0  0  0  0  0  0  0
   -4.3896    0.7927   -2.1219 C   0  0  0  0  0  0  0  0  0  0  0  0
   -3.7353   -0.2148   -2.3824 O   0  0  0  0  0  0  0  0  0  0  0  0
   -3.4033    3.0937   -2.2655 C   0  0  0  0  0  0  0  0  0  0  0  0
   -2.7009    0.5094   -0.2766 H   0  0  0  0  0  0  0  0  0  0  0  0
   -4.5805    2.3283   -0.6254 H   0  0  0  0  0  0  0  0  0  0  0  0
   -2.6483    2.7521   -2.9831 H   0  0  0  0  0  0  0  0  0  0  0  0
   -4.2545    3.4761   -2.8384 H   0  0  0  0  0  0  0  0  0  0  0  0
   -2.9714    3.9262   -1.6997 H   0  0  0  0  0  0  0  0  0  0  0  0
   -5.6945    1.0192   -2.5366 N   0  0  0  0  0  0  0  0  0  0  0  0
   -6.4444    0.0579   -3.3110 C   0  0  0  0  0  0  0  0  0  0  0  0
   -6.1657    1.8751   -2.2588 H   0  0  0  0  0  0  0  0  0  0  0  0
   -6.3188    0.2716   -4.3827 H   0  0  0  0  0  0  0  0  0  0  0  0
   -6.0759   -0.9554   -3.0936 H   0  0  0  0  0  0  0  0  0  0  0  0
   -7.5099    0.1252   -3.0462 H   0  0  0  0  0  0  0  0  0  0  0  0
  1  3  1  0  0  0  0
  1  7  1  0  0  0  0
  1  2  2  0  0  0  0
 37 38  1  0  0  0  0
 38 46  1  0  0  0  0
 38 39  2  0  0  0  0
  8  9  1  0  0  0  0
  9 17  1  0  0  0  0
  9 10  2  0  0  0  0
 18 19  1  0  0  0  0
 19 36  1  0  0  0  0
 19 20  2  0  0  0  0
 22 24  1  0  0  0  0
 37 40  1  0  0  0  0
  8 11  1  0  0  0  0
 21 23  1  0  0  0  0
 46 47  1  0  0  0  0
 21 22  1  0  0  0  0
 36 37  1  0  0  0  0
  7  8  1  0  0  0  0
 18 21  1  0  0  0  0
 17 18  1  0  0  0  0
  3  4  1  0  0  0  0
  3  5  1  0  0  0  0
  3  6  1  0  0  0  0
 24 33  1  0  0  0  0
 24 34  1  0  0  0  0
 24 35  1  0  0  0  0
 40 43  1  0  0  0  0
 40 44  1  0  0  0  0
 40 45  1  0  0  0  0
 11 14  1  0  0  0  0
 11 15  1  0  0  0  0
 11 16  1  0  0  0  0
 23 30  1  0  0  0  0
 23 31  1  0  0  0  0
 23 32  1  0  0  0  0
 47 49  1  0  0  0  0
 47 50  1  0  0  0  0
 47 51  1  0  0  0  0
 22 28  1  0  0  0  0
 22 29  1  0  0  0  0
 37 42  1  0  0  0  0
  8 13  1  0  0  0  0
 18 26  1  0  0  0  0
 21 27  1  0  0  0  0
 46 48  1  0  0  0  0
  7 12  1  0  0  0  0
 36 41  1  0  0  0  0
 17 25  1  0  0  0  0
M  END
$$$$

  -OEChem-05262214473D

 51 50  0     1  0  0  0  0  0999 V2000
    1.3524   -3.0009    1.4091 C   0  0  0  0  0  0  0  0  0  0  0  0
    1.8758   -1.9880    0.9598 O   0  0  0  0  0  0  0  0  0  0  0  0
    2.2030   -4.1782    1.7536 C   0  0  0  0  0  0  0  0  0  0  0  0
    2.3264   -4.8705    0.9053 H   0  0  0  0  0  0  0  0  0  0  0  0
    3.2257   -3.8876    2.0432 H   0  0  0  0  0  0  0  0  0  0  0  0
    1.8327   -4.8004    2.5839 H   0  0  0  0  0  0  0  0  0  0  0  0
    0.0005   -3.1873    1.6465 N   0  0  0  0  0  0  0  0  0  0  0  0
   -0.9949   -2.1807    1.3864 C   0  0  2  0  0  0  0  0  0  0  0  0
   -0.3083   -0.8216    1.4164 C   0  0  0  0  0  0  0  0  0  0  0  0
    0.7533   -0.6191    2.0022 O   0  0  0  0  0  0  0  0  0  0  0  0
   -2.1232   -2.2423    2.4042 C   0  0  0  0  0  0  0  0  0  0  0  0
   -0.3048   -4.0823    2.0245 H   0  0  0  0  0  0  0  0  0  0  0  0
   -1.3830   -2.3724    0.3801 H   0  0  0  0  0  0  0  0  0  0  0  0
   -1.7534   -2.0527    3.4185 H   0  0  0  0  0  0  0  0  0  0  0  0
   -2.8936   -1.4947    2.1882 H   0  0  0  0  0  0  0  0  0  0  0  0
   -2.5964   -3.2301    2.4022 H   0  0  0  0  0  0  0  0  0  0  0  0
   -1.0412    0.1517    0.7482 N   0  0  0  0  0  0  0  0  0  0  0  0
   -0.6079    1.5223    0.6467 C   0  0  2  0  0  0  0  0  0  0  0  0
   -1.6568    2.2956   -0.1514 C   0  0  0  0  0  0  0  0  0  0  0  0
   -1.4369    3.3966   -0.6522 O   0  0  0  0  0  0  0  0  0  0  0  0
    0.8133    1.6644    0.0505 C   0  0  2  0  0  0  0  0  0  0  0  0
    1.8891    1.0018    0.9394 C   0  0  0  0  0  0  0  0  0  0  0  0
    1.1298    3.1423   -0.2144 C   0  0  0  0  0  0  0  0  0  0  0  0
    3.2495    0.8884    0.2634 C   0  0  0  0  0  0  0  0  0  0  0  0
   -1.9022   -0.1128    0.2753 H   0  0  0  0  0  0  0  0  0  0  0  0
   -0.6201    1.9173    1.6706 H   0  0  0  0  0  0  0  0  0  0  0  0
    0.8247    1.1548   -0.9223 H   0  0  0  0  0  0  0  0  0  0  0  0
    2.0214    1.5890    1.8553 H   0  0  0  0  0  0  0  0  0  0  0  0
    1.5661    0.0005    1.2484 H   0  0  0  0  0  0  0  0  0  0  0  0
    1.1346    3.7130    0.7205 H   0  0  0  0  0  0  0  0  0  0  0  0
    2.1192    3.2607   -0.6667 H   0  0  0  0  0  0  0  0  0  0  0  0
    0.3941    3.5965   -0.8862 H   0  0  0  0  0  0  0  0  0  0  0  0
    3.1920    0.3109   -0.6636 H   0  0  0  0  0  0  0  0  0  0  0  0
    3.9551    0.3767    0.9261 H   0  0  0  0  0  0  0  0  0  0  0  0
    3.6583    1.8774    0.0337 H   0  0  0  0  0  0  0  0  0  0  0  0
   -2.8499    1.5960   -0.2639 N   0  0  0  0  0  0  0  0  0  0  0  0
   -3.9973    2.0963   -0.9862 C   0  0  2  0  0  0  0  0  0  0  0  0
   -4.8078    0.9002   -1.4680 C   0  0  0  0  0  0  0  0  0  0  0  0
   -4.3269   -0.2219   -1.6118 O   0  0  0  0  0  0  0  0  0  0  0  0
   -3.5761    2.9737   -2.1547 C   0  0  0  0  0  0  0  0  0  0  0  0
   -2.9204    0.6871    0.1838 H   0  0  0  0  0  0  0  0  0  0  0  0
   -4.5916    2.6773   -0.2726 H   0  0  0  0  0  0  0  0  0  0  0  0
   -2.9796    2.4087   -2.8804 H   0  0  0  0  0  0  0  0  0  0  0  0
   -4.4468    3.3750   -2.6837 H   0  0  0  0  0  0  0  0  0  0  0  0
   -2.9682    3.8170   -1.8096 H   0  0  0  0  0  0  0  0  0  0  0  0
   -6.1207    1.2429   -1.7598 N   0  0  0  0  0  0  0  0  0  0  0  0
   -7.0865    0.2857   -2.2465 C   0  0  0  0  0  0  0  0  0  0  0  0
   -6.4380    2.1932   -1.5927 H   0  0  0  0  0  0  0  0  0  0  0  0
   -7.0902    0.2947   -3.3464 H   0  0  0  0  0  0  0  0  0  0  0  0
   -6.8185   -0.7195   -1.8891 H   0  0  0  0  0  0  0  0  0  0  0  0
   -8.0867    0.5525   -1.8744 H   0  0  0  0  0  0  0  0  0  0  0  0
  1  3  1  0  0  0  0
  1  7  1  0  0  0  0
  1  2  2  0  0  0  0
 37 38  1  0  0  0  0
 38 46  1  0  0  0  0
 38 39  2  0  0  0  0
  8  9  1  0  0  0  0
  9 17  1  0  0  0  0
  9 10  2  0  0  0  0
 18 19  1  0  0  0  0
 19 36  1  0  0  0  0
 19 20  2  0  0  0  0
 22 24  1  0  0  0  0
 37 40  1  0  0  0  0
  8 11  1  0  0  0  0
 21 23  1  0  0  0  0
 46 47  1  0  0  0  0
 21 22  1  0  0  0  0
 36 37  1  0  0  0  0
  7  8  1  0  0  0  0
 18 21  1  0  0  0  0
 17 18  1  0  0  0  0
  3  4  1  0  0  0  0
  3  5  1  0  0  0  0
  3  6  1  0  0  0  0
 24 33  1  0  0  0  0
 24 34  1  0  0  0  0
 24 35  1  0  0  0  0
 40 43  1  0  0  0  0
 40 44  1  0  0  0  0
 40 45  1  0  0  0  0
 11 14  1  0  0  0  0
 11 15  1  0  0  0  0
 11 16  1  0  0  0  0
 23 30  1  0  0  0  0
 23 31  1  0  0  0  0
 23 32  1  0  0  0  0
 47 49  1  0  0  0  0
 47 50  1  0  0  0  0
 47 51  1  0  0  0  0
 22 28  1  0  0  0  0
 22 29  1  0  0  0  0
 37 42  1  0  0  0  0
  8 13  1  0  0  0  0
 18 26  1  0  0  0  0
 21 27  1  0  0  0  0
 46 48  1  0  0  0  0
  7 12  1  0  0  0  0
 36 41  1  0  0  0  0
 17 25  1  0  0  0  0
M  END
$$$$

  -OEChem-05262214473D

 51 50  0     1  0  0  0  0  0999 V2000
    1.3524   -3.0009    1.4091 C   0  0  0  0  0  0  0  0  0  0  0  0
    1.8758   -1.9880    0.9598 O   0  0  0  0  0  0  0  0  0  0  0  0
    2.2030   -4.1782    1.7536 C   0  0  0  0  0  0  0  0  0  0  0  0
    2.3264   -4.8705    0.9053 H   0  0  0  0  0  0  0  0  0  0  0  0
    3.2257   -3.8876    2.0432 H   0  0  0  0  0  0  0  0  0  0  0  0
    1.8327   -4.8004    2.5839 H   0  0  0  0  0  0  0  0  0  0  0  0
    0.0005   -3.1873    1.6465 N   0  0  0  0  0  0  0  0  0  0  0  0
   -0.9949   -2.1807    1.3864 C   0  0  2  0  0  0  0  0  0  0  0  0
   -0.3083   -0.8216    1.4164 C   0  0  0  0  0  0  0  0  0  0  0  0
    0.7533   -0.6191    2.0022 O   0  0  0  0  0  0  0  0  0  0  0  0
   -2.1232   -2.2423    2.4042 C   0  0  0  0  0  0  0  0  0  0  0  0
   -0.3048   -4.0823    2.0245 H   0  0  0  0  0  0  0  0  0  0  0  0
   -1.3830   -2.3724    0.3801 H   0  0  0  0  0  0  0  0  0  0  0  0
   -1.7534   -2.0527    3.4185 H   0  0  0  0  0  0  0  0  0  0  0  0
   -2.8936   -1.4947    2.1882 H   0  0  0  0  0  0  0  0  0  0  0  0
   -2.5964   -3.2301    2.4022 H   0  0  0  0  0  0  0  0  0  0  0  0
   -1.0412    0.1517    0.7482 N   0  0  0  0  0  0  0  0  0  0  0  0
   -0.6079    1.5223    0.6467 C   0  0  2  0  0  0  0  0  0  0  0  0
   -1.6568    2.2956   -0.1514 C   0  0  0  0  0  0  0  0  0  0  0  0
   -1.3768    3.2519   -0.8714 O   0  0  0  0  0  0  0  0  0  0  0  0
    0.8133    1.6644    0.0505 C   0  0  2  0  0  0  0  0  0  0  0  0
    1.8891    1.0018    0.9394 C   0  0  0  0  0  0  0  0  0  0  0  0
    1.1298    3.1423   -0.2144 C   0  0  0  0  0  0  0  0  0  0  0  0
    3.2495    0.8884    0.2634 C   0  0  0  0  0  0  0  0  0  0  0  0
   -1.9022   -0.1128    0.2753 H   0  0  0  0  0  0  0  0  0  0  0  0
   -0.6201    1.9173    1.6706 H   0  0  0  0  0  0  0  0  0  0  0  0
    0.8247    1.1548   -0.9223 H   0  0  0  0  0  0  0  0  0  0  0  0
    2.0214    1.5890    1.8553 H   0  0  0  0  0  0  0  0  0  0  0  0
    1.5661    0.0005    1.2484 H   0  0  0  0  0  0  0  0  0  0  0  0
    1.1346    3.7130    0.7205 H   0  0  0  0  0  0  0  0  0  0  0  0
    2.1192    3.2607   -0.6667 H   0  0  0  0  0  0  0  0  0  0  0  0
    0.3941    3.5965   -0.8862 H   0  0  0  0  0  0  0  0  0  0  0  0
    3.1920    0.3109   -0.6636 H   0  0  0  0  0  0  0  0  0  0  0  0
    3.9551    0.3767    0.9261 H   0  0  0  0  0  0  0  0  0  0  0  0
    3.6583    1.8774    0.0337 H   0  0  0  0  0  0  0  0  0  0  0  0
   -2.9308    1.7702    0.0112 N   0  0  0  0  0  0  0  0  0  0  0  0
   -4.0993    2.3046   -0.6504 C   0  0  2  0  0  0  0  0  0  0  0  0
   -5.1117    1.1768   -0.8008 C   0  0  0  0  0  0  0  0  0  0  0  0
   -4.7984   -0.0118   -0.7886 O   0  0  0  0  0  0  0  0  0  0  0  0
   -3.7447    2.9008   -2.0038 C   0  0  0  0  0  0  0  0  0  0  0  0
   -3.0480    0.9701    0.6258 H   0  0  0  0  0  0  0  0  0  0  0  0
   -4.5090    3.0787    0.0076 H   0  0  0  0  0  0  0  0  0  0  0  0
   -3.3325    2.1401   -2.6768 H   0  0  0  0  0  0  0  0  0  0  0  0
   -4.6260    3.3307   -2.4911 H   0  0  0  0  0  0  0  0  0  0  0  0
   -2.9943    3.6916   -1.8968 H   0  0  0  0  0  0  0  0  0  0  0  0
   -6.4004    1.6546   -0.9934 N   0  0  0  0  0  0  0  0  0  0  0  0
   -7.5366    0.7815   -1.1746 C   0  0  0  0  0  0  0  0  0  0  0  0
   -6.5708    2.6557   -0.9702 H   0  0  0  0  0  0  0  0  0  0  0  0
   -7.6966    0.6053   -2.2486 H   0  0  0  0  0  0  0  0  0  0  0  0
   -7.3462   -0.1773   -0.6703 H   0  0  0  0  0  0  0  0  0  0  0  0
   -8.4325    1.2515   -0.7428 H   0  0  0  0  0  0  0  0  0  0  0  0
  1  3  1  0  0  0  0
  1  7  1  0  0  0  0
  1  2  2  0  0  0  0
 37 38  1  0  0  0  0
 38 46  1  0  0  0  0
 38 39  2  0  0  0  0
  8  9  1  0  0  0  0
  9 17  1  0  0  0  0
  9 10  2  0  0  0  0
 18 19  1  0  0  0  0
 19 36  1  0  0  0  0
 19 20  2  0  0  0  0
 22 24  1  0  0  0  0
 37 40  1  0  0  0  0
  8 11  1  0  0  0  0
 21 23  1  0  0  0  0
 46 47  1  0  0  0  0
 21 22  1  0  0  0  0
 36 37  1  0  0  0  0
  7  8  1  0  0  0  0
 18 21  1  0  0  0  0
 17 18  1  0  0  0  0
  3  4  1  0  0  0  0
  3  5  1  0  0  0  0
  3  6  1  0  0  0  0
 24 33  1  0  0  0  0
 24 34  1  0  0  0  0
 24 35  1  0  0  0  0
 40 43  1  0  0  0  0
 40 44  1  0  0  0  0
 40 45  1  0  0  0  0
 11 14  1  0  0  0  0
 11 15  1  0  0  0  0
 11 16  1  0  0  0  0
 23 30  1  0  0  0  0
 23 31  1  0  0  0  0
 23 32  1  0  0  0  0
 47 49  1  0  0  0  0
 47 50  1  0  0  0  0
 47 51  1  0  0  0  0
 22 28  1  0  0  0  0
 22 29  1  0  0  0  0
 37 42  1  0  0  0  0
  8 13  1  0  0  0  0
 18 26  1  0  0  0  0
 21 27  1  0  0  0  0
 46 48  1  0  0  0  0
  7 12  1  0  0  0  0
 36 41  1  0  0  0  0
 17 25  1  0  0  0  0
M  END
$$$$

  -OEChem-05262214473D

 51 50  0     1  0  0  0  0  0999 V2000
    1.3524   -3.0009    1.4091 C   0  0  0  0  0  0  0  0  0  0  0  0
    1.8758   -1.9880    0.9598 O   0  0  0  0  0  0  0  0  0  0  0  0
    2.2030   -4.1782    1.7536 C   0  0  0  0  0  0  0  0  0  0  0  0
    2.3264   -4.8705    0.9053 H   0  0  0  0  0  0  0  0  0  0  0  0
    3.2257   -3.8876    2.0432 H   0  0  0  0  0  0  0  0  0  0  0  0
    1.8327   -4.8004    2.5839 H   0  0  0  0  0  0  0  0  0  0  0  0
    0.0005   -3.1873    1.6465 N   0  0  0  0  0  0  0  0  0  0  0  0
   -0.9949   -2.1807    1.3864 C   0  0  2  0  0  0  0  0  0  0  0  0
   -0.3083   -0.8216    1.4164 C   0  0  0  0  0  0  0  0  0  0  0  0
    0.7533   -0.6191    2.0022 O   0  0  0  0  0  0  0  0  0  0  0  0
   -2.1232   -2.2423    2.4042 C   0  0  0  0  0  0  0  0  0  0  0  0
   -0.3048   -4.0823    2.0245 H   0  0  0  0  0  0  0  0  0  0  0  0
   -1.3830   -2.3724    0.3801 H   0  0  0  0  0  0  0  0  0  0  0  0
   -1.7534   -2.0527    3.4185 H   0  0  0  0  0  0  0  0  0  0  0  0
   -2.8936   -1.4947    2.1882 H   0  0  0  0  0  0  0  0  0  0  0  0
   -2.5964   -3.2301    2.4022 H   0  0  0  0  0  0  0  0  0  0  0  0
   -1.0412    0.1517    0.7482 N   0  0  0  0  0  0  0  0  0  0  0  0
   -0.6079    1.5223    0.6467 C   0  0  2  0  0  0  0  0  0  0  0  0
   -1.6568    2.2956   -0.1514 C   0  0  0  0  0  0  0  0  0  0  0  0
   -1.3670    3.0651   -1.0653 O   0  0  0  0  0  0  0  0  0  0  0  0
    0.8133    1.6644    0.0505 C   0  0  2  0  0  0  0  0  0  0  0  0
    1.8891    1.0018    0.9394 C   0  0  0  0  0  0  0  0  0  0  0  0
    1.1298    3.1423   -0.2144 C   0  0  0  0  0  0  0  0  0  0  0  0
    3.2495    0.8884    0.2634 C   0  0  0  0  0  0  0  0  0  0  0  0
   -1.9022   -0.1128    0.2753 H   0  0  0  0  0  0  0  0  0  0  0  0
   -0.6201    1.9173    1.6706 H   0  0  0  0  0  0  0  0  0  0  0  0
    0.8247    1.1548   -0.9223 H   0  0  0  0  0  0  0  0  0  0  0  0
    2.0214    1.5890    1.8553 H   0  0  0  0  0  0  0  0  0  0  0  0
    1.5661    0.0005    1.2484 H   0  0  0  0  0  0  0  0  0  0  0  0
    1.1346    3.7130    0.7205 H   0  0  0  0  0  0  0  0  0  0  0  0
    2.1192    3.2607   -0.6667 H   0  0  0  0  0  0  0  0  0  0  0  0
    0.3941    3.5965   -0.8862 H   0  0  0  0  0  0  0  0  0  0  0  0
    3.1920    0.3109   -0.6636 H   0  0  0  0  0  0  0  0  0  0  0  0
    3.9551    0.3767    0.9261 H   0  0  0  0  0  0  0  0  0  0  0  0
    3.6583    1.8774    0.0337 H   0  0  0  0  0  0  0  0  0  0  0  0
   -2.9494    1.9982    0.2565 N   0  0  0  0  0  0  0  0  0  0  0  0
   -4.1256    2.5793   -0.3497 C   0  0  2  0  0  0  0  0  0  0  0  0
   -5.2804    1.6036   -0.1656 C   0  0  0  0  0  0  0  0  0  0  0  0
   -5.1177    0.4011    0.0309 O   0  0  0  0  0  0  0  0  0  0  0  0
   -3.8976    2.8800   -1.8229 C   0  0  0  0  0  0  0  0  0  0  0  0
   -3.0751    1.3393    1.0192 H   0  0  0  0  0  0  0  0  0  0  0  0
   -4.3382    3.5050    0.1962 H   0  0  0  0  0  0  0  0  0  0  0  0
   -3.6831    1.9645   -2.3862 H   0  0  0  0  0  0  0  0  0  0  0  0
   -4.7798    3.3464   -2.2738 H   0  0  0  0  0  0  0  0  0  0  0  0
   -3.0480    3.5585   -1.9553 H   0  0  0  0  0  0  0  0  0  0  0  0
   -6.5145    2.2262   -0.2896 N   0  0  0  0  0  0  0  0  0  0  0  0
   -7.7639    1.5118   -0.1685 C   0  0  0  0  0  0  0  0  0  0  0  0
   -6.5551    3.2309   -0.4336 H   0  0  0  0  0  0  0  0  0  0  0  0
   -8.0965    1.1825   -1.1639 H   0  0  0  0  0  0  0  0  0  0  0  0
   -7.6230    0.6343    0.4798 H   0  0  0  0  0  0  0  0  0  0  0  0
   -8.5238    2.1743    0.2713 H   0  0  0  0  0  0  0  0  0  0  0  0
  1  3  1  0  0  0  0
  1  7  1  0  0  0  0
  1  2  2  0  0  0  0
 37 38  1  0  0  0  0
 38 46  1  0  0  0  0
 38 39  2  0  0  0  0
  8  9  1  0  0  0  0
  9 17  1  0  0  0  0
  9 10  2  0  0  0  0
 18 19  1  0  0  0  0
 19 36  1  0  0  0  0
 19 20  2  0  0  0  0
 22 24  1  0  0  0  0
 37 40  1  0  0  0  0
  8 11  1  0  0  0  0
 21 23  1  0  0  0  0
 46 47  1  0  0  0  0
 21 22  1  0  0  0  0
 36 37  1  0  0  0  0
  7  8  1  0  0  0  0
 18 21  1  0  0  0  0
 17 18  1  0  0  0  0
  3  4  1  0  0  0  0
  3  5  1  0  0  0  0
  3  6  1  0  0  0  0
 24 33  1  0  0  0  0
 24 34  1  0  0  0  0
 24 35  1  0  0  0  0
 40 43  1  0  0  0  0
 40 44  1  0  0  0  0
 40 45  1  0  0  0  0
 11 14  1  0  0  0  0
 11 15  1  0  0  0  0
 11 16  1  0  0  0  0
 23 30  1  0  0  0  0
 23 31  1  0  0  0  0
 23 32  1  0  0  0  0
 47 49  1  0  0  0  0
 47 50  1  0  0  0  0
 47 51  1  0  0  0  0
 22 28  1  0  0  0  0
 22 29  1  0  0  0  0
 37 42  1  0  0  0  0
  8 13  1  0  0  0  0
 18 26  1  0  0  0  0
 21 27  1  0  0  0  0
 46 48  1  0  0  0  0
  7 12  1  0  0  0  0
 36 41  1  0  0  0  0
 17 25  1  0  0  0  0
M  END
$$$$

  -OEChem-05262214473D

 51 50  0     1  0  0  0  0  0999 V2000
    1.3524   -3.0009    1.4091 C   0  0  0  0  0  0  0  0  0  0  0  0
    1.8758   -1.9880    0.9598 O   0  0  0  0  0  0  0  0  0  0  0  0
    2.2030   -4.1782    1.7536 C   0  0  0  0  0  0  0  0  0  0  0  0
    2.3264   -4.8705    0.9053 H   0  0  0  0  0  0  0  0  0  0  0  0
    3.2257   -3.8876    2.0432 H   0  0  0  0  0  0  0  0  0  0  0  0
    1.8327   -4.8004    2.5839 H   0  0  0  0  0  0  0  0  0  0  0  0
    0.0005   -3.1873    1.6465 N   0  0  0  0  0  0  0  0  0  0  0  0
   -0.9949   -2.1807    1.3864 C   0  0  2  0  0  0  0  0  0  0  0  0
   -0.3083   -0.8216    1.4164 C   0  0  0  0  0  0  0  0  0  0  0  0
    0.7533   -0.6191    2.0022 O   0  0  0  0  0  0  0  0  0  0  0  0
   -2.1232   -2.2423    2.4042 C   0  0  0  0  0  0  0  0  0  0  0  0
   -0.3048   -4.0823    2.0245 H   0  0  0  0  0  0  0  0  0  0  0  0
   -1.3830   -2.3724    0.3801 H   0  0  0  0  0  0  0  0  0  0  0  0
   -1.7534   -2.0527    3.4185 H   0  0  0  0  0  0  0  0  0  0  0  0
   -2.8936   -1.4947    2.1882 H   0  0  0  0  0  0  0  0  0  0  0  0
   -2.5964   -3.2301    2.4022 H   0  0  0  0  0  0  0  0  0  0  0  0
   -1.0412    0.1517    0.7482 N   0  0  0  0  0  0  0  0  0  0  0  0
   -0.6079    1.5223    0.6467 C   0  0  2  0  0  0  0  0  0  0  0  0
   -1.6568    2.2956   -0.1514 C   0  0  0  0  0  0  0  0  0  0  0  0
   -1.4081    2.8488   -1.2208 O   0  0  0  0  0  0  0  0  0  0  0  0
    0.8133    1.6644    0.0505 C   0  0  2  0  0  0  0  0  0  0  0  0
    1.8891    1.0018    0.9394 C   0  0  0  0  0  0  0  0  0  0  0  0
    1.1298    3.1423   -0.2144 C   0  0  0  0  0  0  0  0  0  0  0  0
    3.2495    0.8884    0.2634 C   0  0  0  0  0  0  0  0  0  0  0  0
   -1.9022   -0.1128    0.2753 H   0  0  0  0  0  0  0  0  0  0  0  0
   -0.6201    1.9173    1.6706 H   0  0  0  0  0  0  0  0  0  0  0  0
    0.8247    1.1548   -0.9223 H   0  0  0  0  0  0  0  0  0  0  0  0
    2.0214    1.5890    1.8553 H   0  0  0  0  0  0  0  0  0  0  0  0
    1.5661    0.0005    1.2484 H   0  0  0  0  0  0  0  0  0  0  0  0
    1.1346    3.7130    0.7205 H   0  0  0  0  0  0  0  0  0  0  0  0
    2.1192    3.2607   -0.6667 H   0  0  0  0  0  0  0  0  0  0  0  0
    0.3941    3.5965   -0.8862 H   0  0  0  0  0  0  0  0  0  0  0  0
    3.1920    0.3109   -0.6636 H   0  0  0  0  0  0  0  0  0  0  0  0
    3.9551    0.3767    0.9261 H   0  0  0  0  0  0  0  0  0  0  0  0
    3.6583    1.8774    0.0337 H   0  0  0  0  0  0  0  0  0  0  0  0
   -2.9044    2.2646    0.4554 N   0  0  0  0  0  0  0  0  0  0  0  0
   -4.0745    2.9016   -0.1046 C   0  0  2  0  0  0  0  0  0  0  0  0
   -5.3025    2.1515    0.3942 C   0  0  0  0  0  0  0  0  0  0  0  0
   -5.2629    0.9887    0.7910 O   0  0  0  0  0  0  0  0  0  0  0  0
   -4.0245    2.9127   -1.6245 C   0  0  0  0  0  0  0  0  0  0  0  0
   -2.9999    1.7695    1.3371 H   0  0  0  0  0  0  0  0  0  0  0  0
   -4.0910    3.9271    0.2802 H   0  0  0  0  0  0  0  0  0  0  0  0
   -4.0074    1.8939   -2.0284 H   0  0  0  0  0  0  0  0  0  0  0  0
   -4.8978    3.4209   -2.0465 H   0  0  0  0  0  0  0  0  0  0  0  0
   -3.1254    3.4267   -1.9811 H   0  0  0  0  0  0  0  0  0  0  0  0
   -6.4553    2.9188    0.3036 N   0  0  0  0  0  0  0  0  0  0  0  0
   -7.7529    2.4266    0.7034 C   0  0  0  0  0  0  0  0  0  0  0  0
   -6.3919    3.8797   -0.0195 H   0  0  0  0  0  0  0  0  0  0  0  0
   -8.2627    1.9867   -0.1664 H   0  0  0  0  0  0  0  0  0  0  0  0
   -7.6300    1.6600    1.4827 H   0  0  0  0  0  0  0  0  0  0  0  0
   -8.3545    3.2583    1.0989 H   0  0  0  0  0  0  0  0  0  0  0  0
  1  3  1  0  0  0  0
  1  7  1  0  0  0  0
  1  2  2  0  0  0  0
 37 38  1  0  0  0  0
 38 46  1  0  0  0  0
 38 39  2  0  0  0  0
  8  9  1  0  0  0  0
  9 17  1  0  0  0  0
  9 10  2  0  0  0  0
 18 19  1  0  0  0  0
 19 36  1  0  0  0  0
 19 20  2  0  0  0  0
 22 24  1  0  0  0  0
 37 40  1  0  0  0  0
  8 11  1  0  0  0  0
 21 23  1  0  0  0  0
 46 47  1  0  0  0  0
 21 22  1  0  0  0  0
 36 37  1  0  0  0  0
  7  8  1  0  0  0  0
 18 21  1  0  0  0  0
 17 18  1  0  0  0  0
  3  4  1  0  0  0  0
  3  5  1  0  0  0  0
  3  6  1  0  0  0  0
 24 33  1  0  0  0  0
 24 34  1  0  0  0  0
 24 35  1  0  0  0  0
 40 43  1  0  0  0  0
 40 44  1  0  0  0  0
 40 45  1  0  0  0  0
 11 14  1  0  0  0  0
 11 15  1  0  0  0  0
 11 16  1  0  0  0  0
 23 30  1  0  0  0  0
 23 31  1  0  0  0  0
 23 32  1  0  0  0  0
 47 49  1  0  0  0  0
 47 50  1  0  0  0  0
 47 51  1  0  0  0  0
 22 28  1  0  0  0  0
 22 29  1  0  0  0  0
 37 42  1  0  0  0  0
  8 13  1  0  0  0  0
 18 26  1  0  0  0  0
 21 27  1  0  0  0  0
 46 48  1  0  0  0  0
  7 12  1  0  0  0  0
 36 41  1  0  0  0  0
 17 25  1  0  0  0  0
M  END
$$$$

  -OEChem-05262214473D

 51 50  0     1  0  0  0  0  0999 V2000
    1.3524   -3.0009    1.4091 C   0  0  0  0  0  0  0  0  0  0  0  0
    1.8758   -1.9880    0.9598 O   0  0  0  0  0  0  0  0  0  0  0  0
    2.2030   -4.1782    1.7536 C   0  0  0  0  0  0  0  0  0  0  0  0
    2.3264   -4.8705    0.9053 H   0  0  0  0  0  0  0  0  0  0  0  0
    3.2257   -3.8876    2.0432 H   0  0  0  0  0  0  0  0  0  0  0  0
    1.8327   -4.8004    2.5839 H   0  0  0  0  0  0  0  0  0  0  0  0
    0.0005   -3.1873    1.6465 N   0  0  0  0  0  0  0  0  0  0  0  0
   -0.9949   -2.1807    1.3864 C   0  0  2  0  0  0  0  0  0  0  0  0
   -0.3083   -0.8216    1.4164 C   0  0  0  0  0  0  0  0  0  0  0  0
    0.7533   -0.6191    2.0022 O   0  0  0  0  0  0  0  0  0  0  0  0
   -2.1232   -2.2423    2.4042 C   0  0  0  0  0  0  0  0  0  0  0  0
   -0.3048   -4.0823    2.0245 H   0  0  0  0  0  0  0  0  0  0  0  0
   -1.3830   -2.3724    0.3801 H   0  0  0  0  0  0  0  0  0  0  0  0
   -1.7534   -2.0527    3.4185 H   0  0  0  0  0  0  0  0  0  0  0  0
   -2.8936   -1.4947    2.1882 H   0  0  0  0  0  0  0  0  0  0  0  0
   -2.5964   -3.2301    2.4022 H   0  0  0  0  0  0  0  0  0  0  0  0
   -1.0412    0.1517    0.7482 N   0  0  0  0  0  0  0  0  0  0  0  0
   -0.6079    1.5223    0.6467 C   0  0  2  0  0  0  0  0  0  0  0  0
   -1.6568    2.2956   -0.1514 C   0  0  0  0  0  0  0  0  0  0  0  0
   -1.4975    2.6179   -1.3271 O   0  0  0  0  0  0  0  0  0  0  0  0
    0.8133    1.6644    0.0505 C   0  0  2  0  0  0  0  0  0  0  0  0
    1.8891    1.0018    0.9394 C   0  0  0  0  0  0  0  0  0  0  0  0
    1.1298    3.1423   -0.2144 C   0  0  0  0  0  0  0  0  0  0  0  0
    3.2495    0.8884    0.2634 C   0  0  0  0  0  0  0  0  0  0  0  0
   -1.9022   -0.1128    0.2753 H   0  0  0  0  0  0  0  0  0  0  0  0
   -0.6201    1.9173    1.6706 H   0  0  0  0  0  0  0  0  0  0  0  0
    0.8247    1.1548   -0.9223 H   0  0  0  0  0  0  0  0  0  0  0  0
    2.0214    1.5890    1.8553 H   0  0  0  0  0  0  0  0  0  0  0  0
    1.5661    0.0005    1.2484 H   0  0  0  0  0  0  0  0  0  0  0  0
    1.1346    3.7130    0.7205 H   0  0  0  0  0  0  0  0  0  0  0  0
    2.1192    3.2607   -0.6667 H   0  0  0  0  0  0  0  0  0  0  0  0
    0.3941    3.5965   -0.8862 H   0  0  0  0  0  0  0  0  0  0  0  0
    3.1920    0.3109   -0.6636 H   0  0  0  0  0  0  0  0  0  0  0  0
    3.9551    0.3767    0.9261 H   0  0  0  0  0  0  0  0  0  0  0  0
    3.6583    1.8774    0.0337 H   0  0  0  0  0  0  0  0  0  0  0  0
   -2.7988    2.5511    0.5943 N   0  0  0  0  0  0  0  0  0  0  0  0
   -3.9495    3.2496    0.0682 C   0  0  2  0  0  0  0  0  0  0  0  0
   -5.1764    2.7831    0.8405 C   0  0  0  0  0  0  0  0  0  0  0  0
   -5.2241    1.7109    1.4398 O   0  0  0  0  0  0  0  0  0  0  0  0
   -4.1166    2.9967   -1.4221 C   0  0  0  0  0  0  0  0  0  0  0  0
   -2.8275    2.2313    1.5579 H   0  0  0  0  0  0  0  0  0  0  0  0
   -3.7841    4.3164    0.2540 H   0  0  0  0  0  0  0  0  0  0  0  0
   -4.2833    1.9331   -1.6278 H   0  0  0  0  0  0  0  0  0  0  0  0
   -4.9719    3.5493   -1.8248 H   0  0  0  0  0  0  0  0  0  0  0  0
   -3.2214    3.3054   -1.9726 H   0  0  0  0  0  0  0  0  0  0  0  0
   -6.2268    3.6852    0.7458 N   0  0  0  0  0  0  0  0  0  0  0  0
   -7.5045    3.4637    1.3817 C   0  0  0  0  0  0  0  0  0  0  0  0
   -6.0922    4.5580    0.2438 H   0  0  0  0  0  0  0  0  0  0  0  0
   -8.1840    2.9632    0.6761 H   0  0  0  0  0  0  0  0  0  0  0  0
   -7.3668    2.8299    2.2701 H   0  0  0  0  0  0  0  0  0  0  0  0
   -7.9361    4.4294    1.6836 H   0  0  0  0  0  0  0  0  0  0  0  0
  1  3  1  0  0  0  0
  1  7  1  0  0  0  0
  1  2  2  0  0  0  0
 37 38  1  0  0  0  0
 38 46  1  0  0  0  0
 38 39  2  0  0  0  0
  8  9  1  0  0  0  0
  9 17  1  0  0  0  0
  9 10  2  0  0  0  0
 18 19  1  0  0  0  0
 19 36  1  0  0  0  0
 19 20  2  0  0  0  0
 22 24  1  0  0  0  0
 37 40  1  0  0  0  0
  8 11  1  0  0  0  0
 21 23  1  0  0  0  0
 46 47  1  0  0  0  0
 21 22  1  0  0  0  0
 36 37  1  0  0  0  0
  7  8  1  0  0  0  0
 18 21  1  0  0  0  0
 17 18  1  0  0  0  0
  3  4  1  0  0  0  0
  3  5  1  0  0  0  0
  3  6  1  0  0  0  0
 24 33  1  0  0  0  0
 24 34  1  0  0  0  0
 24 35  1  0  0  0  0
 40 43  1  0  0  0  0
 40 44  1  0  0  0  0
 40 45  1  0  0  0  0
 11 14  1  0  0  0  0
 11 15  1  0  0  0  0
 11 16  1  0  0  0  0
 23 30  1  0  0  0  0
 23 31  1  0  0  0  0
 23 32  1  0  0  0  0
 47 49  1  0  0  0  0
 47 50  1  0  0  0  0
 47 51  1  0  0  0  0
 22 28  1  0  0  0  0
 22 29  1  0  0  0  0
 37 42  1  0  0  0  0
  8 13  1  0  0  0  0
 18 26  1  0  0  0  0
 21 27  1  0  0  0  0
 46 48  1  0  0  0  0
  7 12  1  0  0  0  0
 36 41  1  0  0  0  0
 17 25  1  0  0  0  0
M  END
$$$$

  -OEChem-05262214473D

 51 50  0     1  0  0  0  0  0999 V2000
    1.3524   -3.0009    1.4091 C   0  0  0  0  0  0  0  0  0  0  0  0
    1.8758   -1.9880    0.9598 O   0  0  0  0  0  0  0  0  0  0  0  0
    2.2030   -4.1782    1.7536 C   0  0  0  0  0  0  0  0  0  0  0  0
    2.3264   -4.8705    0.9053 H   0  0  0  0  0  0  0  0  0  0  0  0
    3.2257   -3.8876    2.0432 H   0  0  0  0  0  0  0  0  0  0  0  0
    1.8327   -4.8004    2.5839 H   0  0  0  0  0  0  0  0  0  0  0  0
    0.0005   -3.1873    1.6465 N   0  0  0  0  0  0  0  0  0  0  0  0
   -0.9949   -2.1807    1.3864 C   0  0  2  0  0  0  0  0  0  0  0  0
   -0.3083   -0.8216    1.4164 C   0  0  0  0  0  0  0  0  0  0  0  0
    0.7533   -0.6191    2.0022 O   0  0  0  0  0  0  0  0  0  0  0  0
   -2.1232   -2.2423    2.4042 C   0  0  0  0  0  0  0  0  0  0  0  0
   -0.3048   -4.0823    2.0245 H   0  0  0  0  0  0  0  0  0  0  0  0
   -1.3830   -2.3724    0.3801 H   0  0  0  0  0  0  0  0  0  0  0  0
   -1.7534   -2.0527    3.4185 H   0  0  0  0  0  0  0  0  0  0  0  0
   -2.8936   -1.4947    2.1882 H   0  0  0  0  0  0  0  0  0  0  0  0
   -2.5964   -3.2301    2.4022 H   0  0  0  0  0  0  0  0  0  0  0  0
   -1.0412    0.1517    0.7482 N   0  0  0  0  0  0  0  0  0  0  0  0
   -0.6079    1.5223    0.6467 C   0  0  2  0  0  0  0  0  0  0  0  0
   -1.6568    2.2956   -0.1514 C   0  0  0  0  0  0  0  0  0  0  0  0
   -1.6289    2.3880   -1.3770 O   0  0  0  0  0  0  0  0  0  0  0  0
    0.8133    1.6644    0.0505 C   0  0  2  0  0  0  0  0  0  0  0  0
    1.8891    1.0018    0.9394 C   0  0  0  0  0  0  0  0  0  0  0  0
    1.1298    3.1423   -0.2144 C   0  0  0  0  0  0  0  0  0  0  0  0
    3.2495    0.8884    0.2634 C   0  0  0  0  0  0  0  0  0  0  0  0
   -1.9022   -0.1128    0.2753 H   0  0  0  0  0  0  0  0  0  0  0  0
   -0.6201    1.9173    1.6706 H   0  0  0  0  0  0  0  0  0  0  0  0
    0.8247    1.1548   -0.9223 H   0  0  0  0  0  0  0  0  0  0  0  0
    2.0214    1.5890    1.8553 H   0  0  0  0  0  0  0  0  0  0  0  0
    1.5661    0.0005    1.2484 H   0  0  0  0  0  0  0  0  0  0  0  0
    1.1346    3.7130    0.7205 H   0  0  0  0  0  0  0  0  0  0  0  0
    2.1192    3.2607   -0.6667 H   0  0  0  0  0  0  0  0  0  0  0  0
    0.3941    3.5965   -0.8862 H   0  0  0  0  0  0  0  0  0  0  0  0
    3.1920    0.3109   -0.6636 H   0  0  0  0  0  0  0  0  0  0  0  0
    3.9551    0.3767    0.9261 H   0  0  0  0  0  0  0  0  0  0  0  0
    3.6583    1.8774    0.0337 H   0  0  0  0  0  0  0  0  0  0  0  0
   -2.6400    2.8383    0.6637 N   0  0  0  0  0  0  0  0  0  0  0  0
   -3.7590    3.5995    0.1569 C   0  0  2  0  0  0  0  0  0  0  0  0
   -4.9108    3.4555    1.1428 C   0  0  0  0  0  0  0  0  0  0  0  0
   -5.0041    2.5185    1.9331 O   0  0  0  0  0  0  0  0  0  0  0  0
   -4.1677    3.1263   -1.2294 C   0  0  0  0  0  0  0  0  0  0  0  0
   -2.5696    2.6933    1.6665 H   0  0  0  0  0  0  0  0  0  0  0  0
   -3.4384    4.6463    0.1194 H   0  0  0  0  0  0  0  0  0  0  0  0
   -4.4921    2.0794   -1.2117 H   0  0  0  0  0  0  0  0  0  0  0  0
   -4.9971    3.7227   -1.6237 H   0  0  0  0  0  0  0  0  0  0  0  0
   -3.3294    3.2027   -1.9301 H   0  0  0  0  0  0  0  0  0  0  0  0
   -5.8446    4.4732    1.0068 N   0  0  0  0  0  0  0  0  0  0  0  0
   -7.0356    4.5524    1.8201 C   0  0  0  0  0  0  0  0  0  0  0  0
   -5.6767    5.2193    0.3384 H   0  0  0  0  0  0  0  0  0  0  0  0
   -7.8655    4.0454    1.3061 H   0  0  0  0  0  0  0  0  0  0  0  0
   -6.8513    4.0642    2.7884 H   0  0  0  0  0  0  0  0  0  0  0  0
   -7.2970    5.6080    1.9855 H   0  0  0  0  0  0  0  0  0  0  0  0
  1  3  1  0  0  0  0
  1  7  1  0  0  0  0
  1  2  2  0  0  0  0
 37 38  1  0  0  0  0
 38 46  1  0  0  0  0
 38 39  2  0  0  0  0
  8  9  1  0  0  0  0
  9 17  1  0  0  0  0
  9 10  2  0  0  0  0
 18 19  1  0  0  0  0
 19 36  1  0  0  0  0
 19 20  2  0  0  0  0
 22 24  1  0  0  0  0
 37 40  1  0  0  0  0
  8 11  1  0  0  0  0
 21 23  1  0  0  0  0
 46 47  1  0  0  0  0
 21 22  1  0  0  0  0
 36 37  1  0  0  0  0
  7  8  1  0  0  0  0
 18 21  1  0  0  0  0
 17 18  1  0  0  0  0
  3  4  1  0  0  0  0
  3  5  1  0  0  0  0
  3  6  1  0  0  0  0
 24 33  1  0  0  0  0
 24 34  1  0  0  0  0
 24 35  1  0  0  0  0
 40 43  1  0  0  0  0
 40 44  1  0  0  0  0
 40 45  1  0  0  0  0
 11 14  1  0  0  0  0
 11 15  1  0  0  0  0
 11 16  1  0  0  0  0
 23 30  1  0  0  0  0
 23 31  1  0  0  0  0
 23 32  1  0  0  0  0
 47 49  1  0  0  0  0
 47 50  1  0  0  0  0
 47 51  1  0  0  0  0
 22 28  1  0  0  0  0
 22 29  1  0  0  0  0
 37 42  1  0  0  0  0
  8 13  1  0  0  0  0
 18 26  1  0  0  0  0
 21 27  1  0  0  0  0
 46 48  1  0  0  0  0
  7 12  1  0  0  0  0
 36 41  1  0  0  0  0
 17 25  1  0  0  0  0
M  END
$$$$

  -OEChem-05262214473D

 51 50  0     1  0  0  0  0  0999 V2000
    1.3524   -3.0009    1.4091 C   0  0  0  0  0  0  0  0  0  0  0  0
    1.8758   -1.9880    0.9598 O   0  0  0  0  0  0  0  0  0  0  0  0
    2.2030   -4.1782    1.7536 C   0  0  0  0  0  0  0  0  0  0  0  0
    2.3264   -4.8705    0.9053 H   0  0  0  0  0  0  0  0  0  0  0  0
    3.2257   -3.8876    2.0432 H   0  0  0  0  0  0  0  0  0  0  0  0
    1.8327   -4.8004    2.5839 H   0  0  0  0  0  0  0  0  0  0  0  0
    0.0005   -3.1873    1.6465 N   0  0  0  0  0  0  0  0  0  0  0  0
   -0.9949   -2.1807    1.3864 C   0  0  2  0  0  0  0  0  0  0  0  0
   -0.3083   -0.8216    1.4164 C   0  0  0  0  0  0  0  0  0  0  0  0
    0.7533   -0.6191    2.0022 O   0  0  0  0  0  0  0  0  0  0  0  0
   -2.1232   -2.2423    2.4042 C   0  0  0  0  0  0  0  0  0  0  0  0
   -0.3048   -4.0823    2.0245 H   0  0  0  0  0  0  0  0  0  0  0  0
   -1.3830   -2.3724    0.3801 H   0  0  0  0  0  0  0  0  0  0  0  0
   -1.7534   -2.0527    3.4185 H   0  0  0  0  0  0  0  0  0  0  0  0
   -2.8936   -1.4947    2.1882 H   0  0  0  0  0  0  0  0  0  0  0  0
   -2.5964   -3.2301    2.4022 H   0  0  0  0  0  0  0  0  0  0  0  0
   -1.0412    0.1517    0.7482 N   0  0  0  0  0  0  0  0  0  0  0  0
   -0.6079    1.5223    0.6467 C   0  0  2  0  0  0  0  0  0  0  0  0
   -1.6568    2.2956   -0.1514 C   0  0  0  0  0  0  0  0  0  0  0  0
   -1.7935    2.1749   -1.3672 O   0  0  0  0  0  0  0  0  0  0  0  0
    0.8133    1.6644    0.0505 C   0  0  2  0  0  0  0  0  0  0  0  0
    1.8891    1.0018    0.9394 C   0  0  0  0  0  0  0  0  0  0  0  0
    1.1298    3.1423   -0.2144 C   0  0  0  0  0  0  0  0  0  0  0  0
    3.2495    0.8884    0.2634 C   0  0  0  0  0  0  0  0  0  0  0  0
   -1.9022   -0.1128    0.2753 H   0  0  0  0  0  0  0  0  0  0  0  0
   -0.6201    1.9173    1.6706 H   0  0  0  0  0  0  0  0  0  0  0  0
    0.8247    1.1548   -0.9223 H   0  0  0  0  0  0  0  0  0  0  0  0
    2.0214    1.5890    1.8553 H   0  0  0  0  0  0  0  0  0  0  0  0
    1.5661    0.0005    1.2484 H   0  0  0  0  0  0  0  0  0  0  0  0
    1.1346    3.7130    0.7205 H   0  0  0  0  0  0  0  0  0  0  0  0
    2.1192    3.2607   -0.6667 H   0  0  0  0  0  0  0  0  0  0  0  0
    0.3941    3.5965   -0.8862 H   0  0  0  0  0  0  0  0  0  0  0  0
    3.1920    0.3109   -0.6636 H   0  0  0  0  0  0  0  0  0  0  0  0
    3.9551    0.3767    0.9261 H   0  0  0  0  0  0  0  0  0  0  0  0
    3.6583    1.8774    0.0337 H   0  0  0  0  0  0  0  0  0  0  0  0
   -2.4386    3.1065    0.6589 N   0  0  0  0  0  0  0  0  0  0  0  0
   -3.5162    3.9275    0.1555 C   0  0  2  0  0  0  0  0  0  0  0  0
   -4.5238    4.1227    1.2807 C   0  0  0  0  0  0  0  0  0  0  0  0
   -4.6179    3.3566    2.2373 O   0  0  0  0  0  0  0  0  0  0  0  0
   -4.1744    3.2926   -1.0595 C   0  0  0  0  0  0  0  0  0  0  0  0
   -2.2438    3.1240    1.6556 H   0  0  0  0  0  0  0  0  0  0  0  0
   -3.0776    4.8943   -0.1146 H   0  0  0  0  0  0  0  0  0  0  0  0
   -4.6195    2.3229   -0.8084 H   0  0  0  0  0  0  0  0  0  0  0  0
   -4.9717    3.9293   -1.4569 H   0  0  0  0  0  0  0  0  0  0  0  0
   -3.4420    3.1256   -1.8568 H   0  0  0  0  0  0  0  0  0  0  0  0
   -5.3347    5.2290    1.0689 N   0  0  0  0  0  0  0  0  0  0  0  0
   -6.3780    5.6184    1.9887 C   0  0  0  0  0  0  0  0  0  0  0  0
   -5.1735    5.8188    0.2578 H   0  0  0  0  0  0  0  0  0  0  0  0
   -7.3291    5.1596    1.6806 H   0  0  0  0  0  0  0  0  0  0  0  0
   -6.1186    5.2788    3.0023 H   0  0  0  0  0  0  0  0  0  0  0  0
   -6.4808    6.7136    1.9840 H   0  0  0  0  0  0  0  0  0  0  0  0
  1  3  1  0  0  0  0
  1  7  1  0  0  0  0
  1  2  2  0  0  0  0
 37 38  1  0  0  0  0
 38 46  1  0  0  0  0
 38 39  2  0  0  0  0
  8  9  1  0  0  0  0
  9 17  1  0  0  0  0
  9 10  2  0  0  0  0
 18 19  1  0  0  0  0
 19 36  1  0  0  0  0
 19 20  2  0  0  0  0
 22 24  1  0  0  0  0
 37 40  1  0  0  0  0
  8 11  1  0  0  0  0
 21 23  1  0  0  0  0
 46 47  1  0  0  0  0
 21 22  1  0  0  0  0
 36 37  1  0  0  0  0
  7  8  1  0  0  0  0
 18 21  1  0  0  0  0
 17 18  1  0  0  0  0
  3  4  1  0  0  0  0
  3  5  1  0  0  0  0
  3  6  1  0  0  0  0
 24 33  1  0  0  0  0
 24 34  1  0  0  0  0
 24 35  1  0  0  0  0
 40 43  1  0  0  0  0
 40 44  1  0  0  0  0
 40 45  1  0  0  0  0
 11 14  1  0  0  0  0
 11 15  1  0  0  0  0
 11 16  1  0  0  0  0
 23 30  1  0  0  0  0
 23 31  1  0  0  0  0
 23 32  1  0  0  0  0
 47 49  1  0  0  0  0
 47 50  1  0  0  0  0
 47 51  1  0  0  0  0
 22 28  1  0  0  0  0
 22 29  1  0  0  0  0
 37 42  1  0  0  0  0
  8 13  1  0  0  0  0
 18 26  1  0  0  0  0
 21 27  1  0  0  0  0
 46 48  1  0  0  0  0
  7 12  1  0  0  0  0
 36 41  1  0  0  0  0
 17 25  1  0  0  0  0
M  END
$$$$

  -OEChem-05262214473D

 51 50  0     1  0  0  0  0  0999 V2000
    1.3524   -3.0009    1.4091 C   0  0  0  0  0  0  0  0  0  0  0  0
    1.8758   -1.9880    0.9598 O   0  0  0  0  0  0  0  0  0  0  0  0
    2.2030   -4.1782    1.7536 C   0  0  0  0  0  0  0  0  0  0  0  0
    2.3264   -4.8705    0.9053 H   0  0  0  0  0  0  0  0  0  0  0  0
    3.2257   -3.8876    2.0432 H   0  0  0  0  0  0  0  0  0  0  0  0
    1.8327   -4.8004    2.5839 H   0  0  0  0  0  0  0  0  0  0  0  0
    0.0005   -3.1873    1.6465 N   0  0  0  0  0  0  0  0  0  0  0  0
   -0.9949   -2.1807    1.3864 C   0  0  2  0  0  0  0  0  0  0  0  0
   -0.3083   -0.8216    1.4164 C   0  0  0  0  0  0  0  0  0  0  0  0
    0.7533   -0.6191    2.0022 O   0  0  0  0  0  0  0  0  0  0  0  0
   -2.1232   -2.2423    2.4042 C   0  0  0  0  0  0  0  0  0  0  0  0
   -0.3048   -4.0823    2.0245 H   0  0  0  0  0  0  0  0  0  0  0  0
   -1.3830   -2.3724    0.3801 H   0  0  0  0  0  0  0  0  0  0  0  0
   -1.7534   -2.0527    3.4185 H   0  0  0  0  0  0  0  0  0  0  0  0
   -2.8936   -1.4947    2.1882 H   0  0  0  0  0  0  0  0  0  0  0  0
   -2.5964   -3.2301    2.4022 H   0  0  0  0  0  0  0  0  0  0  0  0
   -1.0412    0.1517    0.7482 N   0  0  0  0  0  0  0  0  0  0  0  0
   -0.6079    1.5223    0.6467 C   0  0  2  0  0  0  0  0  0  0  0  0
   -1.6568    2.2956   -0.1514 C   0  0  0  0  0  0  0  0  0  0  0  0
   -1.9800    1.9930   -1.2983 O   0  0  0  0  0  0  0  0  0  0  0  0
    0.8133    1.6644    0.0505 C   0  0  2  0  0  0  0  0  0  0  0  0
    1.8891    1.0018    0.9394 C   0  0  0  0  0  0  0  0  0  0  0  0
    1.1298    3.1423   -0.2144 C   0  0  0  0  0  0  0  0  0  0  0  0
    3.2495    0.8884    0.2634 C   0  0  0  0  0  0  0  0  0  0  0  0
   -1.9022   -0.1128    0.2753 H   0  0  0  0  0  0  0  0  0  0  0  0
   -0.6201    1.9173    1.6706 H   0  0  0  0  0  0  0  0  0  0  0  0
    0.8247    1.1548   -0.9223 H   0  0  0  0  0  0  0  0  0  0  0  0
    2.0214    1.5890    1.8553 H   0  0  0  0  0  0  0  0  0  0  0  0
    1.5661    0.0005    1.2484 H   0  0  0  0  0  0  0  0  0  0  0  0
    1.1346    3.7130    0.7205 H   0  0  0  0  0  0  0  0  0  0  0  0
    2.1192    3.2607   -0.6667 H   0  0  0  0  0  0  0  0  0  0  0  0
    0.3941    3.5965   -0.8862 H   0  0  0  0  0  0  0  0  0  0  0  0
    3.1920    0.3109   -0.6636 H   0  0  0  0  0  0  0  0  0  0  0  0
    3.9551    0.3767    0.9261 H   0  0  0  0  0  0  0  0  0  0  0  0
    3.6583    1.8774    0.0337 H   0  0  0  0  0  0  0  0  0  0  0  0
   -2.2084    3.3376    0.5803 N   0  0  0  0  0  0  0  0  0  0  0  0
   -3.2374    4.2113    0.0641 C   0  0  2  0  0  0  0  0  0  0  0  0
   -4.0417    4.7394    1.2446 C   0  0  0  0  0  0  0  0  0  0  0  0
   -4.0916    4.1679    2.3317 O   0  0  0  0  0  0  0  0  0  0  0  0
   -4.1360    3.4843   -0.9242 C   0  0  0  0  0  0  0  0  0  0  0  0
   -1.8723    3.4941    1.5259 H   0  0  0  0  0  0  0  0  0  0  0  0
   -2.7261    5.0435   -0.4319 H   0  0  0  0  0  0  0  0  0  0  0  0
   -4.6568    2.6470   -0.4454 H   0  0  0  0  0  0  0  0  0  0  0  0
   -4.8974    4.1550   -1.3359 H   0  0  0  0  0  0  0  0  0  0  0  0
   -3.5516    3.0794   -1.7575 H   0  0  0  0  0  0  0  0  0  0  0  0
   -4.7318    5.9012    0.9279 N   0  0  0  0  0  0  0  0  0  0  0  0
   -5.5766    6.5892    1.8760 C   0  0  0  0  0  0  0  0  0  0  0  0
   -4.6169    6.3155    0.0076 H   0  0  0  0  0  0  0  0  0  0  0  0
   -6.6113    6.2299    1.7741 H   0  0  0  0  0  0  0  0  0  0  0  0
   -5.2187    6.3910    2.8971 H   0  0  0  0  0  0  0  0  0  0  0  0
   -5.5432    7.6709    1.6792 H   0  0  0  0  0  0  0  0  0  0  0  0
  1  3  1  0  0  0  0
  1  7  1  0  0  0  0
  1  2  2  0  0  0  0
 37 38  1  0  0  0  0
 38 46  1  0  0  0  0
 38 39  2  0  0  0  0
  8  9  1  0  0  0  0
  9 17  1  0  0  0  0
  9 10  2  0  0  0  0
 18 19  1  0  0  0  0
 19 36  1  0  0  0  0
 19 20  2  0  0  0  0
 22 24  1  0  0  0  0
 37 40  1  0  0  0  0
  8 11  1  0  0  0  0
 21 23  1  0  0  0  0
 46 47  1  0  0  0  0
 21 22  1  0  0  0  0
 36 37  1  0  0  0  0
  7  8  1  0  0  0  0
 18 21  1  0  0  0  0
 17 18  1  0  0  0  0
  3  4  1  0  0  0  0
  3  5  1  0  0  0  0
  3  6  1  0  0  0  0
 24 33  1  0  0  0  0
 24 34  1  0  0  0  0
 24 35  1  0  0  0  0
 40 43  1  0  0  0  0
 40 44  1  0  0  0  0
 40 45  1  0  0  0  0
 11 14  1  0  0  0  0
 11 15  1  0  0  0  0
 11 16  1  0  0  0  0
 23 30  1  0  0  0  0
 23 31  1  0  0  0  0
 23 32  1  0  0  0  0
 47 49  1  0  0  0  0
 47 50  1  0  0  0  0
 47 51  1  0  0  0  0
 22 28  1  0  0  0  0
 22 29  1  0  0  0  0
 37 42  1  0  0  0  0
  8 13  1  0  0  0  0
 18 26  1  0  0  0  0
 21 27  1  0  0  0  0
 46 48  1  0  0  0  0
  7 12  1  0  0  0  0
 36 41  1  0  0  0  0
 17 25  1  0  0  0  0
M  END
$$$$

  -OEChem-05262214473D

 51 50  0     1  0  0  0  0  0999 V2000
    1.3524   -3.0009    1.4091 C   0  0  0  0  0  0  0  0  0  0  0  0
    1.8758   -1.9880    0.9598 O   0  0  0  0  0  0  0  0  0  0  0  0
    2.2030   -4.1782    1.7536 C   0  0  0  0  0  0  0  0  0  0  0  0
    2.3264   -4.8705    0.9053 H   0  0  0  0  0  0  0  0  0  0  0  0
    3.2257   -3.8876    2.0432 H   0  0  0  0  0  0  0  0  0  0  0  0
    1.8327   -4.8004    2.5839 H   0  0  0  0  0  0  0  0  0  0  0  0
    0.0005   -3.1873    1.6465 N   0  0  0  0  0  0  0  0  0  0  0  0
   -0.9949   -2.1807    1.3864 C   0  0  2  0  0  0  0  0  0  0  0  0
   -0.3083   -0.8216    1.4164 C   0  0  0  0  0  0  0  0  0  0  0  0
    0.7533   -0.6191    2.0022 O   0  0  0  0  0  0  0  0  0  0  0  0
   -2.1232   -2.2423    2.4042 C   0  0  0  0  0  0  0  0  0  0  0  0
   -0.3048   -4.0823    2.0245 H   0  0  0  0  0  0  0  0  0  0  0  0
   -1.3830   -2.3724    0.3801 H   0  0  0  0  0  0  0  0  0  0  0  0
   -1.7534   -2.0527    3.4185 H   0  0  0  0  0  0  0  0  0  0  0  0
   -2.8936   -1.4947    2.1882 H   0  0  0  0  0  0  0  0  0  0  0  0
   -2.5964   -3.2301    2.4022 H   0  0  0  0  0  0  0  0  0  0  0  0
   -1.0412    0.1517    0.7482 N   0  0  0  0  0  0  0  0  0  0  0  0
   -0.6079    1.5223    0.6467 C   0  0  2  0  0  0  0  0  0  0  0  0
   -1.6568    2.2956   -0.1514 C   0  0  0  0  0  0  0  0  0  0  0  0
   -2.1757    1.8547   -1.1751 O   0  0  0  0  0  0  0  0  0  0  0  0
    0.8133    1.6644    0.0505 C   0  0  2  0  0  0  0  0  0  0  0  0
    1.8891    1.0018    0.9394 C   0  0  0  0  0  0  0  0  0  0  0  0
    1.1298    3.1423   -0.2144 C   0  0  0  0  0  0  0  0  0  0  0  0
    3.2495    0.8884    0.2634 C   0  0  0  0  0  0  0  0  0  0  0  0
   -1.9022   -0.1128    0.2753 H   0  0  0  0  0  0  0  0  0  0  0  0
   -0.6201    1.9173    1.6706 H   0  0  0  0  0  0  0  0  0  0  0  0
    0.8247    1.1548   -0.9223 H   0  0  0  0  0  0  0  0  0  0  0  0
    2.0214    1.5890    1.8553 H   0  0  0  0  0  0  0  0  0  0  0  0
    1.5661    0.0005    1.2484 H   0  0  0  0  0  0  0  0  0  0  0  0
    1.1346    3.7130    0.7205 H   0  0  0  0  0  0  0  0  0  0  0  0
    2.1192    3.2607   -0.6667 H   0  0  0  0  0  0  0  0  0  0  0  0
    0.3941    3.5965   -0.8862 H   0  0  0  0  0  0  0  0  0  0  0  0
    3.1920    0.3109   -0.6636 H   0  0  0  0  0  0  0  0  0  0  0  0
    3.9551    0.3767    0.9261 H   0  0  0  0  0  0  0  0  0  0  0  0
    3.6583    1.8774    0.0337 H   0  0  0  0  0  0  0  0  0  0  0  0
   -1.9652    3.5157    0.4332 N   0  0  0  0  0  0  0  0  0  0  0  0
   -2.9418    4.4314   -0.1112 C   0  0  2  0  0  0  0  0  0  0  0  0
   -3.4974    5.2635    1.0370 C   0  0  0  0  0  0  0  0  0  0  0  0
   -3.4613    4.8971    2.2098 O   0  0  0  0  0  0  0  0  0  0  0  0
   -4.0554    3.6883   -0.8325 C   0  0  0  0  0  0  0  0  0  0  0  0
   -1.4804    3.7783    1.2862 H   0  0  0  0  0  0  0  0  0  0  0  0
   -2.4080    5.0838   -0.8109 H   0  0  0  0  0  0  0  0  0  0  0  0
   -4.6015    3.0295   -0.1475 H   0  0  0  0  0  0  0  0  0  0  0  0
   -4.7792    4.3845   -1.2688 H   0  0  0  0  0  0  0  0  0  0  0  0
   -3.6508    3.0672   -1.6390 H   0  0  0  0  0  0  0  0  0  0  0  0
   -4.0771    6.4439    0.5933 N   0  0  0  0  0  0  0  0  0  0  0  0
   -4.6861    7.3986    1.4898 C   0  0  0  0  0  0  0  0  0  0  0  0
   -4.0449    6.6756   -0.3952 H   0  0  0  0  0  0  0  0  0  0  0  0
   -5.7610    7.1833    1.5804 H   0  0  0  0  0  0  0  0  0  0  0  0
   -4.2128    7.3250    2.4801 H   0  0  0  0  0  0  0  0  0  0  0  0
   -4.5480    8.4148    1.0920 H   0  0  0  0  0  0  0  0  0  0  0  0
  1  3  1  0  0  0  0
  1  7  1  0  0  0  0
  1  2  2  0  0  0  0
 37 38  1  0  0  0  0
 38 46  1  0  0  0  0
 38 39  2  0  0  0  0
  8  9  1  0  0  0  0
  9 17  1  0  0  0  0
  9 10  2  0  0  0  0
 18 19  1  0  0  0  0
 19 36  1  0  0  0  0
 19 20  2  0  0  0  0
 22 24  1  0  0  0  0
 37 40  1  0  0  0  0
  8 11  1  0  0  0  0
 21 23  1  0  0  0  0
 46 47  1  0  0  0  0
 21 22  1  0  0  0  0
 36 37  1  0  0  0  0
  7  8  1  0  0  0  0
 18 21  1  0  0  0  0
 17 18  1  0  0  0  0
  3  4  1  0  0  0  0
  3  5  1  0  0  0  0
  3  6  1  0  0  0  0
 24 33  1  0  0  0  0
 24 34  1  0  0  0  0
 24 35  1  0  0  0  0
 40 43  1  0  0  0  0
 40 44  1  0  0  0  0
 40 45  1  0  0  0  0
 11 14  1  0  0  0  0
 11 15  1  0  0  0  0
 11 16  1  0  0  0  0
 23 30  1  0  0  0  0
 23 31  1  0  0  0  0
 23 32  1  0  0  0  0
 47 49  1  0  0  0  0
 47 50  1  0  0  0  0
 47 51  1  0  0  0  0
 22 28  1  0  0  0  0
 22 29  1  0  0  0  0
 37 42  1  0  0  0  0
  8 13  1  0  0  0  0
 18 26  1  0  0  0  0
 21 27  1  0  0  0  0
 46 48  1  0  0  0  0
  7 12  1  0  0  0  0
 36 41  1  0  0  0  0
 17 25  1  0  0  0  0
M  END
$$$$

  -OEChem-05262214473D

 51 50  0     1  0  0  0  0  0999 V2000
    1.3524   -3.0009    1.4091 C   0  0  0  0  0  0  0  0  0  0  0  0
    1.8758   -1.9880    0.9598 O   0  0  0  0  0  0  0  0  0  0  0  0
    2.2030   -4.1782    1.7536 C   0  0  0  0  0  0  0  0  0  0  0  0
    2.3264   -4.8705    0.9053 H   0  0  0  0  0  0  0  0  0  0  0  0
    3.2257   -3.8876    2.0432 H   0  0  0  0  0  0  0  0  0  0  0  0
    1.8327   -4.8004    2.5839 H   0  0  0  0  0  0  0  0  0  0  0  0
    0.0005   -3.1873    1.6465 N   0  0  0  0  0  0  0  0  0  0  0  0
   -0.9949   -2.1807    1.3864 C   0  0  2  0  0  0  0  0  0  0  0  0
   -0.3083   -0.8216    1.4164 C   0  0  0  0  0  0  0  0  0  0  0  0
    0.7533   -0.6191    2.0022 O   0  0  0  0  0  0  0  0  0  0  0  0
   -2.1232   -2.2423    2.4042 C   0  0  0  0  0  0  0  0  0  0  0  0
   -0.3048   -4.0823    2.0245 H   0  0  0  0  0  0  0  0  0  0  0  0
   -1.3830   -2.3724    0.3801 H   0  0  0  0  0  0  0  0  0  0  0  0
   -1.7534   -2.0527    3.4185 H   0  0  0  0  0  0  0  0  0  0  0  0
   -2.8936   -1.4947    2.1882 H   0  0  0  0  0  0  0  0  0  0  0  0
   -2.5964   -3.2301    2.4022 H   0  0  0  0  0  0  0  0  0  0  0  0
   -1.0412    0.1517    0.7482 N   0  0  0  0  0  0  0  0  0  0  0  0
   -0.6079    1.5223    0.6467 C   0  0  2  0  0  0  0  0  0  0  0  0
   -1.6568    2.2956   -0.1514 C   0  0  0  0  0  0  0  0  0  0  0  0
   -2.3673    1.7695   -1.0058 O   0  0  0  0  0  0  0  0  0  0  0  0
    0.8133    1.6644    0.0505 C   0  0  2  0  0  0  0  0  0  0  0  0
    1.8891    1.0018    0.9394 C   0  0  0  0  0  0  0  0  0  0  0  0
    1.1298    3.1423   -0.2144 C   0  0  0  0  0  0  0  0  0  0  0  0
    3.2495    0.8884    0.2634 C   0  0  0  0  0  0  0  0  0  0  0  0
   -1.9022   -0.1128    0.2753 H   0  0  0  0  0  0  0  0  0  0  0  0
   -0.6201    1.9173    1.6706 H   0  0  0  0  0  0  0  0  0  0  0  0
    0.8247    1.1548   -0.9223 H   0  0  0  0  0  0  0  0  0  0  0  0
    2.0214    1.5890    1.8553 H   0  0  0  0  0  0  0  0  0  0  0  0
    1.5661    0.0005    1.2484 H   0  0  0  0  0  0  0  0  0  0  0  0
    1.1346    3.7130    0.7205 H   0  0  0  0  0  0  0  0  0  0  0  0
    2.1192    3.2607   -0.6667 H   0  0  0  0  0  0  0  0  0  0  0  0
    0.3941    3.5965   -0.8862 H   0  0  0  0  0  0  0  0  0  0  0  0
    3.1920    0.3109   -0.6636 H   0  0  0  0  0  0  0  0  0  0  0  0
    3.9551    0.3767    0.9261 H   0  0  0  0  0  0  0  0  0  0  0  0
    3.6583    1.8774    0.0337 H   0  0  0  0  0  0  0  0  0  0  0  0
   -1.7255    3.6287    0.2276 N   0  0  0  0  0  0  0  0  0  0  0  0
   -2.6494    4.5730   -0.3583 C   0  0  2  0  0  0  0  0  0  0  0  0
   -2.9280    5.6593    0.6721 C   0  0  0  0  0  0  0  0  0  0  0  0
   -2.7698    5.4947    1.8800 O   0  0  0  0  0  0  0  0  0  0  0  0
   -3.9379    3.8908   -0.7908 C   0  0  0  0  0  0  0  0  0  0  0  0
   -1.0949    3.9572    0.9529 H   0  0  0  0  0  0  0  0  0  0  0  0
   -2.1450    5.0123   -1.2258 H   0  0  0  0  0  0  0  0  0  0  0  0
   -4.4573    3.4445    0.0651 H   0  0  0  0  0  0  0  0  0  0  0  0
   -4.6253    4.6022   -1.2603 H   0  0  0  0  0  0  0  0  0  0  0  0
   -3.7326    3.0899   -1.5094 H   0  0  0  0  0  0  0  0  0  0  0  0
   -3.4152    6.8201    0.0879 N   0  0  0  0  0  0  0  0  0  0  0  0
   -3.7671    7.9913    0.8563 C   0  0  0  0  0  0  0  0  0  0  0  0
   -3.4965    6.8746   -0.9231 H   0  0  0  0  0  0  0  0  0  0  0  0
   -4.8362    7.9549    1.1125 H   0  0  0  0  0  0  0  0  0  0  0  0
   -3.1696    8.0171    1.7796 H   0  0  0  0  0  0  0  0  0  0  0  0
   -3.5631    8.8944    0.2623 H   0  0  0  0  0  0  0  0  0  0  0  0
  1  3  1  0  0  0  0
  1  7  1  0  0  0  0
  1  2  2  0  0  0  0
 37 38  1  0  0  0  0
 38 46  1  0  0  0  0
 38 39  2  0  0  0  0
  8  9  1  0  0  0  0
  9 17  1  0  0  0  0
  9 10  2  0  0  0  0
 18 19  1  0  0  0  0
 19 36  1  0  0  0  0
 19 20  2  0  0  0  0
 22 24  1  0  0  0  0
 37 40  1  0  0  0  0
  8 11  1  0  0  0  0
 21 23  1  0  0  0  0
 46 47  1  0  0  0  0
 21 22  1  0  0  0  0
 36 37  1  0  0  0  0
  7  8  1  0  0  0  0
 18 21  1  0  0  0  0
 17 18  1  0  0  0  0
  3  4  1  0  0  0  0
  3  5  1  0  0  0  0
  3  6  1  0  0  0  0
 24 33  1  0  0  0  0
 24 34  1  0  0  0  0
 24 35  1  0  0  0  0
 40 43  1  0  0  0  0
 40 44  1  0  0  0  0
 40 45  1  0  0  0  0
 11 14  1  0  0  0  0
 11 15  1  0  0  0  0
 11 16  1  0  0  0  0
 23 30  1  0  0  0  0
 23 31  1  0  0  0  0
 23 32  1  0  0  0  0
 47 49  1  0  0  0  0
 47 50  1  0  0  0  0
 47 51  1  0  0  0  0
 22 28  1  0  0  0  0
 22 29  1  0  0  0  0
 37 42  1  0  0  0  0
  8 13  1  0  0  0  0
 18 26  1  0  0  0  0
 21 27  1  0  0  0  0
 46 48  1  0  0  0  0
  7 12  1  0  0  0  0
 36 41  1  0  0  0  0
 17 25  1  0  0  0  0
M  END
$$$$

  -OEChem-05262214473D

 51 50  0     1  0  0  0  0  0999 V2000
    1.3524   -3.0009    1.4091 C   0  0  0  0  0  0  0  0  0  0  0  0
    1.8758   -1.9880    0.9598 O   0  0  0  0  0  0  0  0  0  0  0  0
    2.2030   -4.1782    1.7536 C   0  0  0  0  0  0  0  0  0  0  0  0
    2.3264   -4.8705    0.9053 H   0  0  0  0  0  0  0  0  0  0  0  0
    3.2257   -3.8876    2.0432 H   0  0  0  0  0  0  0  0  0  0  0  0
    1.8327   -4.8004    2.5839 H   0  0  0  0  0  0  0  0  0  0  0  0
    0.0005   -3.1873    1.6465 N   0  0  0  0  0  0  0  0  0  0  0  0
   -0.9949   -2.1807    1.3864 C   0  0  2  0  0  0  0  0  0  0  0  0
   -0.3083   -0.8216    1.4164 C   0  0  0  0  0  0  0  0  0  0  0  0
    0.7533   -0.6191    2.0022 O   0  0  0  0  0  0  0  0  0  0  0  0
   -2.1232   -2.2423    2.4042 C   0  0  0  0  0  0  0  0  0  0  0  0
   -0.3048   -4.0823    2.0245 H   0  0  0  0  0  0  0  0  0  0  0  0
   -1.3830   -2.3724    0.3801 H   0  0  0  0  0  0  0  0  0  0  0  0
   -1.7534   -2.0527    3.4185 H   0  0  0  0  0  0  0  0  0  0  0  0
   -2.8936   -1.4947    2.1882 H   0  0  0  0  0  0  0  0  0  0  0  0
   -2.5964   -3.2301    2.4022 H   0  0  0  0  0  0  0  0  0  0  0  0
   -1.0412    0.1517    0.7482 N   0  0  0  0  0  0  0  0  0  0  0  0
   -0.6079    1.5223    0.6467 C   0  0  2  0  0  0  0  0  0  0  0  0
   -1.6568    2.2956   -0.1514 C   0  0  0  0  0  0  0  0  0  0  0  0
   -2.5417    1.7432   -0.8021 O   0  0  0  0  0  0  0  0  0  0  0  0
    0.8133    1.6644    0.0505 C   0  0  2  0  0  0  0  0  0  0  0  0
    1.8891    1.0018    0.9394 C   0  0  0  0  0  0  0  0  0  0  0  0
    1.1298    3.1423   -0.2144 C   0  0  0  0  0  0  0  0  0  0  0  0
    3.2495    0.8884    0.2634 C   0  0  0  0  0  0  0  0  0  0  0  0
   -1.9022   -0.1128    0.2753 H   0  0  0  0  0  0  0  0  0  0  0  0
   -0.6201    1.9173    1.6706 H   0  0  0  0  0  0  0  0  0  0  0  0
    0.8247    1.1548   -0.9223 H   0  0  0  0  0  0  0  0  0  0  0  0
    2.0214    1.5890    1.8553 H   0  0  0  0  0  0  0  0  0  0  0  0
    1.5661    0.0005    1.2484 H   0  0  0  0  0  0  0  0  0  0  0  0
    1.1346    3.7130    0.7205 H   0  0  0  0  0  0  0  0  0  0  0  0
    2.1192    3.2607   -0.6667 H   0  0  0  0  0  0  0  0  0  0  0  0
    0.3941    3.5965   -0.8862 H   0  0  0  0  0  0  0  0  0  0  0  0
    3.1920    0.3109   -0.6636 H   0  0  0  0  0  0  0  0  0  0  0  0
    3.9551    0.3767    0.9261 H   0  0  0  0  0  0  0  0  0  0  0  0
    3.6583    1.8774    0.0337 H   0  0  0  0  0  0  0  0  0  0  0  0
   -1.5055    3.6689   -0.0225 N   0  0  0  0  0  0  0  0  0  0  0  0
   -2.3802    4.6263   -0.6604 C   0  0  2  0  0  0  0  0  0  0  0  0
   -2.3723    5.8998    0.1748 C   0  0  0  0  0  0  0  0  0  0  0  0
   -2.0643    5.9198    1.3646 O   0  0  0  0  0  0  0  0  0  0  0  0
   -3.7916    4.0778   -0.8019 C   0  0  0  0  0  0  0  0  0  0  0  0
   -0.7419    4.0187    0.5486 H   0  0  0  0  0  0  0  0  0  0  0  0
   -1.9549    4.8340   -1.6483 H   0  0  0  0  0  0  0  0  0  0  0  0
   -4.2341    3.8636    0.1778 H   0  0  0  0  0  0  0  0  0  0  0  0
   -4.4460    4.7931   -1.3109 H   0  0  0  0  0  0  0  0  0  0  0  0
   -3.7917    3.1460   -1.3775 H   0  0  0  0  0  0  0  0  0  0  0  0
   -2.7912    7.0043   -0.5538 N   0  0  0  0  0  0  0  0  0  0  0  0
   -2.8822    8.3271    0.0187 C   0  0  0  0  0  0  0  0  0  0  0  0
   -3.0091    6.8988   -1.5403 H   0  0  0  0  0  0  0  0  0  0  0  0
   -3.8999    8.4920    0.4023 H   0  0  0  0  0  0  0  0  0  0  0  0
   -2.1602    8.4201    0.8434 H   0  0  0  0  0  0  0  0  0  0  0  0
   -2.6555    9.0771   -0.7534 H   0  0  0  0  0  0  0  0  0  0  0  0
  1  3  1  0  0  0  0
  1  7  1  0  0  0  0
  1  2  2  0  0  0  0
 37 38  1  0  0  0  0
 38 46  1  0  0  0  0
 38 39  2  0  0  0  0
  8  9  1  0  0  0  0
  9 17  1  0  0  0  0
  9 10  2  0  0  0  0
 18 19  1  0  0  0  0
 19 36  1  0  0  0  0
 19 20  2  0  0  0  0
 22 24  1  0  0  0  0
 37 40  1  0  0  0  0
  8 11  1  0  0  0  0
 21 23  1  0  0  0  0
 46 47  1  0  0  0  0
 21 22  1  0  0  0  0
 36 37  1  0  0  0  0
  7  8  1  0  0  0  0
 18 21  1  0  0  0  0
 17 18  1  0  0  0  0
  3  4  1  0  0  0  0
  3  5  1  0  0  0  0
  3  6  1  0  0  0  0
 24 33  1  0  0  0  0
 24 34  1  0  0  0  0
 24 35  1  0  0  0  0
 40 43  1  0  0  0  0
 40 44  1  0  0  0  0
 40 45  1  0  0  0  0
 11 14  1  0  0  0  0
 11 15  1  0  0  0  0
 11 16  1  0  0  0  0
 23 30  1  0  0  0  0
 23 31  1  0  0  0  0
 23 32  1  0  0  0  0
 47 49  1  0  0  0  0
 47 50  1  0  0  0  0
 47 51  1  0  0  0  0
 22 28  1  0  0  0  0
 22 29  1  0  0  0  0
 37 42  1  0  0  0  0
  8 13  1  0  0  0  0
 18 26  1  0  0  0  0
 21 27  1  0  0  0  0
 46 48  1  0  0  0  0
  7 12  1  0  0  0  0
 36 41  1  0  0  0  0
 17 25  1  0  0  0  0
M  END
$$$$

  -OEChem-05262214473D

 51 50  0     1  0  0  0  0  0999 V2000
    1.3524   -3.0009    1.4091 C   0  0  0  0  0  0  0  0  0  0  0  0
    1.8758   -1.9880    0.9598 O   0  0  0  0  0  0  0  0  0  0  0  0
    2.2030   -4.1782    1.7536 C   0  0  0  0  0  0  0  0  0  0  0  0
    2.3264   -4.8705    0.9053 H   0  0  0  0  0  0  0  0  0  0  0  0
    3.2257   -3.8876    2.0432 H   0  0  0  0  0  0  0  0  0  0  0  0
    1.8327   -4.8004    2.5839 H   0  0  0  0  0  0  0  0  0  0  0  0
    0.0005   -3.1873    1.6465 N   0  0  0  0  0  0  0  0  0  0  0  0
   -0.9949   -2.1807    1.3864 C   0  0  2  0  0  0  0  0  0  0  0  0
   -0.3083   -0.8216    1.4164 C   0  0  0  0  0  0  0  0  0  0  0  0
    0.7533   -0.6191    2.0022 O   0  0  0  0  0  0  0  0  0  0  0  0
   -2.1232   -2.2423    2.4042 C   0  0  0  0  0  0  0  0  0  0  0  0
   -0.3048   -4.0823    2.0245 H   0  0  0  0  0  0  0  0  0  0  0  0
   -1.3830   -2.3724    0.3801 H   0  0  0  0  0  0  0  0  0  0  0  0
   -1.7534   -2.0527    3.4185 H   0  0  0  0  0  0  0  0  0  0  0  0
   -2.8936   -1.4947    2.1882 H   0  0  0  0  0  0  0  0  0  0  0  0
   -2.5964   -3.2301    2.4022 H   0  0  0  0  0  0  0  0  0  0  0  0
   -1.0412    0.1517    0.7482 N   0  0  0  0  0  0  0  0  0  0  0  0
   -0.6079    1.5223    0.6467 C   0  0  2  0  0  0  0  0  0  0  0  0
   -1.7986    2.3659    0.1930 C   0  0  0  0  0  0  0  0  0  0  0  0
   -2.9160    1.8925   -0.0036 O   0  0  0  0  0  0  0  0  0  0  0  0
    0.6269    1.6997   -0.2695 C   0  0  2  0  0  0  0  0  0  0  0  0
    1.8690    0.9588    0.2736 C   0  0  0  0  0  0  0  0  0  0  0  0
    0.9099    3.1913   -0.4918 C   0  0  0  0  0  0  0  0  0  0  0  0
    3.0181    0.8885   -0.7239 C   0  0  0  0  0  0  0  0  0  0  0  0
   -1.9022   -0.1128    0.2753 H   0  0  0  0  0  0  0  0  0  0  0  0
   -0.3574    1.8341    1.6688 H   0  0  0  0  0  0  0  0  0  0  0  0
    0.3849    1.2695   -1.2506 H   0  0  0  0  0  0  0  0  0  0  0  0
    2.2384    1.4697    1.1702 H   0  0  0  0  0  0  0  0  0  0  0  0
    1.6038   -0.0611    0.5763 H   0  0  0  0  0  0  0  0  0  0  0  0
    1.1599    3.6852    0.4533 H   0  0  0  0  0  0  0  0  0  0  0  0
    1.7609    3.3372   -1.1641 H   0  0  0  0  0  0  0  0  0  0  0  0
    0.0448    3.7041   -0.9249 H   0  0  0  0  0  0  0  0  0  0  0  0
    2.7187    0.3876   -1.6489 H   0  0  0  0  0  0  0  0  0  0  0  0
    3.8502    0.3193   -0.2964 H   0  0  0  0  0  0  0  0  0  0  0  0
    3.3855    1.8892   -0.9720 H   0  0  0  0  0  0  0  0  0  0  0  0
   -1.4717    3.7086    0.0675 N   0  0  0  0  0  0  0  0  0  0  0  0
   -2.4224    4.7225   -0.3283 C   0  0  2  0  0  0  0  0  0  0  0  0
   -1.9668    6.0504    0.2621 C   0  0  0  0  0  0  0  0  0  0  0  0
   -1.2264    6.1310    1.2401 O   0  0  0  0  0  0  0  0  0  0  0  0
   -3.8280    4.3747    0.1366 C   0  0  0  0  0  0  0  0  0  0  0  0
   -0.5165    3.9930    0.2634 H   0  0  0  0  0  0  0  0  0  0  0  0
   -2.3891    4.7777   -1.4218 H   0  0  0  0  0  0  0  0  0  0  0  0
   -3.8810    4.3149    1.2298 H   0  0  0  0  0  0  0  0  0  0  0  0
   -4.5516    5.1294   -0.1886 H   0  0  0  0  0  0  0  0  0  0  0  0
   -4.1425    3.4053   -0.2649 H   0  0  0  0  0  0  0  0  0  0  0  0
   -2.5189    7.1350   -0.4051 N   0  0  0  0  0  0  0  0  0  0  0  0
   -2.2497    8.5026   -0.0265 C   0  0  0  0  0  0  0  0  0  0  0  0
   -3.1072    6.9751   -1.2175 H   0  0  0  0  0  0  0  0  0  0  0  0
   -3.0208    8.8470    0.6784 H   0  0  0  0  0  0  0  0  0  0  0  0
   -1.2616    8.5624    0.4531 H   0  0  0  0  0  0  0  0  0  0  0  0
   -2.2614    9.1401   -0.9229 H   0  0  0  0  0  0  0  0  0  0  0  0
  1  3  1  0  0  0  0
  1  7  1  0  0  0  0
  1  2  2  0  0  0  0
 37 38  1  0  0  0  0
 38 46  1  0  0  0  0
 38 39  2  0  0  0  0
  8  9  1  0  0  0  0
  9 17  1  0  0  0  0
  9 10  2  0  0  0  0
 18 19  1  0  0  0  0
 19 36  1  0  0  0  0
 19 20  2  0  0  0  0
 22 24  1  0  0  0  0
 37 40  1  0  0  0  0
  8 11  1  0  0  0  0
 21 23  1  0  0  0  0
 46 47  1  0  0  0  0
 21 22  1  0  0  0  0
 36 37  1  0  0  0  0
  7  8  1  0  0  0  0
 18 21  1  0  0  0  0
 17 18  1  0  0  0  0
  3  4  1  0  0  0  0
  3  5  1  0  0  0  0
  3  6  1  0  0  0  0
 24 33  1  0  0  0  0
 24 34  1  0  0  0  0
 24 35  1  0  0  0  0
 40 43  1  0  0  0  0
 40 44  1  0  0  0  0
 40 45  1  0  0  0  0
 11 14  1  0  0  0  0
 11 15  1  0  0  0  0
 11 16  1  0  0  0  0
 23 30  1  0  0  0  0
 23 31  1  0  0  0  0
 23 32  1  0  0  0  0
 47 49  1  0  0  0  0
 47 50  1  0  0  0  0
 47 51  1  0  0  0  0
 22 28  1  0  0  0  0
 22 29  1  0  0  0  0
 37 42  1  0  0  0  0
  8 13  1  0  0  0  0
 18 26  1  0  0  0  0
 21 27  1  0  0  0  0
 46 48  1  0  0  0  0
  7 12  1  0  0  0  0
 36 41  1  0  0  0  0
 17 25  1  0  0  0  0
M  END
$$$$

  -OEChem-05262214473D

 51 50  0     1  0  0  0  0  0999 V2000
    1.3524   -3.0009    1.4091 C   0  0  0  0  0  0  0  0  0  0  0  0
    1.8758   -1.9880    0.9598 O   0  0  0  0  0  0  0  0  0  0  0  0
    2.2030   -4.1782    1.7536 C   0  0  0  0  0  0  0  0  0  0  0  0
    2.3264   -4.8705    0.9053 H   0  0  0  0  0  0  0  0  0  0  0  0
    3.2257   -3.8876    2.0432 H   0  0  0  0  0  0  0  0  0  0  0  0
    1.8327   -4.8004    2.5839 H   0  0  0  0  0  0  0  0  0  0  0  0
    0.0005   -3.1873    1.6465 N   0  0  0  0  0  0  0  0  0  0  0  0
   -0.9949   -2.1807    1.3864 C   0  0  2  0  0  0  0  0  0  0  0  0
   -0.3083   -0.8216    1.4164 C   0  0  0  0  0  0  0  0  0  0  0  0
    0.7533   -0.6191    2.0022 O   0  0  0  0  0  0  0  0  0  0  0  0
   -2.1232   -2.2423    2.4042 C   0  0  0  0  0  0  0  0  0  0  0  0
   -0.3048   -4.0823    2.0245 H   0  0  0  0  0  0  0  0  0  0  0  0
   -1.3830   -2.3724    0.3801 H   0  0  0  0  0  0  0  0  0  0  0  0
   -1.7534   -2.0527    3.4185 H   0  0  0  0  0  0  0  0  0  0  0  0
   -2.8936   -1.4947    2.1882 H   0  0  0  0  0  0  0  0  0  0  0  0
   -2.5964   -3.2301    2.4022 H   0  0  0  0  0  0  0  0  0  0  0  0
   -1.0412    0.1517    0.7482 N   0  0  0  0  0  0  0  0  0  0  0  0
   -0.6079    1.5223    0.6467 C   0  0  2  0  0  0  0  0  0  0  0  0
   -1.7986    2.3659    0.1930 C   0  0  0  0  0  0  0  0  0  0  0  0
   -2.9602    1.9674    0.2514 O   0  0  0  0  0  0  0  0  0  0  0  0
    0.6269    1.6997   -0.2695 C   0  0  2  0  0  0  0  0  0  0  0  0
    1.8690    0.9588    0.2736 C   0  0  0  0  0  0  0  0  0  0  0  0
    0.9099    3.1913   -0.4918 C   0  0  0  0  0  0  0  0  0  0  0  0
    3.0181    0.8885   -0.7239 C   0  0  0  0  0  0  0  0  0  0  0  0
   -1.9022   -0.1128    0.2753 H   0  0  0  0  0  0  0  0  0  0  0  0
   -0.3574    1.8341    1.6688 H   0  0  0  0  0  0  0  0  0  0  0  0
    0.3849    1.2695   -1.2506 H   0  0  0  0  0  0  0  0  0  0  0  0
    2.2384    1.4697    1.1702 H   0  0  0  0  0  0  0  0  0  0  0  0
    1.6038   -0.0611    0.5763 H   0  0  0  0  0  0  0  0  0  0  0  0
    1.1599    3.6852    0.4533 H   0  0  0  0  0  0  0  0  0  0  0  0
    1.7609    3.3372   -1.1641 H   0  0  0  0  0  0  0  0  0  0  0  0
    0.0448    3.7041   -0.9249 H   0  0  0  0  0  0  0  0  0  0  0  0
    2.7187    0.3876   -1.6489 H   0  0  0  0  0  0  0  0  0  0  0  0
    3.8502    0.3193   -0.2964 H   0  0  0  0  0  0  0  0  0  0  0  0
    3.3855    1.8892   -0.9720 H   0  0  0  0  0  0  0  0  0  0  0  0
   -1.4115    3.6222   -0.2510 N   0  0  0  0  0  0  0  0  0  0  0  0
   -2.3461    4.6215   -0.7163 C   0  0  2  0  0  0  0  0  0  0  0  0
   -1.7250    5.9921   -0.4810 C   0  0  0  0  0  0  0  0  0  0  0  0
   -0.8421    6.1947    0.3500 O   0  0  0  0  0  0  0  0  0  0  0  0
   -3.6844    4.5017   -0.0040 C   0  0  0  0  0  0  0  0  0  0  0  0
   -0.4218    3.8509   -0.2490 H   0  0  0  0  0  0  0  0  0  0  0  0
   -2.4746    4.4580   -1.7918 H   0  0  0  0  0  0  0  0  0  0  0  0
   -3.5756    4.6625    1.0748 H   0  0  0  0  0  0  0  0  0  0  0  0
   -4.4004    5.2410   -0.3778 H   0  0  0  0  0  0  0  0  0  0  0  0
   -4.1155    3.5054   -0.1497 H   0  0  0  0  0  0  0  0  0  0  0  0
   -2.3028    6.9706   -1.2777 N   0  0  0  0  0  0  0  0  0  0  0  0
   -1.8951    8.3554   -1.2306 C   0  0  0  0  0  0  0  0  0  0  0  0
   -3.0157    6.7091   -1.9523 H   0  0  0  0  0  0  0  0  0  0  0  0
   -2.5282    8.9004   -0.5150 H   0  0  0  0  0  0  0  0  0  0  0  0
   -0.8442    8.4175   -0.9117 H   0  0  0  0  0  0  0  0  0  0  0  0
   -2.0022    8.8031   -2.2297 H   0  0  0  0  0  0  0  0  0  0  0  0
  1  3  1  0  0  0  0
  1  7  1  0  0  0  0
  1  2  2  0  0  0  0
 37 38  1  0  0  0  0
 38 46  1  0  0  0  0
 38 39  2  0  0  0  0
  8  9  1  0  0  0  0
  9 17  1  0  0  0  0
  9 10  2  0  0  0  0
 18 19  1  0  0  0  0
 19 36  1  0  0  0  0
 19 20  2  0  0  0  0
 22 24  1  0  0  0  0
 37 40  1  0  0  0  0
  8 11  1  0  0  0  0
 21 23  1  0  0  0  0
 46 47  1  0  0  0  0
 21 22  1  0  0  0  0
 36 37  1  0  0  0  0
  7  8  1  0  0  0  0
 18 21  1  0  0  0  0
 17 18  1  0  0  0  0
  3  4  1  0  0  0  0
  3  5  1  0  0  0  0
  3  6  1  0  0  0  0
 24 33  1  0  0  0  0
 24 34  1  0  0  0  0
 24 35  1  0  0  0  0
 40 43  1  0  0  0  0
 40 44  1  0  0  0  0
 40 45  1  0  0  0  0
 11 14  1  0  0  0  0
 11 15  1  0  0  0  0
 11 16  1  0  0  0  0
 23 30  1  0  0  0  0
 23 31  1  0  0  0  0
 23 32  1  0  0  0  0
 47 49  1  0  0  0  0
 47 50  1  0  0  0  0
 47 51  1  0  0  0  0
 22 28  1  0  0  0  0
 22 29  1  0  0  0  0
 37 42  1  0  0  0  0
  8 13  1  0  0  0  0
 18 26  1  0  0  0  0
 21 27  1  0  0  0  0
 46 48  1  0  0  0  0
  7 12  1  0  0  0  0
 36 41  1  0  0  0  0
 17 25  1  0  0  0  0
M  END
$$$$

  -OEChem-05262214473D

 51 50  0     1  0  0  0  0  0999 V2000
    1.3524   -3.0009    1.4091 C   0  0  0  0  0  0  0  0  0  0  0  0
    1.8758   -1.9880    0.9598 O   0  0  0  0  0  0  0  0  0  0  0  0
    2.2030   -4.1782    1.7536 C   0  0  0  0  0  0  0  0  0  0  0  0
    2.3264   -4.8705    0.9053 H   0  0  0  0  0  0  0  0  0  0  0  0
    3.2257   -3.8876    2.0432 H   0  0  0  0  0  0  0  0  0  0  0  0
    1.8327   -4.8004    2.5839 H   0  0  0  0  0  0  0  0  0  0  0  0
    0.0005   -3.1873    1.6465 N   0  0  0  0  0  0  0  0  0  0  0  0
   -0.9949   -2.1807    1.3864 C   0  0  2  0  0  0  0  0  0  0  0  0
   -0.3083   -0.8216    1.4164 C   0  0  0  0  0  0  0  0  0  0  0  0
    0.7533   -0.6191    2.0022 O   0  0  0  0  0  0  0  0  0  0  0  0
   -2.1232   -2.2423    2.4042 C   0  0  0  0  0  0  0  0  0  0  0  0
   -0.3048   -4.0823    2.0245 H   0  0  0  0  0  0  0  0  0  0  0  0
   -1.3830   -2.3724    0.3801 H   0  0  0  0  0  0  0  0  0  0  0  0
   -1.7534   -2.0527    3.4185 H   0  0  0  0  0  0  0  0  0  0  0  0
   -2.8936   -1.4947    2.1882 H   0  0  0  0  0  0  0  0  0  0  0  0
   -2.5964   -3.2301    2.4022 H   0  0  0  0  0  0  0  0  0  0  0  0
   -1.0412    0.1517    0.7482 N   0  0  0  0  0  0  0  0  0  0  0  0
   -0.6079    1.5223    0.6467 C   0  0  2  0  0  0  0  0  0  0  0  0
   -1.7986    2.3659    0.1930 C   0  0  0  0  0  0  0  0  0  0  0  0
   -2.9606    2.0946    0.4890 O   0  0  0  0  0  0  0  0  0  0  0  0
    0.6269    1.6997   -0.2695 C   0  0  2  0  0  0  0  0  0  0  0  0
    1.8690    0.9588    0.2736 C   0  0  0  0  0  0  0  0  0  0  0  0
    0.9099    3.1913   -0.4918 C   0  0  0  0  0  0  0  0  0  0  0  0
    3.0181    0.8885   -0.7239 C   0  0  0  0  0  0  0  0  0  0  0  0
   -1.9022   -0.1128    0.2753 H   0  0  0  0  0  0  0  0  0  0  0  0
   -0.3574    1.8341    1.6688 H   0  0  0  0  0  0  0  0  0  0  0  0
    0.3849    1.2695   -1.2506 H   0  0  0  0  0  0  0  0  0  0  0  0
    2.2384    1.4697    1.1702 H   0  0  0  0  0  0  0  0  0  0  0  0
    1.6038   -0.0611    0.5763 H   0  0  0  0  0  0  0  0  0  0  0  0
    1.1599    3.6852    0.4533 H   0  0  0  0  0  0  0  0  0  0  0  0
    1.7609    3.3372   -1.1641 H   0  0  0  0  0  0  0  0  0  0  0  0
    0.0448    3.7041   -0.9249 H   0  0  0  0  0  0  0  0  0  0  0  0
    2.7187    0.3876   -1.6489 H   0  0  0  0  0  0  0  0  0  0  0  0
    3.8502    0.3193   -0.2964 H   0  0  0  0  0  0  0  0  0  0  0  0
    3.3855    1.8892   -0.9720 H   0  0  0  0  0  0  0  0  0  0  0  0
   -1.4055    3.4700   -0.5499 N   0  0  0  0  0  0  0  0  0  0  0  0
   -2.3356    4.4399   -1.0816 C   0  0  2  0  0  0  0  0  0  0  0  0
   -1.6021    5.7673   -1.2215 C   0  0  0  0  0  0  0  0  0  0  0  0
   -0.5931    6.0473   -0.5776 O   0  0  0  0  0  0  0  0  0  0  0  0
   -3.5560    4.5850   -0.1860 C   0  0  0  0  0  0  0  0  0  0  0  0
   -0.4146    3.6031   -0.7289 H   0  0  0  0  0  0  0  0  0  0  0  0
   -2.6347    4.0811   -2.0725 H   0  0  0  0  0  0  0  0  0  0  0  0
   -3.2760    4.9436    0.8113 H   0  0  0  0  0  0  0  0  0  0  0  0
   -4.2728    5.2990   -0.6048 H   0  0  0  0  0  0  0  0  0  0  0  0
   -4.0653    3.6232   -0.0624 H   0  0  0  0  0  0  0  0  0  0  0  0
   -2.2314    6.6193   -2.1183 N   0  0  0  0  0  0  0  0  0  0  0  0
   -1.7360    7.9432   -2.4147 C   0  0  0  0  0  0  0  0  0  0  0  0
   -3.0528    6.2969   -2.6215 H   0  0  0  0  0  0  0  0  0  0  0  0
   -2.2188    8.6735   -1.7488 H   0  0  0  0  0  0  0  0  0  0  0  0
   -0.6472    7.9702   -2.2604 H   0  0  0  0  0  0  0  0  0  0  0  0
   -1.9644    8.1942   -3.4611 H   0  0  0  0  0  0  0  0  0  0  0  0
  1  3  1  0  0  0  0
  1  7  1  0  0  0  0
  1  2  2  0  0  0  0
 37 38  1  0  0  0  0
 38 46  1  0  0  0  0
 38 39  2  0  0  0  0
  8  9  1  0  0  0  0
  9 17  1  0  0  0  0
  9 10  2  0  0  0  0
 18 19  1  0  0  0  0
 19 36  1  0  0  0  0
 19 20  2  0  0  0  0
 22 24  1  0  0  0  0
 37 40  1  0  0  0  0
  8 11  1  0  0  0  0
 21 23  1  0  0  0  0
 46 47  1  0  0  0  0
 21 22  1  0  0  0  0
 36 37  1  0  0  0  0
  7  8  1  0  0  0  0
 18 21  1  0  0  0  0
 17 18  1  0  0  0  0
  3  4  1  0  0  0  0
  3  5  1  0  0  0  0
  3  6  1  0  0  0  0
 24 33  1  0  0  0  0
 24 34  1  0  0  0  0
 24 35  1  0  0  0  0
 40 43  1  0  0  0  0
 40 44  1  0  0  0  0
 40 45  1  0  0  0  0
 11 14  1  0  0  0  0
 11 15  1  0  0  0  0
 11 16  1  0  0  0  0
 23 30  1  0  0  0  0
 23 31  1  0  0  0  0
 23 32  1  0  0  0  0
 47 49  1  0  0  0  0
 47 50  1  0  0  0  0
 47 51  1  0  0  0  0
 22 28  1  0  0  0  0
 22 29  1  0  0  0  0
 37 42  1  0  0  0  0
  8 13  1  0  0  0  0
 18 26  1  0  0  0  0
 21 27  1  0  0  0  0
 46 48  1  0  0  0  0
  7 12  1  0  0  0  0
 36 41  1  0  0  0  0
 17 25  1  0  0  0  0
M  END
$$$$

  -OEChem-05262214473D

 51 50  0     1  0  0  0  0  0999 V2000
    1.3524   -3.0009    1.4091 C   0  0  0  0  0  0  0  0  0  0  0  0
    1.8758   -1.9880    0.9598 O   0  0  0  0  0  0  0  0  0  0  0  0
    2.2030   -4.1782    1.7536 C   0  0  0  0  0  0  0  0  0  0  0  0
    2.3264   -4.8705    0.9053 H   0  0  0  0  0  0  0  0  0  0  0  0
    3.2257   -3.8876    2.0432 H   0  0  0  0  0  0  0  0  0  0  0  0
    1.8327   -4.8004    2.5839 H   0  0  0  0  0  0  0  0  0  0  0  0
    0.0005   -3.1873    1.6465 N   0  0  0  0  0  0  0  0  0  0  0  0
   -0.9949   -2.1807    1.3864 C   0  0  2  0  0  0  0  0  0  0  0  0
   -0.3083   -0.8216    1.4164 C   0  0  0  0  0  0  0  0  0  0  0  0
    0.7533   -0.6191    2.0022 O   0  0  0  0  0  0  0  0  0  0  0  0
   -2.1232   -2.2423    2.4042 C   0  0  0  0  0  0  0  0  0  0  0  0
   -0.3048   -4.0823    2.0245 H   0  0  0  0  0  0  0  0  0  0  0  0
   -1.3830   -2.3724    0.3801 H   0  0  0  0  0  0  0  0  0  0  0  0
   -1.7534   -2.0527    3.4185 H   0  0  0  0  0  0  0  0  0  0  0  0
   -2.8936   -1.4947    2.1882 H   0  0  0  0  0  0  0  0  0  0  0  0
   -2.5964   -3.2301    2.4022 H   0  0  0  0  0  0  0  0  0  0  0  0
   -1.0412    0.1517    0.7482 N   0  0  0  0  0  0  0  0  0  0  0  0
   -0.6079    1.5223    0.6467 C   0  0  2  0  0  0  0  0  0  0  0  0
   -1.7986    2.3659    0.1930 C   0  0  0  0  0  0  0  0  0  0  0  0
   -2.9173    2.2653    0.6929 O   0  0  0  0  0  0  0  0  0  0  0  0
    0.6269    1.6997   -0.2695 C   0  0  2  0  0  0  0  0  0  0  0  0
    1.8690    0.9588    0.2736 C   0  0  0  0  0  0  0  0  0  0  0  0
    0.9099    3.1913   -0.4918 C   0  0  0  0  0  0  0  0  0  0  0  0
    3.0181    0.8885   -0.7239 C   0  0  0  0  0  0  0  0  0  0  0  0
   -1.9022   -0.1128    0.2753 H   0  0  0  0  0  0  0  0  0  0  0  0
   -0.3574    1.8341    1.6688 H   0  0  0  0  0  0  0  0  0  0  0  0
    0.3849    1.2695   -1.2506 H   0  0  0  0  0  0  0  0  0  0  0  0
    2.2384    1.4697    1.1702 H   0  0  0  0  0  0  0  0  0  0  0  0
    1.6038   -0.0611    0.5763 H   0  0  0  0  0  0  0  0  0  0  0  0
    1.1599    3.6852    0.4533 H   0  0  0  0  0  0  0  0  0  0  0  0
    1.7609    3.3372   -1.1641 H   0  0  0  0  0  0  0  0  0  0  0  0
    0.0448    3.7041   -0.9249 H   0  0  0  0  0  0  0  0  0  0  0  0
    2.7187    0.3876   -1.6489 H   0  0  0  0  0  0  0  0  0  0  0  0
    3.8502    0.3193   -0.2964 H   0  0  0  0  0  0  0  0  0  0  0  0
    3.3855    1.8892   -0.9720 H   0  0  0  0  0  0  0  0  0  0  0  0
   -1.4541    3.2622   -0.8087 N   0  0  0  0  0  0  0  0  0  0  0  0
   -2.3915    4.1900   -1.3994 C   0  0  2  0  0  0  0  0  0  0  0  0
   -1.6064    5.3913   -1.9090 C   0  0  0  0  0  0  0  0  0  0  0  0
   -0.4965    5.6986   -1.4793 O   0  0  0  0  0  0  0  0  0  0  0  0
   -3.4516    4.6189   -0.3969 C   0  0  0  0  0  0  0  0  0  0  0  0
   -0.4951    3.2664   -1.1435 H   0  0  0  0  0  0  0  0  0  0  0  0
   -2.8584    3.6727   -2.2447 H   0  0  0  0  0  0  0  0  0  0  0  0
   -3.0027    5.1390    0.4573 H   0  0  0  0  0  0  0  0  0  0  0  0
   -4.1776    5.2995   -0.8539 H   0  0  0  0  0  0  0  0  0  0  0  0
   -3.9953    3.7507   -0.0091 H   0  0  0  0  0  0  0  0  0  0  0  0
   -2.3095    6.1049   -2.8696 N   0  0  0  0  0  0  0  0  0  0  0  0
   -1.7831    7.2940   -3.4980 C   0  0  0  0  0  0  0  0  0  0  0  0
   -3.2158    5.7667   -3.1795 H   0  0  0  0  0  0  0  0  0  0  0  0
   -2.1136    8.1818   -2.9390 H   0  0  0  0  0  0  0  0  0  0  0  0
   -0.6839    7.2510   -3.5011 H   0  0  0  0  0  0  0  0  0  0  0  0
   -2.1505    7.3548   -4.5331 H   0  0  0  0  0  0  0  0  0  0  0  0
  1  3  1  0  0  0  0
  1  7  1  0  0  0  0
  1  2  2  0  0  0  0
 37 38  1  0  0  0  0
 38 46  1  0  0  0  0
 38 39  2  0  0  0  0
  8  9  1  0  0  0  0
  9 17  1  0  0  0  0
  9 10  2  0  0  0  0
 18 19  1  0  0  0  0
 19 36  1  0  0  0  0
 19 20  2  0  0  0  0
 22 24  1  0  0  0  0
 37 40  1  0  0  0  0
  8 11  1  0  0  0  0
 21 23  1  0  0  0  0
 46 47  1  0  0  0  0
 21 22  1  0  0  0  0
 36 37  1  0  0  0  0
  7  8  1  0  0  0  0
 18 21  1  0  0  0  0
 17 18  1  0  0  0  0
  3  4  1  0  0  0  0
  3  5  1  0  0  0  0
  3  6  1  0  0  0  0
 24 33  1  0  0  0  0
 24 34  1  0  0  0  0
 24 35  1  0  0  0  0
 40 43  1  0  0  0  0
 40 44  1  0  0  0  0
 40 45  1  0  0  0  0
 11 14  1  0  0  0  0
 11 15  1  0  0  0  0
 11 16  1  0  0  0  0
 23 30  1  0  0  0  0
 23 31  1  0  0  0  0
 23 32  1  0  0  0  0
 47 49  1  0  0  0  0
 47 50  1  0  0  0  0
 47 51  1  0  0  0  0
 22 28  1  0  0  0  0
 22 29  1  0  0  0  0
 37 42  1  0  0  0  0
  8 13  1  0  0  0  0
 18 26  1  0  0  0  0
 21 27  1  0  0  0  0
 46 48  1  0  0  0  0
  7 12  1  0  0  0  0
 36 41  1  0  0  0  0
 17 25  1  0  0  0  0
M  END
$$$$

  -OEChem-05262214473D

 51 50  0     1  0  0  0  0  0999 V2000
    1.3524   -3.0009    1.4091 C   0  0  0  0  0  0  0  0  0  0  0  0
    1.8758   -1.9880    0.9598 O   0  0  0  0  0  0  0  0  0  0  0  0
    2.2030   -4.1782    1.7536 C   0  0  0  0  0  0  0  0  0  0  0  0
    2.3264   -4.8705    0.9053 H   0  0  0  0  0  0  0  0  0  0  0  0
    3.2257   -3.8876    2.0432 H   0  0  0  0  0  0  0  0  0  0  0  0
    1.8327   -4.8004    2.5839 H   0  0  0  0  0  0  0  0  0  0  0  0
    0.0005   -3.1873    1.6465 N   0  0  0  0  0  0  0  0  0  0  0  0
   -0.9949   -2.1807    1.3864 C   0  0  2  0  0  0  0  0  0  0  0  0
   -0.3083   -0.8216    1.4164 C   0  0  0  0  0  0  0  0  0  0  0  0
    0.7533   -0.6191    2.0022 O   0  0  0  0  0  0  0  0  0  0  0  0
   -2.1232   -2.2423    2.4042 C   0  0  0  0  0  0  0  0  0  0  0  0
   -0.3048   -4.0823    2.0245 H   0  0  0  0  0  0  0  0  0  0  0  0
   -1.3830   -2.3724    0.3801 H   0  0  0  0  0  0  0  0  0  0  0  0
   -1.7534   -2.0527    3.4185 H   0  0  0  0  0  0  0  0  0  0  0  0
   -2.8936   -1.4947    2.1882 H   0  0  0  0  0  0  0  0  0  0  0  0
   -2.5964   -3.2301    2.4022 H   0  0  0  0  0  0  0  0  0  0  0  0
   -1.0412    0.1517    0.7482 N   0  0  0  0  0  0  0  0  0  0  0  0
   -0.6079    1.5223    0.6467 C   0  0  2  0  0  0  0  0  0  0  0  0
   -1.7986    2.3659    0.1930 C   0  0  0  0  0  0  0  0  0  0  0  0
   -2.8332    2.4681    0.8492 O   0  0  0  0  0  0  0  0  0  0  0  0
    0.6269    1.6997   -0.2695 C   0  0  2  0  0  0  0  0  0  0  0  0
    1.8690    0.9588    0.2736 C   0  0  0  0  0  0  0  0  0  0  0  0
    0.9099    3.1913   -0.4918 C   0  0  0  0  0  0  0  0  0  0  0  0
    3.0181    0.8885   -0.7239 C   0  0  0  0  0  0  0  0  0  0  0  0
   -1.9022   -0.1128    0.2753 H   0  0  0  0  0  0  0  0  0  0  0  0
   -0.3574    1.8341    1.6688 H   0  0  0  0  0  0  0  0  0  0  0  0
    0.3849    1.2695   -1.2506 H   0  0  0  0  0  0  0  0  0  0  0  0
    2.2384    1.4697    1.1702 H   0  0  0  0  0  0  0  0  0  0  0  0
    1.6038   -0.0611    0.5763 H   0  0  0  0  0  0  0  0  0  0  0  0
    1.1599    3.6852    0.4533 H   0  0  0  0  0  0  0  0  0  0  0  0
    1.7609    3.3372   -1.1641 H   0  0  0  0  0  0  0  0  0  0  0  0
    0.0448    3.7041   -0.9249 H   0  0  0  0  0  0  0  0  0  0  0  0
    2.7187    0.3876   -1.6489 H   0  0  0  0  0  0  0  0  0  0  0  0
    3.8502    0.3193   -0.2964 H   0  0  0  0  0  0  0  0  0  0  0  0
    3.3855    1.8892   -0.9720 H   0  0  0  0  0  0  0  0  0  0  0  0
   -1.5539    3.0130   -1.0098 N   0  0  0  0  0  0  0  0  0  0  0  0
   -2.5102    3.8888   -1.6479 C   0  0  2  0  0  0  0  0  0  0  0  0
   -1.7378    4.8899   -2.4967 C   0  0  0  0  0  0  0  0  0  0  0  0
   -0.5588    5.1726   -2.2938 O   0  0  0  0  0  0  0  0  0  0  0  0
   -3.3783    4.6011   -0.6224 C   0  0  0  0  0  0  0  0  0  0  0  0
   -0.6581    2.8637   -1.4646 H   0  0  0  0  0  0  0  0  0  0  0  0
   -3.1304    3.2607   -2.2967 H   0  0  0  0  0  0  0  0  0  0  0  0
   -2.7743    5.2353    0.0369 H   0  0  0  0  0  0  0  0  0  0  0  0
   -4.1211    5.2424   -1.1082 H   0  0  0  0  0  0  0  0  0  0  0  0
   -3.9102    3.8793    0.0067 H   0  0  0  0  0  0  0  0  0  0  0  0
   -2.5319    5.4626   -3.4804 N   0  0  0  0  0  0  0  0  0  0  0  0
   -2.0333    6.4521   -4.4068 C   0  0  0  0  0  0  0  0  0  0  0  0
   -3.4937    5.1545   -3.5882 H   0  0  0  0  0  0  0  0  0  0  0  0
   -2.2199    7.4587   -4.0045 H   0  0  0  0  0  0  0  0  0  0  0  0
   -0.9520    6.3089   -4.5492 H   0  0  0  0  0  0  0  0  0  0  0  0
   -2.5481    6.3421   -5.3727 H   0  0  0  0  0  0  0  0  0  0  0  0
  1  3  1  0  0  0  0
  1  7  1  0  0  0  0
  1  2  2  0  0  0  0
 37 38  1  0  0  0  0
 38 46  1  0  0  0  0
 38 39  2  0  0  0  0
  8  9  1  0  0  0  0
  9 17  1  0  0  0  0
  9 10  2  0  0  0  0
 18 19  1  0  0  0  0
 19 36  1  0  0  0  0
 19 20  2  0  0  0  0
 22 24  1  0  0  0  0
 37 40  1  0  0  0  0
  8 11  1  0  0  0  0
 21 23  1  0  0  0  0
 46 47  1  0  0  0  0
 21 22  1  0  0  0  0
 36 37  1  0  0  0  0
  7  8  1  0  0  0  0
 18 21  1  0  0  0  0
 17 18  1  0  0  0  0
  3  4  1  0  0  0  0
  3  5  1  0  0  0  0
  3  6  1  0  0  0  0
 24 33  1  0  0  0  0
 24 34  1  0  0  0  0
 24 35  1  0  0  0  0
 40 43  1  0  0  0  0
 40 44  1  0  0  0  0
 40 45  1  0  0  0  0
 11 14  1  0  0  0  0
 11 15  1  0  0  0  0
 11 16  1  0  0  0  0
 23 30  1  0  0  0  0
 23 31  1  0  0  0  0
 23 32  1  0  0  0  0
 47 49  1  0  0  0  0
 47 50  1  0  0  0  0
 47 51  1  0  0  0  0
 22 28  1  0  0  0  0
 22 29  1  0  0  0  0
 37 42  1  0  0  0  0
  8 13  1  0  0  0  0
 18 26  1  0  0  0  0
 21 27  1  0  0  0  0
 46 48  1  0  0  0  0
  7 12  1  0  0  0  0
 36 41  1  0  0  0  0
 17 25  1  0  0  0  0
M  END
$$$$

  -OEChem-05262214473D

 51 50  0     1  0  0  0  0  0999 V2000
    1.3524   -3.0009    1.4091 C   0  0  0  0  0  0  0  0  0  0  0  0
    1.8758   -1.9880    0.9598 O   0  0  0  0  0  0  0  0  0  0  0  0
    2.2030   -4.1782    1.7536 C   0  0  0  0  0  0  0  0  0  0  0  0
    2.3264   -4.8705    0.9053 H   0  0  0  0  0  0  0  0  0  0  0  0
    3.2257   -3.8876    2.0432 H   0  0  0  0  0  0  0  0  0  0  0  0
    1.8327   -4.8004    2.5839 H   0  0  0  0  0  0  0  0  0  0  0  0
    0.0005   -3.1873    1.6465 N   0  0  0  0  0  0  0  0  0  0  0  0
   -0.9949   -2.1807    1.3864 C   0  0  2  0  0  0  0  0  0  0  0  0
   -0.3083   -0.8216    1.4164 C   0  0  0  0  0  0  0  0  0  0  0  0
    0.7533   -0.6191    2.0022 O   0  0  0  0  0  0  0  0  0  0  0  0
   -2.1232   -2.2423    2.4042 C   0  0  0  0  0  0  0  0  0  0  0  0
   -0.3048   -4.0823    2.0245 H   0  0  0  0  0  0  0  0  0  0  0  0
   -1.3830   -2.3724    0.3801 H   0  0  0  0  0  0  0  0  0  0  0  0
   -1.7534   -2.0527    3.4185 H   0  0  0  0  0  0  0  0  0  0  0  0
   -2.8936   -1.4947    2.1882 H   0  0  0  0  0  0  0  0  0  0  0  0
   -2.5964   -3.2301    2.4022 H   0  0  0  0  0  0  0  0  0  0  0  0
   -1.0412    0.1517    0.7482 N   0  0  0  0  0  0  0  0  0  0  0  0
   -0.6079    1.5223    0.6467 C   0  0  2  0  0  0  0  0  0  0  0  0
   -1.7986    2.3659    0.1930 C   0  0  0  0  0  0  0  0  0  0  0  0
   -2.7141    2.6890    0.9473 O   0  0  0  0  0  0  0  0  0  0  0  0
    0.6269    1.6997   -0.2695 C   0  0  2  0  0  0  0  0  0  0  0  0
    1.8690    0.9588    0.2736 C   0  0  0  0  0  0  0  0  0  0  0  0
    0.9099    3.1913   -0.4918 C   0  0  0  0  0  0  0  0  0  0  0  0
    3.0181    0.8885   -0.7239 C   0  0  0  0  0  0  0  0  0  0  0  0
   -1.9022   -0.1128    0.2753 H   0  0  0  0  0  0  0  0  0  0  0  0
   -0.3574    1.8341    1.6688 H   0  0  0  0  0  0  0  0  0  0  0  0
    0.3849    1.2695   -1.2506 H   0  0  0  0  0  0  0  0  0  0  0  0
    2.2384    1.4697    1.1702 H   0  0  0  0  0  0  0  0  0  0  0  0
    1.6038   -0.0611    0.5763 H   0  0  0  0  0  0  0  0  0  0  0  0
    1.1599    3.6852    0.4533 H   0  0  0  0  0  0  0  0  0  0  0  0
    1.7609    3.3372   -1.1641 H   0  0  0  0  0  0  0  0  0  0  0  0
    0.0448    3.7041   -0.9249 H   0  0  0  0  0  0  0  0  0  0  0  0
    2.7187    0.3876   -1.6489 H   0  0  0  0  0  0  0  0  0  0  0  0
    3.8502    0.3193   -0.2964 H   0  0  0  0  0  0  0  0  0  0  0  0
    3.3855    1.8892   -0.9720 H   0  0  0  0  0  0  0  0  0  0  0  0
   -1.6983    2.7394   -1.1396 N   0  0  0  0  0  0  0  0  0  0  0  0
   -2.6835    3.5568   -1.8103 C   0  0  2  0  0  0  0  0  0  0  0  0
   -1.9871    4.2971   -2.9444 C   0  0  0  0  0  0  0  0  0  0  0  0
   -0.7757    4.5051   -2.9656 O   0  0  0  0  0  0  0  0  0  0  0  0
   -3.3411    4.5328   -0.8471 C   0  0  0  0  0  0  0  0  0  0  0  0
   -0.8923    2.4225   -1.6702 H   0  0  0  0  0  0  0  0  0  0  0  0
   -3.4323    2.8732   -2.2251 H   0  0  0  0  0  0  0  0  0  0  0  0
   -2.6064    5.2259   -0.4213 H   0  0  0  0  0  0  0  0  0  0  0  0
   -4.1073    5.1316   -1.3504 H   0  0  0  0  0  0  0  0  0  0  0  0
   -3.8159    4.0001   -0.0161 H   0  0  0  0  0  0  0  0  0  0  0  0
   -2.8833    4.7360   -3.9090 N   0  0  0  0  0  0  0  0  0  0  0  0
   -2.4695    5.4748   -5.0791 C   0  0  0  0  0  0  0  0  0  0  0  0
   -3.8677    4.5021   -3.8198 H   0  0  0  0  0  0  0  0  0  0  0  0
   -2.5303    6.5535   -4.8727 H   0  0  0  0  0  0  0  0  0  0  0  0
   -1.4330    5.2081   -5.3334 H   0  0  0  0  0  0  0  0  0  0  0  0
   -3.1298    5.2251   -5.9227 H   0  0  0  0  0  0  0  0  0  0  0  0
  1  3  1  0  0  0  0
  1  7  1  0  0  0  0
  1  2  2  0  0  0  0
 37 38  1  0  0  0  0
 38 46  1  0  0  0  0
 38 39  2  0  0  0  0
  8  9  1  0  0  0  0
  9 17  1  0  0  0  0
  9 10  2  0  0  0  0
 18 19  1  0  0  0  0
 19 36  1  0  0  0  0
 19 20  2  0  0  0  0
 22 24  1  0  0  0  0
 37 40  1  0  0  0  0
  8 11  1  0  0  0  0
 21 23  1  0  0  0  0
 46 47  1  0  0  0  0
 21 22  1  0  0  0  0
 36 37  1  0  0  0  0
  7  8  1  0  0  0  0
 18 21  1  0  0  0  0
 17 18  1  0  0  0  0
  3  4  1  0  0  0  0
  3  5  1  0  0  0  0
  3  6  1  0  0  0  0
 24 33  1  0  0  0  0
 24 34  1  0  0  0  0
 24 35  1  0  0  0  0
 40 43  1  0  0  0  0
 40 44  1  0  0  0  0
 40 45  1  0  0  0  0
 11 14  1  0  0  0  0
 11 15  1  0  0  0  0
 11 16  1  0  0  0  0
 23 30  1  0  0  0  0
 23 31  1  0  0  0  0
 23 32  1  0  0  0  0
 47 49  1  0  0  0  0
 47 50  1  0  0  0  0
 47 51  1  0  0  0  0
 22 28  1  0  0  0  0
 22 29  1  0  0  0  0
 37 42  1  0  0  0  0
  8 13  1  0  0  0  0
 18 26  1  0  0  0  0
 21 27  1  0  0  0  0
 46 48  1  0  0  0  0
  7 12  1  0  0  0  0
 36 41  1  0  0  0  0
 17 25  1  0  0  0  0
M  END
$$$$

  -OEChem-05262214473D

 51 50  0     1  0  0  0  0  0999 V2000
    1.3524   -3.0009    1.4091 C   0  0  0  0  0  0  0  0  0  0  0  0
    1.8758   -1.9880    0.9598 O   0  0  0  0  0  0  0  0  0  0  0  0
    2.2030   -4.1782    1.7536 C   0  0  0  0  0  0  0  0  0  0  0  0
    2.3264   -4.8705    0.9053 H   0  0  0  0  0  0  0  0  0  0  0  0
    3.2257   -3.8876    2.0432 H   0  0  0  0  0  0  0  0  0  0  0  0
    1.8327   -4.8004    2.5839 H   0  0  0  0  0  0  0  0  0  0  0  0
    0.0005   -3.1873    1.6465 N   0  0  0  0  0  0  0  0  0  0  0  0
   -0.9949   -2.1807    1.3864 C   0  0  2  0  0  0  0  0  0  0  0  0
   -0.3083   -0.8216    1.4164 C   0  0  0  0  0  0  0  0  0  0  0  0
    0.7533   -0.6191    2.0022 O   0  0  0  0  0  0  0  0  0  0  0  0
   -2.1232   -2.2423    2.4042 C   0  0  0  0  0  0  0  0  0  0  0  0
   -0.3048   -4.0823    2.0245 H   0  0  0  0  0  0  0  0  0  0  0  0
   -1.3830   -2.3724    0.3801 H   0  0  0  0  0  0  0  0  0  0  0  0
   -1.7534   -2.0527    3.4185 H   0  0  0  0  0  0  0  0  0  0  0  0
   -2.8936   -1.4947    2.1882 H   0  0  0  0  0  0  0  0  0  0  0  0
   -2.5964   -3.2301    2.4022 H   0  0  0  0  0  0  0  0  0  0  0  0
   -1.0412    0.1517    0.7482 N   0  0  0  0  0  0  0  0  0  0  0  0
   -0.6079    1.5223    0.6467 C   0  0  2  0  0  0  0  0  0  0  0  0
   -1.7986    2.3659    0.1930 C   0  0  0  0  0  0  0  0  0  0  0  0
   -2.5680    2.9130    0.9805 O   0  0  0  0  0  0  0  0  0  0  0  0
    0.6269    1.6997   -0.2695 C   0  0  2  0  0  0  0  0  0  0  0  0
    1.8690    0.9588    0.2736 C   0  0  0  0  0  0  0  0  0  0  0  0
    0.9099    3.1913   -0.4918 C   0  0  0  0  0  0  0  0  0  0  0  0
    3.0181    0.8885   -0.7239 C   0  0  0  0  0  0  0  0  0  0  0  0
   -1.9022   -0.1128    0.2753 H   0  0  0  0  0  0  0  0  0  0  0  0
   -0.3574    1.8341    1.6688 H   0  0  0  0  0  0  0  0  0  0  0  0
    0.3849    1.2695   -1.2506 H   0  0  0  0  0  0  0  0  0  0  0  0
    2.2384    1.4697    1.1702 H   0  0  0  0  0  0  0  0  0  0  0  0
    1.6038   -0.0611    0.5763 H   0  0  0  0  0  0  0  0  0  0  0  0
    1.1599    3.6852    0.4533 H   0  0  0  0  0  0  0  0  0  0  0  0
    1.7609    3.3372   -1.1641 H   0  0  0  0  0  0  0  0  0  0  0  0
    0.0448    3.7041   -0.9249 H   0  0  0  0  0  0  0  0  0  0  0  0
    2.7187    0.3876   -1.6489 H   0  0  0  0  0  0  0  0  0  0  0  0
    3.8502    0.3193   -0.2964 H   0  0  0  0  0  0  0  0  0  0  0  0
    3.3855    1.8892   -0.9720 H   0  0  0  0  0  0  0  0  0  0  0  0
   -1.8773    2.4601   -1.1892 N   0  0  0  0  0  0  0  0  0  0  0  0
   -2.8996    3.2168   -1.8754 C   0  0  2  0  0  0  0  0  0  0  0  0
   -2.3375    3.6534   -3.2218 C   0  0  0  0  0  0  0  0  0  0  0  0
   -1.1326    3.7414   -3.4489 O   0  0  0  0  0  0  0  0  0  0  0  0
   -3.3425    4.4187   -1.0556 C   0  0  0  0  0  0  0  0  0  0  0  0
   -1.1818    1.9729   -1.7464 H   0  0  0  0  0  0  0  0  0  0  0  0
   -3.7434    2.5365   -2.0345 H   0  0  0  0  0  0  0  0  0  0  0  0
   -2.5103    5.1116   -0.8859 H   0  0  0  0  0  0  0  0  0  0  0  0
   -4.1371    4.9747   -1.5640 H   0  0  0  0  0  0  0  0  0  0  0  0
   -3.7188    4.1050   -0.0760 H   0  0  0  0  0  0  0  0  0  0  0  0
   -3.3397    3.9748   -4.1264 N   0  0  0  0  0  0  0  0  0  0  0  0
   -3.0619    4.4287   -5.4690 C   0  0  0  0  0  0  0  0  0  0  0  0
   -4.3121    3.8540   -3.8586 H   0  0  0  0  0  0  0  0  0  0  0  0
   -3.0238    5.5280   -5.4845 H   0  0  0  0  0  0  0  0  0  0  0  0
   -2.0943    4.0237   -5.8001 H   0  0  0  0  0  0  0  0  0  0  0  0
   -3.8561    4.0800   -6.1455 H   0  0  0  0  0  0  0  0  0  0  0  0
  1  3  1  0  0  0  0
  1  7  1  0  0  0  0
  1  2  2  0  0  0  0
 37 38  1  0  0  0  0
 38 46  1  0  0  0  0
 38 39  2  0  0  0  0
  8  9  1  0  0  0  0
  9 17  1  0  0  0  0
  9 10  2  0  0  0  0
 18 19  1  0  0  0  0
 19 36  1  0  0  0  0
 19 20  2  0  0  0  0
 22 24  1  0  0  0  0
 37 40  1  0  0  0  0
  8 11  1  0  0  0  0
 21 23  1  0  0  0  0
 46 47  1  0  0  0  0
 21 22  1  0  0  0  0
 36 37  1  0  0  0  0
  7  8  1  0  0  0  0
 18 21  1  0  0  0  0
 17 18  1  0  0  0  0
  3  4  1  0  0  0  0
  3  5  1  0  0  0  0
  3  6  1  0  0  0  0
 24 33  1  0  0  0  0
 24 34  1  0  0  0  0
 24 35  1  0  0  0  0
 40 43  1  0  0  0  0
 40 44  1  0  0  0  0
 40 45  1  0  0  0  0
 11 14  1  0  0  0  0
 11 15  1  0  0  0  0
 11 16  1  0  0  0  0
 23 30  1  0  0  0  0
 23 31  1  0  0  0  0
 23 32  1  0  0  0  0
 47 49  1  0  0  0  0
 47 50  1  0  0  0  0
 47 51  1  0  0  0  0
 22 28  1  0  0  0  0
 22 29  1  0  0  0  0
 37 42  1  0  0  0  0
  8 13  1  0  0  0  0
 18 26  1  0  0  0  0
 21 27  1  0  0  0  0
 46 48  1  0  0  0  0
  7 12  1  0  0  0  0
 36 41  1  0  0  0  0
 17 25  1  0  0  0  0
M  END
$$$$

  -OEChem-05262214473D

 51 50  0     1  0  0  0  0  0999 V2000
    1.3524   -3.0009    1.4091 C   0  0  0  0  0  0  0  0  0  0  0  0
    1.8758   -1.9880    0.9598 O   0  0  0  0  0  0  0  0  0  0  0  0
    2.2030   -4.1782    1.7536 C   0  0  0  0  0  0  0  0  0  0  0  0
    2.3264   -4.8705    0.9053 H   0  0  0  0  0  0  0  0  0  0  0  0
    3.2257   -3.8876    2.0432 H   0  0  0  0  0  0  0  0  0  0  0  0
    1.8327   -4.8004    2.5839 H   0  0  0  0  0  0  0  0  0  0  0  0
    0.0005   -3.1873    1.6465 N   0  0  0  0  0  0  0  0  0  0  0  0
   -0.9949   -2.1807    1.3864 C   0  0  2  0  0  0  0  0  0  0  0  0
   -0.3083   -0.8216    1.4164 C   0  0  0  0  0  0  0  0  0  0  0  0
    0.7533   -0.6191    2.0022 O   0  0  0  0  0  0  0  0  0  0  0  0
   -2.1232   -2.2423    2.4042 C   0  0  0  0  0  0  0  0  0  0  0  0
   -0.3048   -4.0823    2.0245 H   0  0  0  0  0  0  0  0  0  0  0  0
   -1.3830   -2.3724    0.3801 H   0  0  0  0  0  0  0  0  0  0  0  0
   -1.7534   -2.0527    3.4185 H   0  0  0  0  0  0  0  0  0  0  0  0
   -2.8936   -1.4947    2.1882 H   0  0  0  0  0  0  0  0  0  0  0  0
   -2.5964   -3.2301    2.4022 H   0  0  0  0  0  0  0  0  0  0  0  0
   -1.0412    0.1517    0.7482 N   0  0  0  0  0  0  0  0  0  0  0  0
   -0.6079    1.5223    0.6467 C   0  0  2  0  0  0  0  0  0  0  0  0
   -1.7986    2.3659    0.1930 C   0  0  0  0  0  0  0  0  0  0  0  0
   -2.4050    3.1249    0.9465 O   0  0  0  0  0  0  0  0  0  0  0  0
    0.6269    1.6997   -0.2695 C   0  0  2  0  0  0  0  0  0  0  0  0
    1.8690    0.9588    0.2736 C   0  0  0  0  0  0  0  0  0  0  0  0
    0.9099    3.1913   -0.4918 C   0  0  0  0  0  0  0  0  0  0  0  0
    3.0181    0.8885   -0.7239 C   0  0  0  0  0  0  0  0  0  0  0  0
   -1.9022   -0.1128    0.2753 H   0  0  0  0  0  0  0  0  0  0  0  0
   -0.3574    1.8341    1.6688 H   0  0  0  0  0  0  0  0  0  0  0  0
    0.3849    1.2695   -1.2506 H   0  0  0  0  0  0  0  0  0  0  0  0
    2.2384    1.4697    1.1702 H   0  0  0  0  0  0  0  0  0  0  0  0
    1.6038   -0.0611    0.5763 H   0  0  0  0  0  0  0  0  0  0  0  0
    1.1599    3.6852    0.4533 H   0  0  0  0  0  0  0  0  0  0  0  0
    1.7609    3.3372   -1.1641 H   0  0  0  0  0  0  0  0  0  0  0  0
    0.0448    3.7041   -0.9249 H   0  0  0  0  0  0  0  0  0  0  0  0
    2.7187    0.3876   -1.6489 H   0  0  0  0  0  0  0  0  0  0  0  0
    3.8502    0.3193   -0.2964 H   0  0  0  0  0  0  0  0  0  0  0  0
    3.3855    1.8892   -0.9720 H   0  0  0  0  0  0  0  0  0  0  0  0
   -2.0788    2.1940   -1.1551 N   0  0  0  0  0  0  0  0  0  0  0  0
   -3.1438    2.8918   -1.8388 C   0  0  2  0  0  0  0  0  0  0  0  0
   -2.7650    3.0027   -3.3098 C   0  0  0  0  0  0  0  0  0  0  0  0
   -1.6050    2.9338   -3.7108 O   0  0  0  0  0  0  0  0  0  0  0  0
   -3.3824    4.2665   -1.2339 C   0  0  0  0  0  0  0  0  0  0  0  0
   -1.5069    1.5455   -1.6879 H   0  0  0  0  0  0  0  0  0  0  0  0
   -4.0426    2.2736   -1.7382 H   0  0  0  0  0  0  0  0  0  0  0  0
   -2.4927    4.9002   -1.3253 H   0  0  0  0  0  0  0  0  0  0  0  0
   -4.2084    4.7823   -1.7345 H   0  0  0  0  0  0  0  0  0  0  0  0
   -3.6255    4.1867   -0.1688 H   0  0  0  0  0  0  0  0  0  0  0  0
   -3.8702    3.2307   -4.1176 N   0  0  0  0  0  0  0  0  0  0  0  0
   -3.7703    3.3852   -5.5501 C   0  0  0  0  0  0  0  0  0  0  0  0
   -4.7967    3.2543   -3.7018 H   0  0  0  0  0  0  0  0  0  0  0  0
   -3.6666    4.4519   -5.7980 H   0  0  0  0  0  0  0  0  0  0  0  0
   -2.8907    2.8363   -5.9175 H   0  0  0  0  0  0  0  0  0  0  0  0
   -4.6776    2.9848   -6.0261 H   0  0  0  0  0  0  0  0  0  0  0  0
  1  3  1  0  0  0  0
  1  7  1  0  0  0  0
  1  2  2  0  0  0  0
 37 38  1  0  0  0  0
 38 46  1  0  0  0  0
 38 39  2  0  0  0  0
  8  9  1  0  0  0  0
  9 17  1  0  0  0  0
  9 10  2  0  0  0  0
 18 19  1  0  0  0  0
 19 36  1  0  0  0  0
 19 20  2  0  0  0  0
 22 24  1  0  0  0  0
 37 40  1  0  0  0  0
  8 11  1  0  0  0  0
 21 23  1  0  0  0  0
 46 47  1  0  0  0  0
 21 22  1  0  0  0  0
 36 37  1  0  0  0  0
  7  8  1  0  0  0  0
 18 21  1  0  0  0  0
 17 18  1  0  0  0  0
  3  4  1  0  0  0  0
  3  5  1  0  0  0  0
  3  6  1  0  0  0  0
 24 33  1  0  0  0  0
 24 34  1  0  0  0  0
 24 35  1  0  0  0  0
 40 43  1  0  0  0  0
 40 44  1  0  0  0  0
 40 45  1  0  0  0  0
 11 14  1  0  0  0  0
 11 15  1  0  0  0  0
 11 16  1  0  0  0  0
 23 30  1  0  0  0  0
 23 31  1  0  0  0  0
 23 32  1  0  0  0  0
 47 49  1  0  0  0  0
 47 50  1  0  0  0  0
 47 51  1  0  0  0  0
 22 28  1  0  0  0  0
 22 29  1  0  0  0  0
 37 42  1  0  0  0  0
  8 13  1  0  0  0  0
 18 26  1  0  0  0  0
 21 27  1  0  0  0  0
 46 48  1  0  0  0  0
  7 12  1  0  0  0  0
 36 41  1  0  0  0  0
 17 25  1  0  0  0  0
M  END
$$$$

  -OEChem-05262214473D

 51 50  0     1  0  0  0  0  0999 V2000
    1.3524   -3.0009    1.4091 C   0  0  0  0  0  0  0  0  0  0  0  0
    1.8758   -1.9880    0.9598 O   0  0  0  0  0  0  0  0  0  0  0  0
    2.2030   -4.1782    1.7536 C   0  0  0  0  0  0  0  0  0  0  0  0
    2.3264   -4.8705    0.9053 H   0  0  0  0  0  0  0  0  0  0  0  0
    3.2257   -3.8876    2.0432 H   0  0  0  0  0  0  0  0  0  0  0  0
    1.8327   -4.8004    2.5839 H   0  0  0  0  0  0  0  0  0  0  0  0
    0.0005   -3.1873    1.6465 N   0  0  0  0  0  0  0  0  0  0  0  0
   -0.9949   -2.1807    1.3864 C   0  0  2  0  0  0  0  0  0  0  0  0
   -0.3083   -0.8216    1.4164 C   0  0  0  0  0  0  0  0  0  0  0  0
    0.7533   -0.6191    2.0022 O   0  0  0  0  0  0  0  0  0  0  0  0
   -2.1232   -2.2423    2.4042 C   0  0  0  0  0  0  0  0  0  0  0  0
   -0.3048   -4.0823    2.0245 H   0  0  0  0  0  0  0  0  0  0  0  0
   -1.3830   -2.3724    0.3801 H   0  0  0  0  0  0  0  0  0  0  0  0
   -1.7534   -2.0527    3.4185 H   0  0  0  0  0  0  0  0  0  0  0  0
   -2.8936   -1.4947    2.1882 H   0  0  0  0  0  0  0  0  0  0  0  0
   -2.5964   -3.2301    2.4022 H   0  0  0  0  0  0  0  0  0  0  0  0
   -1.0412    0.1517    0.7482 N   0  0  0  0  0  0  0  0  0  0  0  0
   -0.6079    1.5223    0.6467 C   0  0  2  0  0  0  0  0  0  0  0  0
   -1.7986    2.3659    0.1930 C   0  0  0  0  0  0  0  0  0  0  0  0
   -2.2361    3.3101    0.8476 O   0  0  0  0  0  0  0  0  0  0  0  0
    0.6269    1.6997   -0.2695 C   0  0  2  0  0  0  0  0  0  0  0  0
    1.8690    0.9588    0.2736 C   0  0  0  0  0  0  0  0  0  0  0  0
    0.9099    3.1913   -0.4918 C   0  0  0  0  0  0  0  0  0  0  0  0
    3.0181    0.8885   -0.7239 C   0  0  0  0  0  0  0  0  0  0  0  0
   -1.9022   -0.1128    0.2753 H   0  0  0  0  0  0  0  0  0  0  0  0
   -0.3574    1.8341    1.6688 H   0  0  0  0  0  0  0  0  0  0  0  0
    0.3849    1.2695   -1.2506 H   0  0  0  0  0  0  0  0  0  0  0  0
    2.2384    1.4697    1.1702 H   0  0  0  0  0  0  0  0  0  0  0  0
    1.6038   -0.0611    0.5763 H   0  0  0  0  0  0  0  0  0  0  0  0
    1.1599    3.6852    0.4533 H   0  0  0  0  0  0  0  0  0  0  0  0
    1.7609    3.3372   -1.1641 H   0  0  0  0  0  0  0  0  0  0  0  0
    0.0448    3.7041   -0.9249 H   0  0  0  0  0  0  0  0  0  0  0  0
    2.7187    0.3876   -1.6489 H   0  0  0  0  0  0  0  0  0  0  0  0
    3.8502    0.3193   -0.2964 H   0  0  0  0  0  0  0  0  0  0  0  0
    3.3855    1.8892   -0.9720 H   0  0  0  0  0  0  0  0  0  0  0  0
   -2.2890    1.9594   -1.0398 N   0  0  0  0  0  0  0  0  0  0  0  0
   -3.3994    2.6040   -1.7031 C   0  0  2  0  0  0  0  0  0  0  0  0
   -3.2405    2.3891   -3.2025 C   0  0  0  0  0  0  0  0  0  0  0  0
   -2.1608    2.1371   -3.7333 O   0  0  0  0  0  0  0  0  0  0  0  0
   -3.4581    4.0866   -1.3697 C   0  0  0  0  0  0  0  0  0  0  0  0
   -1.8453    1.1694   -1.4988 H   0  0  0  0  0  0  0  0  0  0  0  0
   -4.3094    2.1025   -1.3561 H   0  0  0  0  0  0  0  0  0  0  0  0
   -2.5547    4.6059   -1.7097 H   0  0  0  0  0  0  0  0  0  0  0  0
   -4.3164    4.5676   -1.8501 H   0  0  0  0  0  0  0  0  0  0  0  0
   -3.5424    4.2398   -0.2884 H   0  0  0  0  0  0  0  0  0  0  0  0
   -4.4386    2.5545   -3.8832 N   0  0  0  0  0  0  0  0  0  0  0  0
   -4.5464    2.4154   -5.3168 C   0  0  0  0  0  0  0  0  0  0  0  0
   -5.2885    2.7438   -3.3602 H   0  0  0  0  0  0  0  0  0  0  0  0
   -4.4151    3.3987   -5.7921 H   0  0  0  0  0  0  0  0  0  0  0  0
   -3.7680    1.7270   -5.6778 H   0  0  0  0  0  0  0  0  0  0  0  0
   -5.5381    2.0141   -5.5725 H   0  0  0  0  0  0  0  0  0  0  0  0
  1  3  1  0  0  0  0
  1  7  1  0  0  0  0
  1  2  2  0  0  0  0
 37 38  1  0  0  0  0
 38 46  1  0  0  0  0
 38 39  2  0  0  0  0
  8  9  1  0  0  0  0
  9 17  1  0  0  0  0
  9 10  2  0  0  0  0
 18 19  1  0  0  0  0
 19 36  1  0  0  0  0
 19 20  2  0  0  0  0
 22 24  1  0  0  0  0
 37 40  1  0  0  0  0
  8 11  1  0  0  0  0
 21 23  1  0  0  0  0
 46 47  1  0  0  0  0
 21 22  1  0  0  0  0
 36 37  1  0  0  0  0
  7  8  1  0  0  0  0
 18 21  1  0  0  0  0
 17 18  1  0  0  0  0
  3  4  1  0  0  0  0
  3  5  1  0  0  0  0
  3  6  1  0  0  0  0
 24 33  1  0  0  0  0
 24 34  1  0  0  0  0
 24 35  1  0  0  0  0
 40 43  1  0  0  0  0
 40 44  1  0  0  0  0
 40 45  1  0  0  0  0
 11 14  1  0  0  0  0
 11 15  1  0  0  0  0
 11 16  1  0  0  0  0
 23 30  1  0  0  0  0
 23 31  1  0  0  0  0
 23 32  1  0  0  0  0
 47 49  1  0  0  0  0
 47 50  1  0  0  0  0
 47 51  1  0  0  0  0
 22 28  1  0  0  0  0
 22 29  1  0  0  0  0
 37 42  1  0  0  0  0
  8 13  1  0  0  0  0
 18 26  1  0  0  0  0
 21 27  1  0  0  0  0
 46 48  1  0  0  0  0
  7 12  1  0  0  0  0
 36 41  1  0  0  0  0
 17 25  1  0  0  0  0
M  END
$$$$

  -OEChem-05262214473D

 51 50  0     1  0  0  0  0  0999 V2000
    1.3524   -3.0009    1.4091 C   0  0  0  0  0  0  0  0  0  0  0  0
    1.8758   -1.9880    0.9598 O   0  0  0  0  0  0  0  0  0  0  0  0
    2.2030   -4.1782    1.7536 C   0  0  0  0  0  0  0  0  0  0  0  0
    2.3264   -4.8705    0.9053 H   0  0  0  0  0  0  0  0  0  0  0  0
    3.2257   -3.8876    2.0432 H   0  0  0  0  0  0  0  0  0  0  0  0
    1.8327   -4.8004    2.5839 H   0  0  0  0  0  0  0  0  0  0  0  0
    0.0005   -3.1873    1.6465 N   0  0  0  0  0  0  0  0  0  0  0  0
   -0.9949   -2.1807    1.3864 C   0  0  2  0  0  0  0  0  0  0  0  0
   -0.3083   -0.8216    1.4164 C   0  0  0  0  0  0  0  0  0  0  0  0
    0.7533   -0.6191    2.0022 O   0  0  0  0  0  0  0  0  0  0  0  0
   -2.1232   -2.2423    2.4042 C   0  0  0  0  0  0  0  0  0  0  0  0
   -0.3048   -4.0823    2.0245 H   0  0  0  0  0  0  0  0  0  0  0  0
   -1.3830   -2.3724    0.3801 H   0  0  0  0  0  0  0  0  0  0  0  0
   -1.7534   -2.0527    3.4185 H   0  0  0  0  0  0  0  0  0  0  0  0
   -2.8936   -1.4947    2.1882 H   0  0  0  0  0  0  0  0  0  0  0  0
   -2.5964   -3.2301    2.4022 H   0  0  0  0  0  0  0  0  0  0  0  0
   -1.0412    0.1517    0.7482 N   0  0  0  0  0  0  0  0  0  0  0  0
   -0.6079    1.5223    0.6467 C   0  0  2  0  0  0  0  0  0  0  0  0
   -1.7986    2.3659    0.1930 C   0  0  0  0  0  0  0  0  0  0  0  0
   -2.0728    3.4561    0.6906 O   0  0  0  0  0  0  0  0  0  0  0  0
    0.6269    1.6997   -0.2695 C   0  0  2  0  0  0  0  0  0  0  0  0
    1.8690    0.9588    0.2736 C   0  0  0  0  0  0  0  0  0  0  0  0
    0.9099    3.1913   -0.4918 C   0  0  0  0  0  0  0  0  0  0  0  0
    3.0181    0.8885   -0.7239 C   0  0  0  0  0  0  0  0  0  0  0  0
   -1.9022   -0.1128    0.2753 H   0  0  0  0  0  0  0  0  0  0  0  0
   -0.3574    1.8341    1.6688 H   0  0  0  0  0  0  0  0  0  0  0  0
    0.3849    1.2695   -1.2506 H   0  0  0  0  0  0  0  0  0  0  0  0
    2.2384    1.4697    1.1702 H   0  0  0  0  0  0  0  0  0  0  0  0
    1.6038   -0.0611    0.5763 H   0  0  0  0  0  0  0  0  0  0  0  0
    1.1599    3.6852    0.4533 H   0  0  0  0  0  0  0  0  0  0  0  0
    1.7609    3.3372   -1.1641 H   0  0  0  0  0  0  0  0  0  0  0  0
    0.0448    3.7041   -0.9249 H   0  0  0  0  0  0  0  0  0  0  0  0
    2.7187    0.3876   -1.6489 H   0  0  0  0  0  0  0  0  0  0  0  0
    3.8502    0.3193   -0.2964 H   0  0  0  0  0  0  0  0  0  0  0  0
    3.3855    1.8892   -0.9720 H   0  0  0  0  0  0  0  0  0  0  0  0
   -2.4935    1.7722   -0.8510 N   0  0  0  0  0  0  0  0  0  0  0  0
   -3.6490    2.3730   -1.4775 C   0  0  2  0  0  0  0  0  0  0  0  0
   -3.7316    1.8547   -2.9072 C   0  0  0  0  0  0  0  0  0  0  0  0
   -2.7621    1.4058   -3.5150 O   0  0  0  0  0  0  0  0  0  0  0  0
   -3.5644    3.8912   -1.4537 C   0  0  0  0  0  0  0  0  0  0  0  0
   -2.1742    0.8703   -1.1920 H   0  0  0  0  0  0  0  0  0  0  0  0
   -4.5257    2.0347   -0.9145 H   0  0  0  0  0  0  0  0  0  0  0  0
   -2.6921    4.2489   -2.0128 H   0  0  0  0  0  0  0  0  0  0  0  0
   -4.4538    4.3452   -1.9031 H   0  0  0  0  0  0  0  0  0  0  0  0
   -3.4751    4.2606   -0.4264 H   0  0  0  0  0  0  0  0  0  0  0  0
   -5.0060    1.9923   -3.4393 N   0  0  0  0  0  0  0  0  0  0  0  0
   -5.3371    1.5853   -4.7849 C   0  0  0  0  0  0  0  0  0  0  0  0
   -5.7539    2.3575   -2.8570 H   0  0  0  0  0  0  0  0  0  0  0  0
   -5.2181    2.4401   -5.4669 H   0  0  0  0  0  0  0  0  0  0  0  0
   -4.6665    0.7711   -5.0971 H   0  0  0  0  0  0  0  0  0  0  0  0
   -6.3791    1.2341   -4.8157 H   0  0  0  0  0  0  0  0  0  0  0  0
  1  3  1  0  0  0  0
  1  7  1  0  0  0  0
  1  2  2  0  0  0  0
 37 38  1  0  0  0  0
 38 46  1  0  0  0  0
 38 39  2  0  0  0  0
  8  9  1  0  0  0  0
  9 17  1  0  0  0  0
  9 10  2  0  0  0  0
 18 19  1  0  0  0  0
 19 36  1  0  0  0  0
 19 20  2  0  0  0  0
 22 24  1  0  0  0  0
 37 40  1  0  0  0  0
  8 11  1  0  0  0  0
 21 23  1  0  0  0  0
 46 47  1  0  0  0  0
 21 22  1  0  0  0  0
 36 37  1  0  0  0  0
  7  8  1  0  0  0  0
 18 21  1  0  0  0  0
 17 18  1  0  0  0  0
  3  4  1  0  0  0  0
  3  5  1  0  0  0  0
  3  6  1  0  0  0  0
 24 33  1  0  0  0  0
 24 34  1  0  0  0  0
 24 35  1  0  0  0  0
 40 43  1  0  0  0  0
 40 44  1  0  0  0  0
 40 45  1  0  0  0  0
 11 14  1  0  0  0  0
 11 15  1  0  0  0  0
 11 16  1  0  0  0  0
 23 30  1  0  0  0  0
 23 31  1  0  0  0  0
 23 32  1  0  0  0  0
 47 49  1  0  0  0  0
 47 50  1  0  0  0  0
 47 51  1  0  0  0  0
 22 28  1  0  0  0  0
 22 29  1  0  0  0  0
 37 42  1  0  0  0  0
  8 13  1  0  0  0  0
 18 26  1  0  0  0  0
 21 27  1  0  0  0  0
 46 48  1  0  0  0  0
  7 12  1  0  0  0  0
 36 41  1  0  0  0  0
 17 25  1  0  0  0  0
M  END
$$$$

  -OEChem-05262214473D

 51 50  0     1  0  0  0  0  0999 V2000
    1.3524   -3.0009    1.4091 C   0  0  0  0  0  0  0  0  0  0  0  0
    1.8758   -1.9880    0.9598 O   0  0  0  0  0  0  0  0  0  0  0  0
    2.2030   -4.1782    1.7536 C   0  0  0  0  0  0  0  0  0  0  0  0
    2.3264   -4.8705    0.9053 H   0  0  0  0  0  0  0  0  0  0  0  0
    3.2257   -3.8876    2.0432 H   0  0  0  0  0  0  0  0  0  0  0  0
    1.8327   -4.8004    2.5839 H   0  0  0  0  0  0  0  0  0  0  0  0
    0.0005   -3.1873    1.6465 N   0  0  0  0  0  0  0  0  0  0  0  0
   -0.9949   -2.1807    1.3864 C   0  0  2  0  0  0  0  0  0  0  0  0
   -0.3083   -0.8216    1.4164 C   0  0  0  0  0  0  0  0  0  0  0  0
    0.7533   -0.6191    2.0022 O   0  0  0  0  0  0  0  0  0  0  0  0
   -2.1232   -2.2423    2.4042 C   0  0  0  0  0  0  0  0  0  0  0  0
   -0.3048   -4.0823    2.0245 H   0  0  0  0  0  0  0  0  0  0  0  0
   -1.3830   -2.3724    0.3801 H   0  0  0  0  0  0  0  0  0  0  0  0
   -1.7534   -2.0527    3.4185 H   0  0  0  0  0  0  0  0  0  0  0  0
   -2.8936   -1.4947    2.1882 H   0  0  0  0  0  0  0  0  0  0  0  0
   -2.5964   -3.2301    2.4022 H   0  0  0  0  0  0  0  0  0  0  0  0
   -1.0412    0.1517    0.7482 N   0  0  0  0  0  0  0  0  0  0  0  0
   -0.6079    1.5223    0.6467 C   0  0  2  0  0  0  0  0  0  0  0  0
   -1.7986    2.3659    0.1930 C   0  0  0  0  0  0  0  0  0  0  0  0
   -1.9263    3.5530    0.4862 O   0  0  0  0  0  0  0  0  0  0  0  0
    0.6269    1.6997   -0.2695 C   0  0  2  0  0  0  0  0  0  0  0  0
    1.8690    0.9588    0.2736 C   0  0  0  0  0  0  0  0  0  0  0  0
    0.9099    3.1913   -0.4918 C   0  0  0  0  0  0  0  0  0  0  0  0
    3.0181    0.8885   -0.7239 C   0  0  0  0  0  0  0  0  0  0  0  0
   -1.9022   -0.1128    0.2753 H   0  0  0  0  0  0  0  0  0  0  0  0
   -0.3574    1.8341    1.6688 H   0  0  0  0  0  0  0  0  0  0  0  0
    0.3849    1.2695   -1.2506 H   0  0  0  0  0  0  0  0  0  0  0  0
    2.2384    1.4697    1.1702 H   0  0  0  0  0  0  0  0  0  0  0  0
    1.6038   -0.0611    0.5763 H   0  0  0  0  0  0  0  0  0  0  0  0
    1.1599    3.6852    0.4533 H   0  0  0  0  0  0  0  0  0  0  0  0
    1.7609    3.3372   -1.1641 H   0  0  0  0  0  0  0  0  0  0  0  0
    0.0448    3.7041   -0.9249 H   0  0  0  0  0  0  0  0  0  0  0  0
    2.7187    0.3876   -1.6489 H   0  0  0  0  0  0  0  0  0  0  0  0
    3.8502    0.3193   -0.2964 H   0  0  0  0  0  0  0  0  0  0  0  0
    3.3855    1.8892   -0.9720 H   0  0  0  0  0  0  0  0  0  0  0  0
   -2.6785    1.6451   -0.6017 N   0  0  0  0  0  0  0  0  0  0  0  0
   -3.8756    2.2146   -1.1773 C   0  0  2  0  0  0  0  0  0  0  0  0
   -4.2049    1.4358   -2.4440 C   0  0  0  0  0  0  0  0  0  0  0  0
   -3.3679    0.7896   -3.0708 O   0  0  0  0  0  0  0  0  0  0  0  0
   -3.6942    3.6938   -1.4803 C   0  0  0  0  0  0  0  0  0  0  0  0
   -2.4710    0.6685   -0.7883 H   0  0  0  0  0  0  0  0  0  0  0  0
   -4.6768    2.0749   -0.4433 H   0  0  0  0  0  0  0  0  0  0  0  0
   -2.8956    3.8535   -2.2139 H   0  0  0  0  0  0  0  0  0  0  0  0
   -4.6112    4.1303   -1.8897 H   0  0  0  0  0  0  0  0  0  0  0  0
   -3.4282    4.2476   -0.5735 H   0  0  0  0  0  0  0  0  0  0  0  0
   -5.5339    1.5824   -2.8161 N   0  0  0  0  0  0  0  0  0  0  0  0
   -6.0887    0.9514   -3.9908 C   0  0  0  0  0  0  0  0  0  0  0  0
   -6.1613    2.1215   -2.2266 H   0  0  0  0  0  0  0  0  0  0  0  0
   -6.0210    1.6414   -4.8449 H   0  0  0  0  0  0  0  0  0  0  0  0
   -5.5248    0.0340   -4.2151 H   0  0  0  0  0  0  0  0  0  0  0  0
   -7.1433    0.6979   -3.8072 H   0  0  0  0  0  0  0  0  0  0  0  0
  1  3  1  0  0  0  0
  1  7  1  0  0  0  0
  1  2  2  0  0  0  0
 37 38  1  0  0  0  0
 38 46  1  0  0  0  0
 38 39  2  0  0  0  0
  8  9  1  0  0  0  0
  9 17  1  0  0  0  0
  9 10  2  0  0  0  0
 18 19  1  0  0  0  0
 19 36  1  0  0  0  0
 19 20  2  0  0  0  0
 22 24  1  0  0  0  0
 37 40  1  0  0  0  0
  8 11  1  0  0  0  0
 21 23  1  0  0  0  0
 46 47  1  0  0  0  0
 21 22  1  0  0  0  0
 36 37  1  0  0  0  0
  7  8  1  0  0  0  0
 18 21  1  0  0  0  0
 17 18  1  0  0  0  0
  3  4  1  0  0  0  0
  3  5  1  0  0  0  0
  3  6  1  0  0  0  0
 24 33  1  0  0  0  0
 24 34  1  0  0  0  0
 24 35  1  0  0  0  0
 40 43  1  0  0  0  0
 40 44  1  0  0  0  0
 40 45  1  0  0  0  0
 11 14  1  0  0  0  0
 11 15  1  0  0  0  0
 11 16  1  0  0  0  0
 23 30  1  0  0  0  0
 23 31  1  0  0  0  0
 23 32  1  0  0  0  0
 47 49  1  0  0  0  0
 47 50  1  0  0  0  0
 47 51  1  0  0  0  0
 22 28  1  0  0  0  0
 22 29  1  0  0  0  0
 37 42  1  0  0  0  0
  8 13  1  0  0  0  0
 18 26  1  0  0  0  0
 21 27  1  0  0  0  0
 46 48  1  0  0  0  0
  7 12  1  0  0  0  0
 36 41  1  0  0  0  0
 17 25  1  0  0  0  0
M  END
$$$$

  -OEChem-05262214473D

 51 50  0     1  0  0  0  0  0999 V2000
    1.3524   -3.0009    1.4091 C   0  0  0  0  0  0  0  0  0  0  0  0
    1.8758   -1.9880    0.9598 O   0  0  0  0  0  0  0  0  0  0  0  0
    2.2030   -4.1782    1.7536 C   0  0  0  0  0  0  0  0  0  0  0  0
    2.3264   -4.8705    0.9053 H   0  0  0  0  0  0  0  0  0  0  0  0
    3.2257   -3.8876    2.0432 H   0  0  0  0  0  0  0  0  0  0  0  0
    1.8327   -4.8004    2.5839 H   0  0  0  0  0  0  0  0  0  0  0  0
    0.0005   -3.1873    1.6465 N   0  0  0  0  0  0  0  0  0  0  0  0
   -0.9949   -2.1807    1.3864 C   0  0  2  0  0  0  0  0  0  0  0  0
   -0.3083   -0.8216    1.4164 C   0  0  0  0  0  0  0  0  0  0  0  0
    0.7533   -0.6191    2.0022 O   0  0  0  0  0  0  0  0  0  0  0  0
   -2.1232   -2.2423    2.4042 C   0  0  0  0  0  0  0  0  0  0  0  0
   -0.3048   -4.0823    2.0245 H   0  0  0  0  0  0  0  0  0  0  0  0
   -1.3830   -2.3724    0.3801 H   0  0  0  0  0  0  0  0  0  0  0  0
   -1.7534   -2.0527    3.4185 H   0  0  0  0  0  0  0  0  0  0  0  0
   -2.8936   -1.4947    2.1882 H   0  0  0  0  0  0  0  0  0  0  0  0
   -2.5964   -3.2301    2.4022 H   0  0  0  0  0  0  0  0  0  0  0  0
   -1.0412    0.1517    0.7482 N   0  0  0  0  0  0  0  0  0  0  0  0
   -0.6079    1.5223    0.6467 C   0  0  2  0  0  0  0  0  0  0  0  0
   -1.7986    2.3659    0.1930 C   0  0  0  0  0  0  0  0  0  0  0  0
   -1.8066    3.5940    0.2483 O   0  0  0  0  0  0  0  0  0  0  0  0
    0.6269    1.6997   -0.2695 C   0  0  2  0  0  0  0  0  0  0  0  0
    1.8690    0.9588    0.2736 C   0  0  0  0  0  0  0  0  0  0  0  0
    0.9099    3.1913   -0.4918 C   0  0  0  0  0  0  0  0  0  0  0  0
    3.0181    0.8885   -0.7239 C   0  0  0  0  0  0  0  0  0  0  0  0
   -1.9022   -0.1128    0.2753 H   0  0  0  0  0  0  0  0  0  0  0  0
   -0.3574    1.8341    1.6688 H   0  0  0  0  0  0  0  0  0  0  0  0
    0.3849    1.2695   -1.2506 H   0  0  0  0  0  0  0  0  0  0  0  0
    2.2384    1.4697    1.1702 H   0  0  0  0  0  0  0  0  0  0  0  0
    1.6038   -0.0611    0.5763 H   0  0  0  0  0  0  0  0  0  0  0  0
    1.1599    3.6852    0.4533 H   0  0  0  0  0  0  0  0  0  0  0  0
    1.7609    3.3372   -1.1641 H   0  0  0  0  0  0  0  0  0  0  0  0
    0.0448    3.7041   -0.9249 H   0  0  0  0  0  0  0  0  0  0  0  0
    2.7187    0.3876   -1.6489 H   0  0  0  0  0  0  0  0  0  0  0  0
    3.8502    0.3193   -0.2964 H   0  0  0  0  0  0  0  0  0  0  0  0
    3.3855    1.8892   -0.9720 H   0  0  0  0  0  0  0  0  0  0  0  0
   -2.8314    1.5868   -0.3089 N   0  0  0  0  0  0  0  0  0  0  0  0
   -4.0638    2.1396   -0.8230 C   0  0  2  0  0  0  0  0  0  0  0  0
   -4.6281    1.1610   -1.8444 C   0  0  0  0  0  0  0  0  0  0  0  0
   -3.9369    0.3306   -2.4308 O   0  0  0  0  0  0  0  0  0  0  0  0
   -3.8385    3.5077   -1.4477 C   0  0  0  0  0  0  0  0  0  0  0  0
   -2.7155    0.5778   -0.3153 H   0  0  0  0  0  0  0  0  0  0  0  0
   -4.7523    2.2204    0.0253 H   0  0  0  0  0  0  0  0  0  0  0  0
   -3.1512    3.4467   -2.2994 H   0  0  0  0  0  0  0  0  0  0  0  0
   -4.7778    3.9375   -1.8110 H   0  0  0  0  0  0  0  0  0  0  0  0
   -3.4049    4.2019   -0.7197 H   0  0  0  0  0  0  0  0  0  0  0  0
   -5.9863    1.3527   -2.0560 N   0  0  0  0  0  0  0  0  0  0  0  0
   -6.7500    0.5571   -2.9885 C   0  0  0  0  0  0  0  0  0  0  0  0
   -6.4829    2.0521   -1.5119 H   0  0  0  0  0  0  0  0  0  0  0  0
   -6.7690    1.0570   -3.9682 H   0  0  0  0  0  0  0  0  0  0  0  0
   -6.2844   -0.4341   -3.0918 H   0  0  0  0  0  0  0  0  0  0  0  0
   -7.7785    0.4421   -2.6157 H   0  0  0  0  0  0  0  0  0  0  0  0
  1  3  1  0  0  0  0
  1  7  1  0  0  0  0
  1  2  2  0  0  0  0
 37 38  1  0  0  0  0
 38 46  1  0  0  0  0
 38 39  2  0  0  0  0
  8  9  1  0  0  0  0
  9 17  1  0  0  0  0
  9 10  2  0  0  0  0
 18 19  1  0  0  0  0
 19 36  1  0  0  0  0
 19 20  2  0  0  0  0
 22 24  1  0  0  0  0
 37 40  1  0  0  0  0
  8 11  1  0  0  0  0
 21 23  1  0  0  0  0
 46 47  1  0  0  0  0
 21 22  1  0  0  0  0
 36 37  1  0  0  0  0
  7  8  1  0  0  0  0
 18 21  1  0  0  0  0
 17 18  1  0  0  0  0
  3  4  1  0  0  0  0
  3  5  1  0  0  0  0
  3  6  1  0  0  0  0
 24 33  1  0  0  0  0
 24 34  1  0  0  0  0
 24 35  1  0  0  0  0
 40 43  1  0  0  0  0
 40 44  1  0  0  0  0
 40 45  1  0  0  0  0
 11 14  1  0  0  0  0
 11 15  1  0  0  0  0
 11 16  1  0  0  0  0
 23 30  1  0  0  0  0
 23 31  1  0  0  0  0
 23 32  1  0  0  0  0
 47 49  1  0  0  0  0
 47 50  1  0  0  0  0
 47 51  1  0  0  0  0
 22 28  1  0  0  0  0
 22 29  1  0  0  0  0
 37 42  1  0  0  0  0
  8 13  1  0  0  0  0
 18 26  1  0  0  0  0
 21 27  1  0  0  0  0
 46 48  1  0  0  0  0
  7 12  1  0  0  0  0
 36 41  1  0  0  0  0
 17 25  1  0  0  0  0
M  END
$$$$

  -OEChem-05262214473D

 51 50  0     1  0  0  0  0  0999 V2000
    1.3524   -3.0009    1.4091 C   0  0  0  0  0  0  0  0  0  0  0  0
    1.8758   -1.9880    0.9598 O   0  0  0  0  0  0  0  0  0  0  0  0
    2.2030   -4.1782    1.7536 C   0  0  0  0  0  0  0  0  0  0  0  0
    2.3264   -4.8705    0.9053 H   0  0  0  0  0  0  0  0  0  0  0  0
    3.2257   -3.8876    2.0432 H   0  0  0  0  0  0  0  0  0  0  0  0
    1.8327   -4.8004    2.5839 H   0  0  0  0  0  0  0  0  0  0  0  0
    0.0005   -3.1873    1.6465 N   0  0  0  0  0  0  0  0  0  0  0  0
   -0.9949   -2.1807    1.3864 C   0  0  2  0  0  0  0  0  0  0  0  0
   -0.3083   -0.8216    1.4164 C   0  0  0  0  0  0  0  0  0  0  0  0
    0.7533   -0.6191    2.0022 O   0  0  0  0  0  0  0  0  0  0  0  0
   -2.1232   -2.2423    2.4042 C   0  0  0  0  0  0  0  0  0  0  0  0
   -0.3048   -4.0823    2.0245 H   0  0  0  0  0  0  0  0  0  0  0  0
   -1.3830   -2.3724    0.3801 H   0  0  0  0  0  0  0  0  0  0  0  0
   -1.7534   -2.0527    3.4185 H   0  0  0  0  0  0  0  0  0  0  0  0
   -2.8936   -1.4947    2.1882 H   0  0  0  0  0  0  0  0  0  0  0  0
   -2.5964   -3.2301    2.4022 H   0  0  0  0  0  0  0  0  0  0  0  0
   -1.0412    0.1517    0.7482 N   0  0  0  0  0  0  0  0  0  0  0  0
   -0.6079    1.5223    0.6467 C   0  0  2  0  0  0  0  0  0  0  0  0
   -1.7986    2.3659    0.1930 C   0  0  0  0  0  0  0  0  0  0  0  0
   -1.7218    3.5765   -0.0068 O   0  0  0  0  0  0  0  0  0  0  0  0
    0.6269    1.6997   -0.2695 C   0  0  2  0  0  0  0  0  0  0  0  0
    1.8690    0.9588    0.2736 C   0  0  0  0  0  0  0  0  0  0  0  0
    0.9099    3.1913   -0.4918 C   0  0  0  0  0  0  0  0  0  0  0  0
    3.0181    0.8885   -0.7239 C   0  0  0  0  0  0  0  0  0  0  0  0
   -1.9022   -0.1128    0.2753 H   0  0  0  0  0  0  0  0  0  0  0  0
   -0.3574    1.8341    1.6688 H   0  0  0  0  0  0  0  0  0  0  0  0
    0.3849    1.2695   -1.2506 H   0  0  0  0  0  0  0  0  0  0  0  0
    2.2384    1.4697    1.1702 H   0  0  0  0  0  0  0  0  0  0  0  0
    1.6038   -0.0611    0.5763 H   0  0  0  0  0  0  0  0  0  0  0  0
    1.1599    3.6852    0.4533 H   0  0  0  0  0  0  0  0  0  0  0  0
    1.7609    3.3372   -1.1641 H   0  0  0  0  0  0  0  0  0  0  0  0
    0.0448    3.7041   -0.9249 H   0  0  0  0  0  0  0  0  0  0  0  0
    2.7187    0.3876   -1.6489 H   0  0  0  0  0  0  0  0  0  0  0  0
    3.8502    0.3193   -0.2964 H   0  0  0  0  0  0  0  0  0  0  0  0
    3.3855    1.8892   -0.9720 H   0  0  0  0  0  0  0  0  0  0  0  0
   -2.9417    1.6014    0.0076 N   0  0  0  0  0  0  0  0  0  0  0  0
   -4.2007    2.1530   -0.4387 C   0  0  2  0  0  0  0  0  0  0  0  0
   -4.9723    1.0489   -1.1495 C   0  0  0  0  0  0  0  0  0  0  0  0
   -4.4304    0.0600   -1.6388 O   0  0  0  0  0  0  0  0  0  0  0  0
   -3.9875    3.3456   -1.3579 C   0  0  0  0  0  0  0  0  0  0  0  0
   -2.8910    0.6044    0.1949 H   0  0  0  0  0  0  0  0  0  0  0  0
   -4.7471    2.4612    0.4594 H   0  0  0  0  0  0  0  0  0  0  0  0
   -3.4416    3.0562   -2.2633 H   0  0  0  0  0  0  0  0  0  0  0  0
   -4.9423    3.7799   -1.6723 H   0  0  0  0  0  0  0  0  0  0  0  0
   -3.4068    4.1264   -0.8550 H   0  0  0  0  0  0  0  0  0  0  0  0
   -6.3323    1.3189   -1.2109 N   0  0  0  0  0  0  0  0  0  0  0  0
   -7.2759    0.4292   -1.8464 C   0  0  0  0  0  0  0  0  0  0  0  0
   -6.6967    2.1538   -0.7615 H   0  0  0  0  0  0  0  0  0  0  0  0
   -7.4112    0.7269   -2.8967 H   0  0  0  0  0  0  0  0  0  0  0  0
   -6.8937   -0.6014   -1.8039 H   0  0  0  0  0  0  0  0  0  0  0  0
   -8.2415    0.4841   -1.3225 H   0  0  0  0  0  0  0  0  0  0  0  0
  1  3  1  0  0  0  0
  1  7  1  0  0  0  0
  1  2  2  0  0  0  0
 37 38  1  0  0  0  0
 38 46  1  0  0  0  0
 38 39  2  0  0  0  0
  8  9  1  0  0  0  0
  9 17  1  0  0  0  0
  9 10  2  0  0  0  0
 18 19  1  0  0  0  0
 19 36  1  0  0  0  0
 19 20  2  0  0  0  0
 22 24  1  0  0  0  0
 37 40  1  0  0  0  0
  8 11  1  0  0  0  0
 21 23  1  0  0  0  0
 46 47  1  0  0  0  0
 21 22  1  0  0  0  0
 36 37  1  0  0  0  0
  7  8  1  0  0  0  0
 18 21  1  0  0  0  0
 17 18  1  0  0  0  0
  3  4  1  0  0  0  0
  3  5  1  0  0  0  0
  3  6  1  0  0  0  0
 24 33  1  0  0  0  0
 24 34  1  0  0  0  0
 24 35  1  0  0  0  0
 40 43  1  0  0  0  0
 40 44  1  0  0  0  0
 40 45  1  0  0  0  0
 11 14  1  0  0  0  0
 11 15  1  0  0  0  0
 11 16  1  0  0  0  0
 23 30  1  0  0  0  0
 23 31  1  0  0  0  0
 23 32  1  0  0  0  0
 47 49  1  0  0  0  0
 47 50  1  0  0  0  0
 47 51  1  0  0  0  0
 22 28  1  0  0  0  0
 22 29  1  0  0  0  0
 37 42  1  0  0  0  0
  8 13  1  0  0  0  0
 18 26  1  0  0  0  0
 21 27  1  0  0  0  0
 46 48  1  0  0  0  0
  7 12  1  0  0  0  0
 36 41  1  0  0  0  0
 17 25  1  0  0  0  0
M  END
$$$$

  -OEChem-05262214473D

 51 50  0     1  0  0  0  0  0999 V2000
    1.3524   -3.0009    1.4091 C   0  0  0  0  0  0  0  0  0  0  0  0
    1.8758   -1.9880    0.9598 O   0  0  0  0  0  0  0  0  0  0  0  0
    2.2030   -4.1782    1.7536 C   0  0  0  0  0  0  0  0  0  0  0  0
    2.3264   -4.8705    0.9053 H   0  0  0  0  0  0  0  0  0  0  0  0
    3.2257   -3.8876    2.0432 H   0  0  0  0  0  0  0  0  0  0  0  0
    1.8327   -4.8004    2.5839 H   0  0  0  0  0  0  0  0  0  0  0  0
    0.0005   -3.1873    1.6465 N   0  0  0  0  0  0  0  0  0  0  0  0
   -0.9949   -2.1807    1.3864 C   0  0  2  0  0  0  0  0  0  0  0  0
   -0.3083   -0.8216    1.4164 C   0  0  0  0  0  0  0  0  0  0  0  0
    0.7533   -0.6191    2.0022 O   0  0  0  0  0  0  0  0  0  0  0  0
   -2.1232   -2.2423    2.4042 C   0  0  0  0  0  0  0  0  0  0  0  0
   -0.3048   -4.0823    2.0245 H   0  0  0  0  0  0  0  0  0  0  0  0
   -1.3830   -2.3724    0.3801 H   0  0  0  0  0  0  0  0  0  0  0  0
   -1.7534   -2.0527    3.4185 H   0  0  0  0  0  0  0  0  0  0  0  0
   -2.8936   -1.4947    2.1882 H   0  0  0  0  0  0  0  0  0  0  0  0
   -2.5964   -3.2301    2.4022 H   0  0  0  0  0  0  0  0  0  0  0  0
   -1.0412    0.1517    0.7482 N   0  0  0  0  0  0  0  0  0  0  0  0
   -0.6079    1.5223    0.6467 C   0  0  2  0  0  0  0  0  0  0  0  0
   -1.7986    2.3659    0.1930 C   0  0  0  0  0  0  0  0  0  0  0  0
   -1.6776    3.5016   -0.2619 O   0  0  0  0  0  0  0  0  0  0  0  0
    0.6269    1.6997   -0.2695 C   0  0  2  0  0  0  0  0  0  0  0  0
    1.8690    0.9588    0.2736 C   0  0  0  0  0  0  0  0  0  0  0  0
    0.9099    3.1913   -0.4918 C   0  0  0  0  0  0  0  0  0  0  0  0
    3.0181    0.8885   -0.7239 C   0  0  0  0  0  0  0  0  0  0  0  0
   -1.9022   -0.1128    0.2753 H   0  0  0  0  0  0  0  0  0  0  0  0
   -0.3574    1.8341    1.6688 H   0  0  0  0  0  0  0  0  0  0  0  0
    0.3849    1.2695   -1.2506 H   0  0  0  0  0  0  0  0  0  0  0  0
    2.2384    1.4697    1.1702 H   0  0  0  0  0  0  0  0  0  0  0  0
    1.6038   -0.0611    0.5763 H   0  0  0  0  0  0  0  0  0  0  0  0
    1.1599    3.6852    0.4533 H   0  0  0  0  0  0  0  0  0  0  0  0
    1.7609    3.3372   -1.1641 H   0  0  0  0  0  0  0  0  0  0  0  0
    0.0448    3.7041   -0.9249 H   0  0  0  0  0  0  0  0  0  0  0  0
    2.7187    0.3876   -1.6489 H   0  0  0  0  0  0  0  0  0  0  0  0
    3.8502    0.3193   -0.2964 H   0  0  0  0  0  0  0  0  0  0  0  0
    3.3855    1.8892   -0.9720 H   0  0  0  0  0  0  0  0  0  0  0  0
   -3.0019    1.6877    0.3261 N   0  0  0  0  0  0  0  0  0  0  0  0
   -4.2770    2.2539   -0.0507 C   0  0  2  0  0  0  0  0  0  0  0  0
   -5.2141    1.1073   -0.4064 C   0  0  0  0  0  0  0  0  0  0  0  0
   -4.8148   -0.0038   -0.7488 O   0  0  0  0  0  0  0  0  0  0  0  0
   -4.1311    3.2185   -1.2173 C   0  0  0  0  0  0  0  0  0  0  0  0
   -2.9857    0.7465    0.7074 H   0  0  0  0  0  0  0  0  0  0  0  0
   -4.6615    2.7810    0.8293 H   0  0  0  0  0  0  0  0  0  0  0  0
   -3.7470    2.7085   -2.1083 H   0  0  0  0  0  0  0  0  0  0  0  0
   -5.0935    3.6683   -1.4831 H   0  0  0  0  0  0  0  0  0  0  0  0
   -3.4338    4.0263   -0.9702 H   0  0  0  0  0  0  0  0  0  0  0  0
   -6.5483    1.4833   -0.3383 N   0  0  0  0  0  0  0  0  0  0  0  0
   -7.6304    0.5763   -0.6423 C   0  0  0  0  0  0  0  0  0  0  0  0
   -6.7882    2.4199   -0.0267 H   0  0  0  0  0  0  0  0  0  0  0  0
   -7.9038    0.6735   -1.7034 H   0  0  0  0  0  0  0  0  0  0  0  0
   -7.3111   -0.4565   -0.4391 H   0  0  0  0  0  0  0  0  0  0  0  0
   -8.5008    0.8210   -0.0157 H   0  0  0  0  0  0  0  0  0  0  0  0
  1  3  1  0  0  0  0
  1  7  1  0  0  0  0
  1  2  2  0  0  0  0
 37 38  1  0  0  0  0
 38 46  1  0  0  0  0
 38 39  2  0  0  0  0
  8  9  1  0  0  0  0
  9 17  1  0  0  0  0
  9 10  2  0  0  0  0
 18 19  1  0  0  0  0
 19 36  1  0  0  0  0
 19 20  2  0  0  0  0
 22 24  1  0  0  0  0
 37 40  1  0  0  0  0
  8 11  1  0  0  0  0
 21 23  1  0  0  0  0
 46 47  1  0  0  0  0
 21 22  1  0  0  0  0
 36 37  1  0  0  0  0
  7  8  1  0  0  0  0
 18 21  1  0  0  0  0
 17 18  1  0  0  0  0
  3  4  1  0  0  0  0
  3  5  1  0  0  0  0
  3  6  1  0  0  0  0
 24 33  1  0  0  0  0
 24 34  1  0  0  0  0
 24 35  1  0  0  0  0
 40 43  1  0  0  0  0
 40 44  1  0  0  0  0
 40 45  1  0  0  0  0
 11 14  1  0  0  0  0
 11 15  1  0  0  0  0
 11 16  1  0  0  0  0
 23 30  1  0  0  0  0
 23 31  1  0  0  0  0
 23 32  1  0  0  0  0
 47 49  1  0  0  0  0
 47 50  1  0  0  0  0
 47 51  1  0  0  0  0
 22 28  1  0  0  0  0
 22 29  1  0  0  0  0
 37 42  1  0  0  0  0
  8 13  1  0  0  0  0
 18 26  1  0  0  0  0
 21 27  1  0  0  0  0
 46 48  1  0  0  0  0
  7 12  1  0  0  0  0
 36 41  1  0  0  0  0
 17 25  1  0  0  0  0
M  END
$$$$

  -OEChem-05262214473D

 51 50  0     1  0  0  0  0  0999 V2000
    1.3524   -3.0009    1.4091 C   0  0  0  0  0  0  0  0  0  0  0  0
    1.8758   -1.9880    0.9598 O   0  0  0  0  0  0  0  0  0  0  0  0
    2.2030   -4.1782    1.7536 C   0  0  0  0  0  0  0  0  0  0  0  0
    2.3264   -4.8705    0.9053 H   0  0  0  0  0  0  0  0  0  0  0  0
    3.2257   -3.8876    2.0432 H   0  0  0  0  0  0  0  0  0  0  0  0
    1.8327   -4.8004    2.5839 H   0  0  0  0  0  0  0  0  0  0  0  0
    0.0005   -3.1873    1.6465 N   0  0  0  0  0  0  0  0  0  0  0  0
   -0.9949   -2.1807    1.3864 C   0  0  2  0  0  0  0  0  0  0  0  0
   -0.3083   -0.8216    1.4164 C   0  0  0  0  0  0  0  0  0  0  0  0
    0.7533   -0.6191    2.0022 O   0  0  0  0  0  0  0  0  0  0  0  0
   -2.1232   -2.2423    2.4042 C   0  0  0  0  0  0  0  0  0  0  0  0
   -0.3048   -4.0823    2.0245 H   0  0  0  0  0  0  0  0  0  0  0  0
   -1.3830   -2.3724    0.3801 H   0  0  0  0  0  0  0  0  0  0  0  0
   -1.7534   -2.0527    3.4185 H   0  0  0  0  0  0  0  0  0  0  0  0
   -2.8936   -1.4947    2.1882 H   0  0  0  0  0  0  0  0  0  0  0  0
   -2.5964   -3.2301    2.4022 H   0  0  0  0  0  0  0  0  0  0  0  0
   -1.0412    0.1517    0.7482 N   0  0  0  0  0  0  0  0  0  0  0  0
   -0.6079    1.5223    0.6467 C   0  0  2  0  0  0  0  0  0  0  0  0
   -1.7986    2.3659    0.1930 C   0  0  0  0  0  0  0  0  0  0  0  0
   -1.6772    3.3744   -0.4995 O   0  0  0  0  0  0  0  0  0  0  0  0
    0.6269    1.6997   -0.2695 C   0  0  2  0  0  0  0  0  0  0  0  0
    1.8690    0.9588    0.2736 C   0  0  0  0  0  0  0  0  0  0  0  0
    0.9099    3.1913   -0.4918 C   0  0  0  0  0  0  0  0  0  0  0  0
    3.0181    0.8885   -0.7239 C   0  0  0  0  0  0  0  0  0  0  0  0
   -1.9022   -0.1128    0.2753 H   0  0  0  0  0  0  0  0  0  0  0  0
   -0.3574    1.8341    1.6688 H   0  0  0  0  0  0  0  0  0  0  0  0
    0.3849    1.2695   -1.2506 H   0  0  0  0  0  0  0  0  0  0  0  0
    2.2384    1.4697    1.1702 H   0  0  0  0  0  0  0  0  0  0  0  0
    1.6038   -0.0611    0.5763 H   0  0  0  0  0  0  0  0  0  0  0  0
    1.1599    3.6852    0.4533 H   0  0  0  0  0  0  0  0  0  0  0  0
    1.7609    3.3372   -1.1641 H   0  0  0  0  0  0  0  0  0  0  0  0
    0.0448    3.7041   -0.9249 H   0  0  0  0  0  0  0  0  0  0  0  0
    2.7187    0.3876   -1.6489 H   0  0  0  0  0  0  0  0  0  0  0  0
    3.8502    0.3193   -0.2964 H   0  0  0  0  0  0  0  0  0  0  0  0
    3.3855    1.8892   -0.9720 H   0  0  0  0  0  0  0  0  0  0  0  0
   -3.0079    1.8400    0.6249 N   0  0  0  0  0  0  0  0  0  0  0  0
   -4.2876    2.4356    0.3146 C   0  0  2  0  0  0  0  0  0  0  0  0
   -5.3370    1.3321    0.3341 C   0  0  0  0  0  0  0  0  0  0  0  0
   -5.0637    0.1437    0.1788 O   0  0  0  0  0  0  0  0  0  0  0  0
   -4.2595    3.1352   -1.0353 C   0  0  0  0  0  0  0  0  0  0  0  0
   -2.9929    0.9943    1.1872 H   0  0  0  0  0  0  0  0  0  0  0  0
   -4.5014    3.1579    1.1100 H   0  0  0  0  0  0  0  0  0  0  0  0
   -4.0466    2.4274   -1.8448 H   0  0  0  0  0  0  0  0  0  0  0  0
   -5.2211    3.6102   -1.2561 H   0  0  0  0  0  0  0  0  0  0  0  0
   -3.4840    3.9085   -1.0575 H   0  0  0  0  0  0  0  0  0  0  0  0
   -6.6197    1.8346    0.5023 N   0  0  0  0  0  0  0  0  0  0  0  0
   -7.7896    0.9886    0.5418 C   0  0  0  0  0  0  0  0  0  0  0  0
   -6.7512    2.8320    0.6425 H   0  0  0  0  0  0  0  0  0  0  0  0
   -8.2132    0.9003   -0.4696 H   0  0  0  0  0  0  0  0  0  0  0  0
   -7.5081   -0.0092    0.9096 H   0  0  0  0  0  0  0  0  0  0  0  0
   -8.5386    1.4300    1.2157 H   0  0  0  0  0  0  0  0  0  0  0  0
  1  3  1  0  0  0  0
  1  7  1  0  0  0  0
  1  2  2  0  0  0  0
 37 38  1  0  0  0  0
 38 46  1  0  0  0  0
 38 39  2  0  0  0  0
  8  9  1  0  0  0  0
  9 17  1  0  0  0  0
  9 10  2  0  0  0  0
 18 19  1  0  0  0  0
 19 36  1  0  0  0  0
 19 20  2  0  0  0  0
 22 24  1  0  0  0  0
 37 40  1  0  0  0  0
  8 11  1  0  0  0  0
 21 23  1  0  0  0  0
 46 47  1  0  0  0  0
 21 22  1  0  0  0  0
 36 37  1  0  0  0  0
  7  8  1  0  0  0  0
 18 21  1  0  0  0  0
 17 18  1  0  0  0  0
  3  4  1  0  0  0  0
  3  5  1  0  0  0  0
  3  6  1  0  0  0  0
 24 33  1  0  0  0  0
 24 34  1  0  0  0  0
 24 35  1  0  0  0  0
 40 43  1  0  0  0  0
 40 44  1  0  0  0  0
 40 45  1  0  0  0  0
 11 14  1  0  0  0  0
 11 15  1  0  0  0  0
 11 16  1  0  0  0  0
 23 30  1  0  0  0  0
 23 31  1  0  0  0  0
 23 32  1  0  0  0  0
 47 49  1  0  0  0  0
 47 50  1  0  0  0  0
 47 51  1  0  0  0  0
 22 28  1  0  0  0  0
 22 29  1  0  0  0  0
 37 42  1  0  0  0  0
  8 13  1  0  0  0  0
 18 26  1  0  0  0  0
 21 27  1  0  0  0  0
 46 48  1  0  0  0  0
  7 12  1  0  0  0  0
 36 41  1  0  0  0  0
 17 25  1  0  0  0  0
M  END
$$$$

  -OEChem-05262214473D

 51 50  0     1  0  0  0  0  0999 V2000
    1.3524   -3.0009    1.4091 C   0  0  0  0  0  0  0  0  0  0  0  0
    1.8758   -1.9880    0.9598 O   0  0  0  0  0  0  0  0  0  0  0  0
    2.2030   -4.1782    1.7536 C   0  0  0  0  0  0  0  0  0  0  0  0
    2.3264   -4.8705    0.9053 H   0  0  0  0  0  0  0  0  0  0  0  0
    3.2257   -3.8876    2.0432 H   0  0  0  0  0  0  0  0  0  0  0  0
    1.8327   -4.8004    2.5839 H   0  0  0  0  0  0  0  0  0  0  0  0
    0.0005   -3.1873    1.6465 N   0  0  0  0  0  0  0  0  0  0  0  0
   -0.9949   -2.1807    1.3864 C   0  0  2  0  0  0  0  0  0  0  0  0
   -0.3083   -0.8216    1.4164 C   0  0  0  0  0  0  0  0  0  0  0  0
    0.7533   -0.6191    2.0022 O   0  0  0  0  0  0  0  0  0  0  0  0
   -2.1232   -2.2423    2.4042 C   0  0  0  0  0  0  0  0  0  0  0  0
   -0.3048   -4.0823    2.0245 H   0  0  0  0  0  0  0  0  0  0  0  0
   -1.3830   -2.3724    0.3801 H   0  0  0  0  0  0  0  0  0  0  0  0
   -1.7534   -2.0527    3.4185 H   0  0  0  0  0  0  0  0  0  0  0  0
   -2.8936   -1.4947    2.1882 H   0  0  0  0  0  0  0  0  0  0  0  0
   -2.5964   -3.2301    2.4022 H   0  0  0  0  0  0  0  0  0  0  0  0
   -1.0412    0.1517    0.7482 N   0  0  0  0  0  0  0  0  0  0  0  0
   -0.6079    1.5223    0.6467 C   0  0  2  0  0  0  0  0  0  0  0  0
   -1.7986    2.3659    0.1930 C   0  0  0  0  0  0  0  0  0  0  0  0
   -1.7205    3.2036   -0.7034 O   0  0  0  0  0  0  0  0  0  0  0  0
    0.6269    1.6997   -0.2695 C   0  0  2  0  0  0  0  0  0  0  0  0
    1.8690    0.9588    0.2736 C   0  0  0  0  0  0  0  0  0  0  0  0
    0.9099    3.1913   -0.4918 C   0  0  0  0  0  0  0  0  0  0  0  0
    3.0181    0.8885   -0.7239 C   0  0  0  0  0  0  0  0  0  0  0  0
   -1.9022   -0.1128    0.2753 H   0  0  0  0  0  0  0  0  0  0  0  0
   -0.3574    1.8341    1.6688 H   0  0  0  0  0  0  0  0  0  0  0  0
    0.3849    1.2695   -1.2506 H   0  0  0  0  0  0  0  0  0  0  0  0
    2.2384    1.4697    1.1702 H   0  0  0  0  0  0  0  0  0  0  0  0
    1.6038   -0.0611    0.5763 H   0  0  0  0  0  0  0  0  0  0  0  0
    1.1599    3.6852    0.4533 H   0  0  0  0  0  0  0  0  0  0  0  0
    1.7609    3.3372   -1.1641 H   0  0  0  0  0  0  0  0  0  0  0  0
    0.0448    3.7041   -0.9249 H   0  0  0  0  0  0  0  0  0  0  0  0
    2.7187    0.3876   -1.6489 H   0  0  0  0  0  0  0  0  0  0  0  0
    3.8502    0.3193   -0.2964 H   0  0  0  0  0  0  0  0  0  0  0  0
    3.3855    1.8892   -0.9720 H   0  0  0  0  0  0  0  0  0  0  0  0
   -2.9593    2.0478    0.8838 N   0  0  0  0  0  0  0  0  0  0  0  0
   -4.2316    2.6855    0.6324 C   0  0  2  0  0  0  0  0  0  0  0  0
   -5.3327    1.7080    1.0216 C   0  0  0  0  0  0  0  0  0  0  0  0
   -5.1604    0.4923    1.0805 O   0  0  0  0  0  0  0  0  0  0  0  0
   -4.3639    3.1013   -0.8244 C   0  0  0  0  0  0  0  0  0  0  0  0
   -2.9124    1.3310    1.6018 H   0  0  0  0  0  0  0  0  0  0  0  0
   -4.2778    3.5662    1.2822 H   0  0  0  0  0  0  0  0  0  0  0  0
   -4.3198    2.2321   -1.4908 H   0  0  0  0  0  0  0  0  0  0  0  0
   -5.3163    3.6098   -1.0070 H   0  0  0  0  0  0  0  0  0  0  0  0
   -3.5540    3.7810   -1.1108 H   0  0  0  0  0  0  0  0  0  0  0  0
   -6.5416    2.3490    1.2536 N   0  0  0  0  0  0  0  0  0  0  0  0
   -7.7425    1.6378    1.6251 C   0  0  0  0  0  0  0  0  0  0  0  0
   -6.5882    3.3623    1.2004 H   0  0  0  0  0  0  0  0  0  0  0  0
   -8.3183    1.3921    0.7207 H   0  0  0  0  0  0  0  0  0  0  0  0
   -7.4714    0.7100    2.1503 H   0  0  0  0  0  0  0  0  0  0  0  0
   -8.3524    2.2694    2.2877 H   0  0  0  0  0  0  0  0  0  0  0  0
  1  3  1  0  0  0  0
  1  7  1  0  0  0  0
  1  2  2  0  0  0  0
 37 38  1  0  0  0  0
 38 46  1  0  0  0  0
 38 39  2  0  0  0  0
  8  9  1  0  0  0  0
  9 17  1  0  0  0  0
  9 10  2  0  0  0  0
 18 19  1  0  0  0  0
 19 36  1  0  0  0  0
 19 20  2  0  0  0  0
 22 24  1  0  0  0  0
 37 40  1  0  0  0  0
  8 11  1  0  0  0  0
 21 23  1  0  0  0  0
 46 47  1  0  0  0  0
 21 22  1  0  0  0  0
 36 37  1  0  0  0  0
  7  8  1  0  0  0  0
 18 21  1  0  0  0  0
 17 18  1  0  0  0  0
  3  4  1  0  0  0  0
  3  5  1  0  0  0  0
  3  6  1  0  0  0  0
 24 33  1  0  0  0  0
 24 34  1  0  0  0  0
 24 35  1  0  0  0  0
 40 43  1  0  0  0  0
 40 44  1  0  0  0  0
 40 45  1  0  0  0  0
 11 14  1  0  0  0  0
 11 15  1  0  0  0  0
 11 16  1  0  0  0  0
 23 30  1  0  0  0  0
 23 31  1  0  0  0  0
 23 32  1  0  0  0  0
 47 49  1  0  0  0  0
 47 50  1  0  0  0  0
 47 51  1  0  0  0  0
 22 28  1  0  0  0  0
 22 29  1  0  0  0  0
 37 42  1  0  0  0  0
  8 13  1  0  0  0  0
 18 26  1  0  0  0  0
 21 27  1  0  0  0  0
 46 48  1  0  0  0  0
  7 12  1  0  0  0  0
 36 41  1  0  0  0  0
 17 25  1  0  0  0  0
M  END
$$$$

  -OEChem-05262214473D

 51 50  0     1  0  0  0  0  0999 V2000
    1.3524   -3.0009    1.4091 C   0  0  0  0  0  0  0  0  0  0  0  0
    1.8758   -1.9880    0.9598 O   0  0  0  0  0  0  0  0  0  0  0  0
    2.2030   -4.1782    1.7536 C   0  0  0  0  0  0  0  0  0  0  0  0
    2.3264   -4.8705    0.9053 H   0  0  0  0  0  0  0  0  0  0  0  0
    3.2257   -3.8876    2.0432 H   0  0  0  0  0  0  0  0  0  0  0  0
    1.8327   -4.8004    2.5839 H   0  0  0  0  0  0  0  0  0  0  0  0
    0.0005   -3.1873    1.6465 N   0  0  0  0  0  0  0  0  0  0  0  0
   -0.9949   -2.1807    1.3864 C   0  0  2  0  0  0  0  0  0  0  0  0
   -0.3083   -0.8216    1.4164 C   0  0  0  0  0  0  0  0  0  0  0  0
    0.7533   -0.6191    2.0022 O   0  0  0  0  0  0  0  0  0  0  0  0
   -2.1232   -2.2423    2.4042 C   0  0  0  0  0  0  0  0  0  0  0  0
   -0.3048   -4.0823    2.0245 H   0  0  0  0  0  0  0  0  0  0  0  0
   -1.3830   -2.3724    0.3801 H   0  0  0  0  0  0  0  0  0  0  0  0
   -1.7534   -2.0527    3.4185 H   0  0  0  0  0  0  0  0  0  0  0  0
   -2.8936   -1.4947    2.1882 H   0  0  0  0  0  0  0  0  0  0  0  0
   -2.5964   -3.2301    2.4022 H   0  0  0  0  0  0  0  0  0  0  0  0
   -1.0412    0.1517    0.7482 N   0  0  0  0  0  0  0  0  0  0  0  0
   -0.6079    1.5223    0.6467 C   0  0  2  0  0  0  0  0  0  0  0  0
   -1.7986    2.3659    0.1930 C   0  0  0  0  0  0  0  0  0  0  0  0
   -1.8046    3.0009   -0.8597 O   0  0  0  0  0  0  0  0  0  0  0  0
    0.6269    1.6997   -0.2695 C   0  0  2  0  0  0  0  0  0  0  0  0
    1.8690    0.9588    0.2736 C   0  0  0  0  0  0  0  0  0  0  0  0
    0.9099    3.1913   -0.4918 C   0  0  0  0  0  0  0  0  0  0  0  0
    3.0181    0.8885   -0.7239 C   0  0  0  0  0  0  0  0  0  0  0  0
   -1.9022   -0.1128    0.2753 H   0  0  0  0  0  0  0  0  0  0  0  0
   -0.3574    1.8341    1.6688 H   0  0  0  0  0  0  0  0  0  0  0  0
    0.3849    1.2695   -1.2506 H   0  0  0  0  0  0  0  0  0  0  0  0
    2.2384    1.4697    1.1702 H   0  0  0  0  0  0  0  0  0  0  0  0
    1.6038   -0.0611    0.5763 H   0  0  0  0  0  0  0  0  0  0  0  0
    1.1599    3.6852    0.4533 H   0  0  0  0  0  0  0  0  0  0  0  0
    1.7609    3.3372   -1.1641 H   0  0  0  0  0  0  0  0  0  0  0  0
    0.0448    3.7041   -0.9249 H   0  0  0  0  0  0  0  0  0  0  0  0
    2.7187    0.3876   -1.6489 H   0  0  0  0  0  0  0  0  0  0  0  0
    3.8502    0.3193   -0.2964 H   0  0  0  0  0  0  0  0  0  0  0  0
    3.3855    1.8892   -0.9720 H   0  0  0  0  0  0  0  0  0  0  0  0
   -2.8594    2.2970    1.0849 N   0  0  0  0  0  0  0  0  0  0  0  0
   -4.1129    2.9867    0.8809 C   0  0  2  0  0  0  0  0  0  0  0  0
   -5.2014    2.2094    1.6093 C   0  0  0  0  0  0  0  0  0  0  0  0
   -5.0981    1.0183    1.8951 O   0  0  0  0  0  0  0  0  0  0  0  0
   -4.4372    3.1191   -0.5990 C   0  0  0  0  0  0  0  0  0  0  0  0
   -2.7494    1.7337    1.9229 H   0  0  0  0  0  0  0  0  0  0  0  0
   -4.0057    3.9782    1.3343 H   0  0  0  0  0  0  0  0  0  0  0  0
   -4.5483    2.1358   -1.0704 H   0  0  0  0  0  0  0  0  0  0  0  0
   -5.3728    3.6669   -0.7527 H   0  0  0  0  0  0  0  0  0  0  0  0
   -3.6391    3.6524   -1.1266 H   0  0  0  0  0  0  0  0  0  0  0  0
   -6.3192    2.9914    1.8644 N   0  0  0  0  0  0  0  0  0  0  0  0
   -7.4923    2.4797    2.5339 C   0  0  0  0  0  0  0  0  0  0  0  0
   -6.3102    3.9745    1.6092 H   0  0  0  0  0  0  0  0  0  0  0  0
   -8.2121    2.1152    1.7862 H   0  0  0  0  0  0  0  0  0  0  0  0
   -7.2033    1.6521    3.1984 H   0  0  0  0  0  0  0  0  0  0  0  0
   -7.9549    3.2821    3.1273 H   0  0  0  0  0  0  0  0  0  0  0  0
  1  3  1  0  0  0  0
  1  7  1  0  0  0  0
  1  2  2  0  0  0  0
 37 38  1  0  0  0  0
 38 46  1  0  0  0  0
 38 39  2  0  0  0  0
  8  9  1  0  0  0  0
  9 17  1  0  0  0  0
  9 10  2  0  0  0  0
 18 19  1  0  0  0  0
 19 36  1  0  0  0  0
 19 20  2  0  0  0  0
 22 24  1  0  0  0  0
 37 40  1  0  0  0  0
  8 11  1  0  0  0  0
 21 23  1  0  0  0  0
 46 47  1  0  0  0  0
 21 22  1  0  0  0  0
 36 37  1  0  0  0  0
  7  8  1  0  0  0  0
 18 21  1  0  0  0  0
 17 18  1  0  0  0  0
  3  4  1  0  0  0  0
  3  5  1  0  0  0  0
  3  6  1  0  0  0  0
 24 33  1  0  0  0  0
 24 34  1  0  0  0  0
 24 35  1  0  0  0  0
 40 43  1  0  0  0  0
 40 44  1  0  0  0  0
 40 45  1  0  0  0  0
 11 14  1  0  0  0  0
 11 15  1  0  0  0  0
 11 16  1  0  0  0  0
 23 30  1  0  0  0  0
 23 31  1  0  0  0  0
 23 32  1  0  0  0  0
 47 49  1  0  0  0  0
 47 50  1  0  0  0  0
 47 51  1  0  0  0  0
 22 28  1  0  0  0  0
 22 29  1  0  0  0  0
 37 42  1  0  0  0  0
  8 13  1  0  0  0  0
 18 26  1  0  0  0  0
 21 27  1  0  0  0  0
 46 48  1  0  0  0  0
  7 12  1  0  0  0  0
 36 41  1  0  0  0  0
 17 25  1  0  0  0  0
M  END
$$$$

  -OEChem-05262214473D

 51 50  0     1  0  0  0  0  0999 V2000
    1.3524   -3.0009    1.4091 C   0  0  0  0  0  0  0  0  0  0  0  0
    1.8758   -1.9880    0.9598 O   0  0  0  0  0  0  0  0  0  0  0  0
    2.2030   -4.1782    1.7536 C   0  0  0  0  0  0  0  0  0  0  0  0
    2.3264   -4.8705    0.9053 H   0  0  0  0  0  0  0  0  0  0  0  0
    3.2257   -3.8876    2.0432 H   0  0  0  0  0  0  0  0  0  0  0  0
    1.8327   -4.8004    2.5839 H   0  0  0  0  0  0  0  0  0  0  0  0
    0.0005   -3.1873    1.6465 N   0  0  0  0  0  0  0  0  0  0  0  0
   -0.9949   -2.1807    1.3864 C   0  0  2  0  0  0  0  0  0  0  0  0
   -0.3083   -0.8216    1.4164 C   0  0  0  0  0  0  0  0  0  0  0  0
    0.7533   -0.6191    2.0022 O   0  0  0  0  0  0  0  0  0  0  0  0
   -2.1232   -2.2423    2.4042 C   0  0  0  0  0  0  0  0  0  0  0  0
   -0.3048   -4.0823    2.0245 H   0  0  0  0  0  0  0  0  0  0  0  0
   -1.3830   -2.3724    0.3801 H   0  0  0  0  0  0  0  0  0  0  0  0
   -1.7534   -2.0527    3.4185 H   0  0  0  0  0  0  0  0  0  0  0  0
   -2.8936   -1.4947    2.1882 H   0  0  0  0  0  0  0  0  0  0  0  0
   -2.5964   -3.2301    2.4022 H   0  0  0  0  0  0  0  0  0  0  0  0
   -1.0412    0.1517    0.7482 N   0  0  0  0  0  0  0  0  0  0  0  0
   -0.6079    1.5223    0.6467 C   0  0  2  0  0  0  0  0  0  0  0  0
   -1.7986    2.3659    0.1930 C   0  0  0  0  0  0  0  0  0  0  0  0
   -1.9237    2.7800   -0.9578 O   0  0  0  0  0  0  0  0  0  0  0  0
    0.6269    1.6997   -0.2695 C   0  0  2  0  0  0  0  0  0  0  0  0
    1.8690    0.9588    0.2736 C   0  0  0  0  0  0  0  0  0  0  0  0
    0.9099    3.1913   -0.4918 C   0  0  0  0  0  0  0  0  0  0  0  0
    3.0181    0.8885   -0.7239 C   0  0  0  0  0  0  0  0  0  0  0  0
   -1.9022   -0.1128    0.2753 H   0  0  0  0  0  0  0  0  0  0  0  0
   -0.3574    1.8341    1.6688 H   0  0  0  0  0  0  0  0  0  0  0  0
    0.3849    1.2695   -1.2506 H   0  0  0  0  0  0  0  0  0  0  0  0
    2.2384    1.4697    1.1702 H   0  0  0  0  0  0  0  0  0  0  0  0
    1.6038   -0.0611    0.5763 H   0  0  0  0  0  0  0  0  0  0  0  0
    1.1599    3.6852    0.4533 H   0  0  0  0  0  0  0  0  0  0  0  0
    1.7609    3.3372   -1.1641 H   0  0  0  0  0  0  0  0  0  0  0  0
    0.0448    3.7041   -0.9249 H   0  0  0  0  0  0  0  0  0  0  0  0
    2.7187    0.3876   -1.6489 H   0  0  0  0  0  0  0  0  0  0  0  0
    3.8502    0.3193   -0.2964 H   0  0  0  0  0  0  0  0  0  0  0  0
    3.3855    1.8892   -0.9720 H   0  0  0  0  0  0  0  0  0  0  0  0
   -2.7150    2.5706    1.2147 N   0  0  0  0  0  0  0  0  0  0  0  0
   -3.9396    3.3187    1.0433 C   0  0  2  0  0  0  0  0  0  0  0  0
   -4.9520    2.8022    2.0571 C   0  0  0  0  0  0  0  0  0  0  0  0
   -4.8811    1.6859    2.5669 O   0  0  0  0  0  0  0  0  0  0  0  0
   -4.4744    3.1874   -0.3743 C   0  0  0  0  0  0  0  0  0  0  0  0
   -2.5152    2.1749    2.1285 H   0  0  0  0  0  0  0  0  0  0  0  0
   -3.7039    4.3657    1.2626 H   0  0  0  0  0  0  0  0  0  0  0  0
   -4.7162    2.1451   -0.6123 H   0  0  0  0  0  0  0  0  0  0  0  0
   -5.3866    3.7777   -0.5104 H   0  0  0  0  0  0  0  0  0  0  0  0
   -3.7334    3.5316   -1.1038 H   0  0  0  0  0  0  0  0  0  0  0  0
   -5.9679    3.7179    2.2931 N   0  0  0  0  0  0  0  0  0  0  0  0
   -7.0561    3.4570    3.2061 C   0  0  0  0  0  0  0  0  0  0  0  0
   -5.9363    4.6269    1.8408 H   0  0  0  0  0  0  0  0  0  0  0  0
   -7.9016    3.0203    2.6544 H   0  0  0  0  0  0  0  0  0  0  0  0
   -6.7223    2.7529    3.9825 H   0  0  0  0  0  0  0  0  0  0  0  0
   -7.3731    4.3990    3.6773 H   0  0  0  0  0  0  0  0  0  0  0  0
  1  3  1  0  0  0  0
  1  7  1  0  0  0  0
  1  2  2  0  0  0  0
 37 38  1  0  0  0  0
 38 46  1  0  0  0  0
 38 39  2  0  0  0  0
  8  9  1  0  0  0  0
  9 17  1  0  0  0  0
  9 10  2  0  0  0  0
 18 19  1  0  0  0  0
 19 36  1  0  0  0  0
 19 20  2  0  0  0  0
 22 24  1  0  0  0  0
 37 40  1  0  0  0  0
  8 11  1  0  0  0  0
 21 23  1  0  0  0  0
 46 47  1  0  0  0  0
 21 22  1  0  0  0  0
 36 37  1  0  0  0  0
  7  8  1  0  0  0  0
 18 21  1  0  0  0  0
 17 18  1  0  0  0  0
  3  4  1  0  0  0  0
  3  5  1  0  0  0  0
  3  6  1  0  0  0  0
 24 33  1  0  0  0  0
 24 34  1  0  0  0  0
 24 35  1  0  0  0  0
 40 43  1  0  0  0  0
 40 44  1  0  0  0  0
 40 45  1  0  0  0  0
 11 14  1  0  0  0  0
 11 15  1  0  0  0  0
 11 16  1  0  0  0  0
 23 30  1  0  0  0  0
 23 31  1  0  0  0  0
 23 32  1  0  0  0  0
 47 49  1  0  0  0  0
 47 50  1  0  0  0  0
 47 51  1  0  0  0  0
 22 28  1  0  0  0  0
 22 29  1  0  0  0  0
 37 42  1  0  0  0  0
  8 13  1  0  0  0  0
 18 26  1  0  0  0  0
 21 27  1  0  0  0  0
 46 48  1  0  0  0  0
  7 12  1  0  0  0  0
 36 41  1  0  0  0  0
 17 25  1  0  0  0  0
M  END
$$$$

  -OEChem-05262214473D

 51 50  0     1  0  0  0  0  0999 V2000
    1.3524   -3.0009    1.4091 C   0  0  0  0  0  0  0  0  0  0  0  0
    1.8758   -1.9880    0.9598 O   0  0  0  0  0  0  0  0  0  0  0  0
    2.2030   -4.1782    1.7536 C   0  0  0  0  0  0  0  0  0  0  0  0
    2.3264   -4.8705    0.9053 H   0  0  0  0  0  0  0  0  0  0  0  0
    3.2257   -3.8876    2.0432 H   0  0  0  0  0  0  0  0  0  0  0  0
    1.8327   -4.8004    2.5839 H   0  0  0  0  0  0  0  0  0  0  0  0
    0.0005   -3.1873    1.6465 N   0  0  0  0  0  0  0  0  0  0  0  0
   -0.9949   -2.1807    1.3864 C   0  0  2  0  0  0  0  0  0  0  0  0
   -0.3083   -0.8216    1.4164 C   0  0  0  0  0  0  0  0  0  0  0  0
    0.7533   -0.6191    2.0022 O   0  0  0  0  0  0  0  0  0  0  0  0
   -2.1232   -2.2423    2.4042 C   0  0  0  0  0  0  0  0  0  0  0  0
   -0.3048   -4.0823    2.0245 H   0  0  0  0  0  0  0  0  0  0  0  0
   -1.3830   -2.3724    0.3801 H   0  0  0  0  0  0  0  0  0  0  0  0
   -1.7534   -2.0527    3.4185 H   0  0  0  0  0  0  0  0  0  0  0  0
   -2.8936   -1.4947    2.1882 H   0  0  0  0  0  0  0  0  0  0  0  0
   -2.5964   -3.2301    2.4022 H   0  0  0  0  0  0  0  0  0  0  0  0
   -1.0412    0.1517    0.7482 N   0  0  0  0  0  0  0  0  0  0  0  0
   -0.6079    1.5223    0.6467 C   0  0  2  0  0  0  0  0  0  0  0  0
   -1.7986    2.3659    0.1930 C   0  0  0  0  0  0  0  0  0  0  0  0
   -2.0698    2.5560   -0.9909 O   0  0  0  0  0  0  0  0  0  0  0  0
    0.6269    1.6997   -0.2695 C   0  0  2  0  0  0  0  0  0  0  0  0
    1.8690    0.9588    0.2736 C   0  0  0  0  0  0  0  0  0  0  0  0
    0.9099    3.1913   -0.4918 C   0  0  0  0  0  0  0  0  0  0  0  0
    3.0181    0.8885   -0.7239 C   0  0  0  0  0  0  0  0  0  0  0  0
   -1.9022   -0.1128    0.2753 H   0  0  0  0  0  0  0  0  0  0  0  0
   -0.3574    1.8341    1.6688 H   0  0  0  0  0  0  0  0  0  0  0  0
    0.3849    1.2695   -1.2506 H   0  0  0  0  0  0  0  0  0  0  0  0
    2.2384    1.4697    1.1702 H   0  0  0  0  0  0  0  0  0  0  0  0
    1.6038   -0.0611    0.5763 H   0  0  0  0  0  0  0  0  0  0  0  0
    1.1599    3.6852    0.4533 H   0  0  0  0  0  0  0  0  0  0  0  0
    1.7609    3.3372   -1.1641 H   0  0  0  0  0  0  0  0  0  0  0  0
    0.0448    3.7041   -0.9249 H   0  0  0  0  0  0  0  0  0  0  0  0
    2.7187    0.3876   -1.6489 H   0  0  0  0  0  0  0  0  0  0  0  0
    3.8502    0.3193   -0.2964 H   0  0  0  0  0  0  0  0  0  0  0  0
    3.3855    1.8892   -0.9720 H   0  0  0  0  0  0  0  0  0  0  0  0
   -2.5360    2.8499    1.2642 N   0  0  0  0  0  0  0  0  0  0  0  0
   -3.7235    3.6587    1.1084 C   0  0  2  0  0  0  0  0  0  0  0  0
   -4.6017    3.4459    2.3344 C   0  0  0  0  0  0  0  0  0  0  0  0
   -4.5243    2.4495    3.0501 O   0  0  0  0  0  0  0  0  0  0  0  0
   -4.4730    3.3015   -0.1657 C   0  0  0  0  0  0  0  0  0  0  0  0
   -2.2257    2.6245    2.2047 H   0  0  0  0  0  0  0  0  0  0  0  0
   -3.3927    4.7024    1.0721 H   0  0  0  0  0  0  0  0  0  0  0  0
   -4.8123    2.2594   -0.1476 H   0  0  0  0  0  0  0  0  0  0  0  0
   -5.3568    3.9346   -0.2968 H   0  0  0  0  0  0  0  0  0  0  0  0
   -3.8305    3.4267   -1.0439 H   0  0  0  0  0  0  0  0  0  0  0  0
   -5.5114    4.4792    2.5104 N   0  0  0  0  0  0  0  0  0  0  0  0
   -6.4636    4.5030    3.5961 C   0  0  0  0  0  0  0  0  0  0  0  0
   -5.4919    5.2750    1.8795 H   0  0  0  0  0  0  0  0  0  0  0  0
   -7.4082    4.0459    3.2661 H   0  0  0  0  0  0  0  0  0  0  0  0
   -6.0610    3.9373    4.4492 H   0  0  0  0  0  0  0  0  0  0  0  0
   -6.6468    5.5441    3.9002 H   0  0  0  0  0  0  0  0  0  0  0  0
  1  3  1  0  0  0  0
  1  7  1  0  0  0  0
  1  2  2  0  0  0  0
 37 38  1  0  0  0  0
 38 46  1  0  0  0  0
 38 39  2  0  0  0  0
  8  9  1  0  0  0  0
  9 17  1  0  0  0  0
  9 10  2  0  0  0  0
 18 19  1  0  0  0  0
 19 36  1  0  0  0  0
 19 20  2  0  0  0  0
 22 24  1  0  0  0  0
 37 40  1  0  0  0  0
  8 11  1  0  0  0  0
 21 23  1  0  0  0  0
 46 47  1  0  0  0  0
 21 22  1  0  0  0  0
 36 37  1  0  0  0  0
  7  8  1  0  0  0  0
 18 21  1  0  0  0  0
 17 18  1  0  0  0  0
  3  4  1  0  0  0  0
  3  5  1  0  0  0  0
  3  6  1  0  0  0  0
 24 33  1  0  0  0  0
 24 34  1  0  0  0  0
 24 35  1  0  0  0  0
 40 43  1  0  0  0  0
 40 44  1  0  0  0  0
 40 45  1  0  0  0  0
 11 14  1  0  0  0  0
 11 15  1  0  0  0  0
 11 16  1  0  0  0  0
 23 30  1  0  0  0  0
 23 31  1  0  0  0  0
 23 32  1  0  0  0  0
 47 49  1  0  0  0  0
 47 50  1  0  0  0  0
 47 51  1  0  0  0  0
 22 28  1  0  0  0  0
 22 29  1  0  0  0  0
 37 42  1  0  0  0  0
  8 13  1  0  0  0  0
 18 26  1  0  0  0  0
 21 27  1  0  0  0  0
 46 48  1  0  0  0  0
  7 12  1  0  0  0  0
 36 41  1  0  0  0  0
 17 25  1  0  0  0  0
M  END
$$$$

  -OEChem-05262214473D

 51 50  0     1  0  0  0  0  0999 V2000
    1.3524   -3.0009    1.4091 C   0  0  0  0  0  0  0  0  0  0  0  0
    1.8758   -1.9880    0.9598 O   0  0  0  0  0  0  0  0  0  0  0  0
    2.2030   -4.1782    1.7536 C   0  0  0  0  0  0  0  0  0  0  0  0
    2.3264   -4.8705    0.9053 H   0  0  0  0  0  0  0  0  0  0  0  0
    3.2257   -3.8876    2.0432 H   0  0  0  0  0  0  0  0  0  0  0  0
    1.8327   -4.8004    2.5839 H   0  0  0  0  0  0  0  0  0  0  0  0
    0.0005   -3.1873    1.6465 N   0  0  0  0  0  0  0  0  0  0  0  0
   -0.9949   -2.1807    1.3864 C   0  0  2  0  0  0  0  0  0  0  0  0
   -0.3083   -0.8216    1.4164 C   0  0  0  0  0  0  0  0  0  0  0  0
    0.7533   -0.6191    2.0022 O   0  0  0  0  0  0  0  0  0  0  0  0
   -2.1232   -2.2423    2.4042 C   0  0  0  0  0  0  0  0  0  0  0  0
   -0.3048   -4.0823    2.0245 H   0  0  0  0  0  0  0  0  0  0  0  0
   -1.3830   -2.3724    0.3801 H   0  0  0  0  0  0  0  0  0  0  0  0
   -1.7534   -2.0527    3.4185 H   0  0  0  0  0  0  0  0  0  0  0  0
   -2.8936   -1.4947    2.1882 H   0  0  0  0  0  0  0  0  0  0  0  0
   -2.5964   -3.2301    2.4022 H   0  0  0  0  0  0  0  0  0  0  0  0
   -1.0412    0.1517    0.7482 N   0  0  0  0  0  0  0  0  0  0  0  0
   -0.6079    1.5223    0.6467 C   0  0  2  0  0  0  0  0  0  0  0  0
   -1.7986    2.3659    0.1930 C   0  0  0  0  0  0  0  0  0  0  0  0
   -2.2328    2.3441   -0.9569 O   0  0  0  0  0  0  0  0  0  0  0  0
    0.6269    1.6997   -0.2695 C   0  0  2  0  0  0  0  0  0  0  0  0
    1.8690    0.9588    0.2736 C   0  0  0  0  0  0  0  0  0  0  0  0
    0.9099    3.1913   -0.4918 C   0  0  0  0  0  0  0  0  0  0  0  0
    3.0181    0.8885   -0.7239 C   0  0  0  0  0  0  0  0  0  0  0  0
   -1.9022   -0.1128    0.2753 H   0  0  0  0  0  0  0  0  0  0  0  0
   -0.3574    1.8341    1.6688 H   0  0  0  0  0  0  0  0  0  0  0  0
    0.3849    1.2695   -1.2506 H   0  0  0  0  0  0  0  0  0  0  0  0
    2.2384    1.4697    1.1702 H   0  0  0  0  0  0  0  0  0  0  0  0
    1.6038   -0.0611    0.5763 H   0  0  0  0  0  0  0  0  0  0  0  0
    1.1599    3.6852    0.4533 H   0  0  0  0  0  0  0  0  0  0  0  0
    1.7609    3.3372   -1.1641 H   0  0  0  0  0  0  0  0  0  0  0  0
    0.0448    3.7041   -0.9249 H   0  0  0  0  0  0  0  0  0  0  0  0
    2.7187    0.3876   -1.6489 H   0  0  0  0  0  0  0  0  0  0  0  0
    3.8502    0.3193   -0.2964 H   0  0  0  0  0  0  0  0  0  0  0  0
    3.3855    1.8892   -0.9720 H   0  0  0  0  0  0  0  0  0  0  0  0
   -2.3346    3.1159    1.2302 N   0  0  0  0  0  0  0  0  0  0  0  0
   -3.4793    3.9837    1.0719 C   0  0  2  0  0  0  0  0  0  0  0  0
   -4.1741    4.0967    2.4224 C   0  0  0  0  0  0  0  0  0  0  0  0
   -4.0519    3.2572    3.3120 O   0  0  0  0  0  0  0  0  0  0  0  0
   -4.4331    3.4537    0.0126 C   0  0  0  0  0  0  0  0  0  0  0  0
   -1.9007    3.0519    2.1463 H   0  0  0  0  0  0  0  0  0  0  0  0
   -3.0936    4.9653    0.7757 H   0  0  0  0  0  0  0  0  0  0  0  0
   -4.8299    2.4709    0.2918 H   0  0  0  0  0  0  0  0  0  0  0  0
   -5.2855    4.1269   -0.1264 H   0  0  0  0  0  0  0  0  0  0  0  0
   -3.9238    3.3449   -0.9511 H   0  0  0  0  0  0  0  0  0  0  0  0
   -4.9809    5.2232    2.5016 N   0  0  0  0  0  0  0  0  0  0  0  0
   -5.7552    5.5465    3.6772 C   0  0  0  0  0  0  0  0  0  0  0  0
   -5.0073    5.8747    1.7228 H   0  0  0  0  0  0  0  0  0  0  0  0
   -6.7653    5.1220    3.5797 H   0  0  0  0  0  0  0  0  0  0  0  0
   -5.2646    5.1246    4.5667 H   0  0  0  0  0  0  0  0  0  0  0  0
   -5.8254    6.6394    3.7807 H   0  0  0  0  0  0  0  0  0  0  0  0
  1  3  1  0  0  0  0
  1  7  1  0  0  0  0
  1  2  2  0  0  0  0
 37 38  1  0  0  0  0
 38 46  1  0  0  0  0
 38 39  2  0  0  0  0
  8  9  1  0  0  0  0
  9 17  1  0  0  0  0
  9 10  2  0  0  0  0
 18 19  1  0  0  0  0
 19 36  1  0  0  0  0
 19 20  2  0  0  0  0
 22 24  1  0  0  0  0
 37 40  1  0  0  0  0
  8 11  1  0  0  0  0
 21 23  1  0  0  0  0
 46 47  1  0  0  0  0
 21 22  1  0  0  0  0
 36 37  1  0  0  0  0
  7  8  1  0  0  0  0
 18 21  1  0  0  0  0
 17 18  1  0  0  0  0
  3  4  1  0  0  0  0
  3  5  1  0  0  0  0
  3  6  1  0  0  0  0
 24 33  1  0  0  0  0
 24 34  1  0  0  0  0
 24 35  1  0  0  0  0
 40 43  1  0  0  0  0
 40 44  1  0  0  0  0
 40 45  1  0  0  0  0
 11 14  1  0  0  0  0
 11 15  1  0  0  0  0
 11 16  1  0  0  0  0
 23 30  1  0  0  0  0
 23 31  1  0  0  0  0
 23 32  1  0  0  0  0
 47 49  1  0  0  0  0
 47 50  1  0  0  0  0
 47 51  1  0  0  0  0
 22 28  1  0  0  0  0
 22 29  1  0  0  0  0
 37 42  1  0  0  0  0
  8 13  1  0  0  0  0
 18 26  1  0  0  0  0
 21 27  1  0  0  0  0
 46 48  1  0  0  0  0
  7 12  1  0  0  0  0
 36 41  1  0  0  0  0
 17 25  1  0  0  0  0
M  END
$$$$

  -OEChem-05262214473D

 51 50  0     1  0  0  0  0  0999 V2000
    1.3524   -3.0009    1.4091 C   0  0  0  0  0  0  0  0  0  0  0  0
    1.8758   -1.9880    0.9598 O   0  0  0  0  0  0  0  0  0  0  0  0
    2.2030   -4.1782    1.7536 C   0  0  0  0  0  0  0  0  0  0  0  0
    2.3264   -4.8705    0.9053 H   0  0  0  0  0  0  0  0  0  0  0  0
    3.2257   -3.8876    2.0432 H   0  0  0  0  0  0  0  0  0  0  0  0
    1.8327   -4.8004    2.5839 H   0  0  0  0  0  0  0  0  0  0  0  0
    0.0005   -3.1873    1.6465 N   0  0  0  0  0  0  0  0  0  0  0  0
   -0.9949   -2.1807    1.3864 C   0  0  2  0  0  0  0  0  0  0  0  0
   -0.3083   -0.8216    1.4164 C   0  0  0  0  0  0  0  0  0  0  0  0
    0.7533   -0.6191    2.0022 O   0  0  0  0  0  0  0  0  0  0  0  0
   -2.1232   -2.2423    2.4042 C   0  0  0  0  0  0  0  0  0  0  0  0
   -0.3048   -4.0823    2.0245 H   0  0  0  0  0  0  0  0  0  0  0  0
   -1.3830   -2.3724    0.3801 H   0  0  0  0  0  0  0  0  0  0  0  0
   -1.7534   -2.0527    3.4185 H   0  0  0  0  0  0  0  0  0  0  0  0
   -2.8936   -1.4947    2.1882 H   0  0  0  0  0  0  0  0  0  0  0  0
   -2.5964   -3.2301    2.4022 H   0  0  0  0  0  0  0  0  0  0  0  0
   -1.0412    0.1517    0.7482 N   0  0  0  0  0  0  0  0  0  0  0  0
   -0.6079    1.5223    0.6467 C   0  0  2  0  0  0  0  0  0  0  0  0
   -1.7986    2.3659    0.1930 C   0  0  0  0  0  0  0  0  0  0  0  0
   -2.4017    2.1589   -0.8581 O   0  0  0  0  0  0  0  0  0  0  0  0
    0.6269    1.6997   -0.2695 C   0  0  2  0  0  0  0  0  0  0  0  0
    1.8690    0.9588    0.2736 C   0  0  0  0  0  0  0  0  0  0  0  0
    0.9099    3.1913   -0.4918 C   0  0  0  0  0  0  0  0  0  0  0  0
    3.0181    0.8885   -0.7239 C   0  0  0  0  0  0  0  0  0  0  0  0
   -1.9022   -0.1128    0.2753 H   0  0  0  0  0  0  0  0  0  0  0  0
   -0.3574    1.8341    1.6688 H   0  0  0  0  0  0  0  0  0  0  0  0
    0.3849    1.2695   -1.2506 H   0  0  0  0  0  0  0  0  0  0  0  0
    2.2384    1.4697    1.1702 H   0  0  0  0  0  0  0  0  0  0  0  0
    1.6038   -0.0611    0.5763 H   0  0  0  0  0  0  0  0  0  0  0  0
    1.1599    3.6852    0.4533 H   0  0  0  0  0  0  0  0  0  0  0  0
    1.7609    3.3372   -1.1641 H   0  0  0  0  0  0  0  0  0  0  0  0
    0.0448    3.7041   -0.9249 H   0  0  0  0  0  0  0  0  0  0  0  0
    2.7187    0.3876   -1.6489 H   0  0  0  0  0  0  0  0  0  0  0  0
    3.8502    0.3193   -0.2964 H   0  0  0  0  0  0  0  0  0  0  0  0
    3.3855    1.8892   -0.9720 H   0  0  0  0  0  0  0  0  0  0  0  0
   -2.1244    3.3506    1.1148 N   0  0  0  0  0  0  0  0  0  0  0  0
   -3.2237    4.2715    0.9361 C   0  0  2  0  0  0  0  0  0  0  0  0
   -3.6986    4.7102    2.3151 C   0  0  0  0  0  0  0  0  0  0  0  0
   -3.4961    4.0538    3.3345 O   0  0  0  0  0  0  0  0  0  0  0  0
   -4.3574    3.6336    0.1483 C   0  0  0  0  0  0  0  0  0  0  0  0
   -1.5622    3.4280    1.9572 H   0  0  0  0  0  0  0  0  0  0  0  0
   -2.8267    5.1365    0.3937 H   0  0  0  0  0  0  0  0  0  0  0  0
   -4.7679    2.7651    0.6762 H   0  0  0  0  0  0  0  0  0  0  0  0
   -5.1774    4.3416   -0.0108 H   0  0  0  0  0  0  0  0  0  0  0  0
   -4.0070    3.2919   -0.8316 H   0  0  0  0  0  0  0  0  0  0  0  0
   -4.4126    5.8994    2.2673 N   0  0  0  0  0  0  0  0  0  0  0  0
   -4.9792    6.5164    3.4438 C   0  0  0  0  0  0  0  0  0  0  0  0
   -4.5155    6.3851    1.3812 H   0  0  0  0  0  0  0  0  0  0  0  0
   -6.0169    6.1752    3.5737 H   0  0  0  0  0  0  0  0  0  0  0  0
   -4.3873    6.2340    4.3269 H   0  0  0  0  0  0  0  0  0  0  0  0
   -4.9648    7.6101    3.3271 H   0  0  0  0  0  0  0  0  0  0  0  0
  1  3  1  0  0  0  0
  1  7  1  0  0  0  0
  1  2  2  0  0  0  0
 37 38  1  0  0  0  0
 38 46  1  0  0  0  0
 38 39  2  0  0  0  0
  8  9  1  0  0  0  0
  9 17  1  0  0  0  0
  9 10  2  0  0  0  0
 18 19  1  0  0  0  0
 19 36  1  0  0  0  0
 19 20  2  0  0  0  0
 22 24  1  0  0  0  0
 37 40  1  0  0  0  0
  8 11  1  0  0  0  0
 21 23  1  0  0  0  0
 46 47  1  0  0  0  0
 21 22  1  0  0  0  0
 36 37  1  0  0  0  0
  7  8  1  0  0  0  0
 18 21  1  0  0  0  0
 17 18  1  0  0  0  0
  3  4  1  0  0  0  0
  3  5  1  0  0  0  0
  3  6  1  0  0  0  0
 24 33  1  0  0  0  0
 24 34  1  0  0  0  0
 24 35  1  0  0  0  0
 40 43  1  0  0  0  0
 40 44  1  0  0  0  0
 40 45  1  0  0  0  0
 11 14  1  0  0  0  0
 11 15  1  0  0  0  0
 11 16  1  0  0  0  0
 23 30  1  0  0  0  0
 23 31  1  0  0  0  0
 23 32  1  0  0  0  0
 47 49  1  0  0  0  0
 47 50  1  0  0  0  0
 47 51  1  0  0  0  0
 22 28  1  0  0  0  0
 22 29  1  0  0  0  0
 37 42  1  0  0  0  0
  8 13  1  0  0  0  0
 18 26  1  0  0  0  0
 21 27  1  0  0  0  0
 46 48  1  0  0  0  0
  7 12  1  0  0  0  0
 36 41  1  0  0  0  0
 17 25  1  0  0  0  0
M  END
$$$$

  -OEChem-05262214473D

 51 50  0     1  0  0  0  0  0999 V2000
    1.3524   -3.0009    1.4091 C   0  0  0  0  0  0  0  0  0  0  0  0
    1.8758   -1.9880    0.9598 O   0  0  0  0  0  0  0  0  0  0  0  0
    2.2030   -4.1782    1.7536 C   0  0  0  0  0  0  0  0  0  0  0  0
    2.3264   -4.8705    0.9053 H   0  0  0  0  0  0  0  0  0  0  0  0
    3.2257   -3.8876    2.0432 H   0  0  0  0  0  0  0  0  0  0  0  0
    1.8327   -4.8004    2.5839 H   0  0  0  0  0  0  0  0  0  0  0  0
    0.0005   -3.1873    1.6465 N   0  0  0  0  0  0  0  0  0  0  0  0
   -0.9949   -2.1807    1.3864 C   0  0  2  0  0  0  0  0  0  0  0  0
   -0.3083   -0.8216    1.4164 C   0  0  0  0  0  0  0  0  0  0  0  0
    0.7533   -0.6191    2.0022 O   0  0  0  0  0  0  0  0  0  0  0  0
   -2.1232   -2.2423    2.4042 C   0  0  0  0  0  0  0  0  0  0  0  0
   -0.3048   -4.0823    2.0245 H   0  0  0  0  0  0  0  0  0  0  0  0
   -1.3830   -2.3724    0.3801 H   0  0  0  0  0  0  0  0  0  0  0  0
   -1.7534   -2.0527    3.4185 H   0  0  0  0  0  0  0  0  0  0  0  0
   -2.8936   -1.4947    2.1882 H   0  0  0  0  0  0  0  0  0  0  0  0
   -2.5964   -3.2301    2.4022 H   0  0  0  0  0  0  0  0  0  0  0  0
   -1.0412    0.1517    0.7482 N   0  0  0  0  0  0  0  0  0  0  0  0
   -0.6079    1.5223    0.6467 C   0  0  2  0  0  0  0  0  0  0  0  0
   -1.7986    2.3659    0.1930 C   0  0  0  0  0  0  0  0  0  0  0  0
   -2.5650    2.0129   -0.7011 O   0  0  0  0  0  0  0  0  0  0  0  0
    0.6269    1.6997   -0.2695 C   0  0  2  0  0  0  0  0  0  0  0  0
    1.8690    0.9588    0.2736 C   0  0  0  0  0  0  0  0  0  0  0  0
    0.9099    3.1913   -0.4918 C   0  0  0  0  0  0  0  0  0  0  0  0
    3.0181    0.8885   -0.7239 C   0  0  0  0  0  0  0  0  0  0  0  0
   -1.9022   -0.1128    0.2753 H   0  0  0  0  0  0  0  0  0  0  0  0
   -0.3574    1.8341    1.6688 H   0  0  0  0  0  0  0  0  0  0  0  0
    0.3849    1.2695   -1.2506 H   0  0  0  0  0  0  0  0  0  0  0  0
    2.2384    1.4697    1.1702 H   0  0  0  0  0  0  0  0  0  0  0  0
    1.6038   -0.0611    0.5763 H   0  0  0  0  0  0  0  0  0  0  0  0
    1.1599    3.6852    0.4533 H   0  0  0  0  0  0  0  0  0  0  0  0
    1.7609    3.3372   -1.1641 H   0  0  0  0  0  0  0  0  0  0  0  0
    0.0448    3.7041   -0.9249 H   0  0  0  0  0  0  0  0  0  0  0  0
    2.7187    0.3876   -1.6489 H   0  0  0  0  0  0  0  0  0  0  0  0
    3.8502    0.3193   -0.2964 H   0  0  0  0  0  0  0  0  0  0  0  0
    3.3855    1.8892   -0.9720 H   0  0  0  0  0  0  0  0  0  0  0  0
   -1.9198    3.5378    0.9261 N   0  0  0  0  0  0  0  0  0  0  0  0
   -2.9741    4.5025    0.7105 C   0  0  2  0  0  0  0  0  0  0  0  0
   -3.2075    5.2446    2.0198 C   0  0  0  0  0  0  0  0  0  0  0  0
   -2.8948    4.7851    3.1162 O   0  0  0  0  0  0  0  0  0  0  0  0
   -4.2510    3.8290    0.2324 C   0  0  0  0  0  0  0  0  0  0  0  0
   -1.2333    3.7271    1.6503 H   0  0  0  0  0  0  0  0  0  0  0  0
   -2.6104    5.2042   -0.0480 H   0  0  0  0  0  0  0  0  0  0  0  0
   -4.6305    3.1221    0.9793 H   0  0  0  0  0  0  0  0  0  0  0  0
   -5.0401    4.5640    0.0422 H   0  0  0  0  0  0  0  0  0  0  0  0
   -4.0743    3.2711   -0.6935 H   0  0  0  0  0  0  0  0  0  0  0  0
   -3.8451    6.4616    1.8234 N   0  0  0  0  0  0  0  0  0  0  0  0
   -4.1884    7.3465    2.9120 C   0  0  0  0  0  0  0  0  0  0  0  0
   -4.0500    6.7715    0.8780 H   0  0  0  0  0  0  0  0  0  0  0  0
   -5.2138    7.1338    3.2486 H   0  0  0  0  0  0  0  0  0  0  0  0
   -3.4889    7.1898    3.7463 H   0  0  0  0  0  0  0  0  0  0  0  0
   -4.1238    8.3901    2.5703 H   0  0  0  0  0  0  0  0  0  0  0  0
  1  3  1  0  0  0  0
  1  7  1  0  0  0  0
  1  2  2  0  0  0  0
 37 38  1  0  0  0  0
 38 46  1  0  0  0  0
 38 39  2  0  0  0  0
  8  9  1  0  0  0  0
  9 17  1  0  0  0  0
  9 10  2  0  0  0  0
 18 19  1  0  0  0  0
 19 36  1  0  0  0  0
 19 20  2  0  0  0  0
 22 24  1  0  0  0  0
 37 40  1  0  0  0  0
  8 11  1  0  0  0  0
 21 23  1  0  0  0  0
 46 47  1  0  0  0  0
 21 22  1  0  0  0  0
 36 37  1  0  0  0  0
  7  8  1  0  0  0  0
 18 21  1  0  0  0  0
 17 18  1  0  0  0  0
  3  4  1  0  0  0  0
  3  5  1  0  0  0  0
  3  6  1  0  0  0  0
 24 33  1  0  0  0  0
 24 34  1  0  0  0  0
 24 35  1  0  0  0  0
 40 43  1  0  0  0  0
 40 44  1  0  0  0  0
 40 45  1  0  0  0  0
 11 14  1  0  0  0  0
 11 15  1  0  0  0  0
 11 16  1  0  0  0  0
 23 30  1  0  0  0  0
 23 31  1  0  0  0  0
 23 32  1  0  0  0  0
 47 49  1  0  0  0  0
 47 50  1  0  0  0  0
 47 51  1  0  0  0  0
 22 28  1  0  0  0  0
 22 29  1  0  0  0  0
 37 42  1  0  0  0  0
  8 13  1  0  0  0  0
 18 26  1  0  0  0  0
 21 27  1  0  0  0  0
 46 48  1  0  0  0  0
  7 12  1  0  0  0  0
 36 41  1  0  0  0  0
 17 25  1  0  0  0  0
M  END
$$$$

  -OEChem-05262214473D

 51 50  0     1  0  0  0  0  0999 V2000
    1.3524   -3.0009    1.4091 C   0  0  0  0  0  0  0  0  0  0  0  0
    1.8758   -1.9880    0.9598 O   0  0  0  0  0  0  0  0  0  0  0  0
    2.2030   -4.1782    1.7536 C   0  0  0  0  0  0  0  0  0  0  0  0
    2.3264   -4.8705    0.9053 H   0  0  0  0  0  0  0  0  0  0  0  0
    3.2257   -3.8876    2.0432 H   0  0  0  0  0  0  0  0  0  0  0  0
    1.8327   -4.8004    2.5839 H   0  0  0  0  0  0  0  0  0  0  0  0
    0.0005   -3.1873    1.6465 N   0  0  0  0  0  0  0  0  0  0  0  0
   -0.9949   -2.1807    1.3864 C   0  0  2  0  0  0  0  0  0  0  0  0
   -0.3083   -0.8216    1.4164 C   0  0  0  0  0  0  0  0  0  0  0  0
    0.7533   -0.6191    2.0022 O   0  0  0  0  0  0  0  0  0  0  0  0
   -2.1232   -2.2423    2.4042 C   0  0  0  0  0  0  0  0  0  0  0  0
   -0.3048   -4.0823    2.0245 H   0  0  0  0  0  0  0  0  0  0  0  0
   -1.3830   -2.3724    0.3801 H   0  0  0  0  0  0  0  0  0  0  0  0
   -1.7534   -2.0527    3.4185 H   0  0  0  0  0  0  0  0  0  0  0  0
   -2.8936   -1.4947    2.1882 H   0  0  0  0  0  0  0  0  0  0  0  0
   -2.5964   -3.2301    2.4022 H   0  0  0  0  0  0  0  0  0  0  0  0
   -1.0412    0.1517    0.7482 N   0  0  0  0  0  0  0  0  0  0  0  0
   -0.6079    1.5223    0.6467 C   0  0  2  0  0  0  0  0  0  0  0  0
   -1.7986    2.3659    0.1930 C   0  0  0  0  0  0  0  0  0  0  0  0
   -2.7115    1.9160   -0.4967 O   0  0  0  0  0  0  0  0  0  0  0  0
    0.6269    1.6997   -0.2695 C   0  0  2  0  0  0  0  0  0  0  0  0
    1.8690    0.9588    0.2736 C   0  0  0  0  0  0  0  0  0  0  0  0
    0.9099    3.1913   -0.4918 C   0  0  0  0  0  0  0  0  0  0  0  0
    3.0181    0.8885   -0.7239 C   0  0  0  0  0  0  0  0  0  0  0  0
   -1.9022   -0.1128    0.2753 H   0  0  0  0  0  0  0  0  0  0  0  0
   -0.3574    1.8341    1.6688 H   0  0  0  0  0  0  0  0  0  0  0  0
    0.3849    1.2695   -1.2506 H   0  0  0  0  0  0  0  0  0  0  0  0
    2.2384    1.4697    1.1702 H   0  0  0  0  0  0  0  0  0  0  0  0
    1.6038   -0.0611    0.5763 H   0  0  0  0  0  0  0  0  0  0  0  0
    1.1599    3.6852    0.4533 H   0  0  0  0  0  0  0  0  0  0  0  0
    1.7609    3.3372   -1.1641 H   0  0  0  0  0  0  0  0  0  0  0  0
    0.0448    3.7041   -0.9249 H   0  0  0  0  0  0  0  0  0  0  0  0
    2.7187    0.3876   -1.6489 H   0  0  0  0  0  0  0  0  0  0  0  0
    3.8502    0.3193   -0.2964 H   0  0  0  0  0  0  0  0  0  0  0  0
    3.3855    1.8892   -0.9720 H   0  0  0  0  0  0  0  0  0  0  0  0
   -1.7348    3.6649    0.6768 N   0  0  0  0  0  0  0  0  0  0  0  0
   -2.7475    4.6609    0.4103 C   0  0  2  0  0  0  0  0  0  0  0  0
   -2.7342    5.6635    1.5566 C   0  0  0  0  0  0  0  0  0  0  0  0
   -2.2890    5.4013    2.6720 O   0  0  0  0  0  0  0  0  0  0  0  0
   -4.1213    4.0264    0.2590 C   0  0  0  0  0  0  0  0  0  0  0  0
   -0.9365    3.9289    1.2466 H   0  0  0  0  0  0  0  0  0  0  0  0
   -2.4594    5.1640   -0.5192 H   0  0  0  0  0  0  0  0  0  0  0  0
   -4.4270    3.5175    1.1804 H   0  0  0  0  0  0  0  0  0  0  0  0
   -4.8827    4.7790    0.0289 H   0  0  0  0  0  0  0  0  0  0  0  0
   -4.1212    3.2840   -0.5464 H   0  0  0  0  0  0  0  0  0  0  0  0
   -3.3172    6.8715    1.2001 N   0  0  0  0  0  0  0  0  0  0  0  0
   -3.4368    7.9803    2.1179 C   0  0  0  0  0  0  0  0  0  0  0  0
   -3.6426    7.0074    0.2476 H   0  0  0  0  0  0  0  0  0  0  0  0
   -4.4110    7.9325    2.6265 H   0  0  0  0  0  0  0  0  0  0  0  0
   -2.6306    7.9269    2.8642 H   0  0  0  0  0  0  0  0  0  0  0  0
   -3.3597    8.9263    1.5618 H   0  0  0  0  0  0  0  0  0  0  0  0
  1  3  1  0  0  0  0
  1  7  1  0  0  0  0
  1  2  2  0  0  0  0
 37 38  1  0  0  0  0
 38 46  1  0  0  0  0
 38 39  2  0  0  0  0
  8  9  1  0  0  0  0
  9 17  1  0  0  0  0
  9 10  2  0  0  0  0
 18 19  1  0  0  0  0
 19 36  1  0  0  0  0
 19 20  2  0  0  0  0
 22 24  1  0  0  0  0
 37 40  1  0  0  0  0
  8 11  1  0  0  0  0
 21 23  1  0  0  0  0
 46 47  1  0  0  0  0
 21 22  1  0  0  0  0
 36 37  1  0  0  0  0
  7  8  1  0  0  0  0
 18 21  1  0  0  0  0
 17 18  1  0  0  0  0
  3  4  1  0  0  0  0
  3  5  1  0  0  0  0
  3  6  1  0  0  0  0
 24 33  1  0  0  0  0
 24 34  1  0  0  0  0
 24 35  1  0  0  0  0
 40 43  1  0  0  0  0
 40 44  1  0  0  0  0
 40 45  1  0  0  0  0
 11 14  1  0  0  0  0
 11 15  1  0  0  0  0
 11 16  1  0  0  0  0
 23 30  1  0  0  0  0
 23 31  1  0  0  0  0
 23 32  1  0  0  0  0
 47 49  1  0  0  0  0
 47 50  1  0  0  0  0
 47 51  1  0  0  0  0
 22 28  1  0  0  0  0
 22 29  1  0  0  0  0
 37 42  1  0  0  0  0
  8 13  1  0  0  0  0
 18 26  1  0  0  0  0
 21 27  1  0  0  0  0
 46 48  1  0  0  0  0
  7 12  1  0  0  0  0
 36 41  1  0  0  0  0
 17 25  1  0  0  0  0
M  END
$$$$

  -OEChem-05262214473D

 51 50  0     1  0  0  0  0  0999 V2000
    1.3524   -3.0009    1.4091 C   0  0  0  0  0  0  0  0  0  0  0  0
    1.8758   -1.9880    0.9598 O   0  0  0  0  0  0  0  0  0  0  0  0
    2.2030   -4.1782    1.7536 C   0  0  0  0  0  0  0  0  0  0  0  0
    2.3264   -4.8705    0.9053 H   0  0  0  0  0  0  0  0  0  0  0  0
    3.2257   -3.8876    2.0432 H   0  0  0  0  0  0  0  0  0  0  0  0
    1.8327   -4.8004    2.5839 H   0  0  0  0  0  0  0  0  0  0  0  0
    0.0005   -3.1873    1.6465 N   0  0  0  0  0  0  0  0  0  0  0  0
   -0.9949   -2.1807    1.3864 C   0  0  2  0  0  0  0  0  0  0  0  0
   -0.3083   -0.8216    1.4164 C   0  0  0  0  0  0  0  0  0  0  0  0
    0.7533   -0.6191    2.0022 O   0  0  0  0  0  0  0  0  0  0  0  0
   -2.1232   -2.2423    2.4042 C   0  0  0  0  0  0  0  0  0  0  0  0
   -0.3048   -4.0823    2.0245 H   0  0  0  0  0  0  0  0  0  0  0  0
   -1.3830   -2.3724    0.3801 H   0  0  0  0  0  0  0  0  0  0  0  0
   -1.7534   -2.0527    3.4185 H   0  0  0  0  0  0  0  0  0  0  0  0
   -2.8936   -1.4947    2.1882 H   0  0  0  0  0  0  0  0  0  0  0  0
   -2.5964   -3.2301    2.4022 H   0  0  0  0  0  0  0  0  0  0  0  0
   -1.0412    0.1517    0.7482 N   0  0  0  0  0  0  0  0  0  0  0  0
   -0.6079    1.5223    0.6467 C   0  0  2  0  0  0  0  0  0  0  0  0
   -1.7986    2.3659    0.1930 C   0  0  0  0  0  0  0  0  0  0  0  0
   -2.8312    1.8750   -0.2588 O   0  0  0  0  0  0  0  0  0  0  0  0
    0.6269    1.6997   -0.2695 C   0  0  2  0  0  0  0  0  0  0  0  0
    1.8690    0.9588    0.2736 C   0  0  0  0  0  0  0  0  0  0  0  0
    0.9099    3.1913   -0.4918 C   0  0  0  0  0  0  0  0  0  0  0  0
    3.0181    0.8885   -0.7239 C   0  0  0  0  0  0  0  0  0  0  0  0
   -1.9022   -0.1128    0.2753 H   0  0  0  0  0  0  0  0  0  0  0  0
   -0.3574    1.8341    1.6688 H   0  0  0  0  0  0  0  0  0  0  0  0
    0.3849    1.2695   -1.2506 H   0  0  0  0  0  0  0  0  0  0  0  0
    2.2384    1.4697    1.1702 H   0  0  0  0  0  0  0  0  0  0  0  0
    1.6038   -0.0611    0.5763 H   0  0  0  0  0  0  0  0  0  0  0  0
    1.1599    3.6852    0.4533 H   0  0  0  0  0  0  0  0  0  0  0  0
    1.7609    3.3372   -1.1641 H   0  0  0  0  0  0  0  0  0  0  0  0
    0.0448    3.7041   -0.9249 H   0  0  0  0  0  0  0  0  0  0  0  0
    2.7187    0.3876   -1.6489 H   0  0  0  0  0  0  0  0  0  0  0  0
    3.8502    0.3193   -0.2964 H   0  0  0  0  0  0  0  0  0  0  0  0
    3.3855    1.8892   -0.9720 H   0  0  0  0  0  0  0  0  0  0  0  0
   -1.5819    3.7231    0.3839 N   0  0  0  0  0  0  0  0  0  0  0  0
   -2.5593    4.7359    0.0560 C   0  0  2  0  0  0  0  0  0  0  0  0
   -2.3110    5.9384    0.9571 C   0  0  0  0  0  0  0  0  0  0  0  0
   -1.7199    5.8603    2.0321 O   0  0  0  0  0  0  0  0  0  0  0  0
   -3.9770    4.2126    0.2263 C   0  0  0  0  0  0  0  0  0  0  0  0
   -0.6920    4.0196    0.7736 H   0  0  0  0  0  0  0  0  0  0  0  0
   -2.3839    5.0185   -0.9878 H   0  0  0  0  0  0  0  0  0  0  0  0
   -4.1714    3.9243    1.2658 H   0  0  0  0  0  0  0  0  0  0  0  0
   -4.7161    4.9718   -0.0498 H   0  0  0  0  0  0  0  0  0  0  0  0
   -4.1445    3.3298   -0.4002 H   0  0  0  0  0  0  0  0  0  0  0  0
   -2.8649    7.1012    0.4400 N   0  0  0  0  0  0  0  0  0  0  0  0
   -2.7756    8.3746    1.1156 C   0  0  0  0  0  0  0  0  0  0  0  0
   -3.3211    7.0769   -0.4672 H   0  0  0  0  0  0  0  0  0  0  0  0
   -3.6629    8.5168    1.7499 H   0  0  0  0  0  0  0  0  0  0  0  0
   -1.8709    8.3951    1.7410 H   0  0  0  0  0  0  0  0  0  0  0  0
   -2.7244    9.1821    0.3703 H   0  0  0  0  0  0  0  0  0  0  0  0
  1  3  1  0  0  0  0
  1  7  1  0  0  0  0
  1  2  2  0  0  0  0
 37 38  1  0  0  0  0
 38 46  1  0  0  0  0
 38 39  2  0  0  0  0
  8  9  1  0  0  0  0
  9 17  1  0  0  0  0
  9 10  2  0  0  0  0
 18 19  1  0  0  0  0
 19 36  1  0  0  0  0
 19 20  2  0  0  0  0
 22 24  1  0  0  0  0
 37 40  1  0  0  0  0
  8 11  1  0  0  0  0
 21 23  1  0  0  0  0
 46 47  1  0  0  0  0
 21 22  1  0  0  0  0
 36 37  1  0  0  0  0
  7  8  1  0  0  0  0
 18 21  1  0  0  0  0
 17 18  1  0  0  0  0
  3  4  1  0  0  0  0
  3  5  1  0  0  0  0
  3  6  1  0  0  0  0
 24 33  1  0  0  0  0
 24 34  1  0  0  0  0
 24 35  1  0  0  0  0
 40 43  1  0  0  0  0
 40 44  1  0  0  0  0
 40 45  1  0  0  0  0
 11 14  1  0  0  0  0
 11 15  1  0  0  0  0
 11 16  1  0  0  0  0
 23 30  1  0  0  0  0
 23 31  1  0  0  0  0
 23 32  1  0  0  0  0
 47 49  1  0  0  0  0
 47 50  1  0  0  0  0
 47 51  1  0  0  0  0
 22 28  1  0  0  0  0
 22 29  1  0  0  0  0
 37 42  1  0  0  0  0
  8 13  1  0  0  0  0
 18 26  1  0  0  0  0
 21 27  1  0  0  0  0
 46 48  1  0  0  0  0
  7 12  1  0  0  0  0
 36 41  1  0  0  0  0
 17 25  1  0  0  0  0
M  END
$$$$

  -OEChem-05262214473D

 51 50  0     1  0  0  0  0  0999 V2000
    1.3524   -3.0009    1.4091 C   0  0  0  0  0  0  0  0  0  0  0  0
    1.8758   -1.9880    0.9598 O   0  0  0  0  0  0  0  0  0  0  0  0
    2.2030   -4.1782    1.7536 C   0  0  0  0  0  0  0  0  0  0  0  0
    2.3264   -4.8705    0.9053 H   0  0  0  0  0  0  0  0  0  0  0  0
    3.2257   -3.8876    2.0432 H   0  0  0  0  0  0  0  0  0  0  0  0
    1.8327   -4.8004    2.5839 H   0  0  0  0  0  0  0  0  0  0  0  0
    0.0005   -3.1873    1.6465 N   0  0  0  0  0  0  0  0  0  0  0  0
   -0.9949   -2.1807    1.3864 C   0  0  2  0  0  0  0  0  0  0  0  0
   -0.3083   -0.8216    1.4164 C   0  0  0  0  0  0  0  0  0  0  0  0
    0.7533   -0.6191    2.0022 O   0  0  0  0  0  0  0  0  0  0  0  0
   -2.1232   -2.2423    2.4042 C   0  0  0  0  0  0  0  0  0  0  0  0
   -0.3048   -4.0823    2.0245 H   0  0  0  0  0  0  0  0  0  0  0  0
   -1.3830   -2.3724    0.3801 H   0  0  0  0  0  0  0  0  0  0  0  0
   -1.7534   -2.0527    3.4185 H   0  0  0  0  0  0  0  0  0  0  0  0
   -2.8936   -1.4947    2.1882 H   0  0  0  0  0  0  0  0  0  0  0  0
   -2.5964   -3.2301    2.4022 H   0  0  0  0  0  0  0  0  0  0  0  0
   -1.0412    0.1517    0.7482 N   0  0  0  0  0  0  0  0  0  0  0  0
   -0.6079    1.5223    0.6467 C   0  0  2  0  0  0  0  0  0  0  0  0
   -1.8495    2.4096    0.5661 C   0  0  0  0  0  0  0  0  0  0  0  0
   -2.9938    1.9629    0.6162 O   0  0  0  0  0  0  0  0  0  0  0  0
    0.3687    1.7620   -0.5299 C   0  0  2  0  0  0  0  0  0  0  0  0
    1.6849    0.9696   -0.3678 C   0  0  0  0  0  0  0  0  0  0  0  0
    0.6300    3.2642   -0.7019 C   0  0  0  0  0  0  0  0  0  0  0  0
    2.5516    0.9696   -1.6205 C   0  0  0  0  0  0  0  0  0  0  0  0
   -1.9022   -0.1128    0.2753 H   0  0  0  0  0  0  0  0  0  0  0  0
   -0.1056    1.7491    1.5958 H   0  0  0  0  0  0  0  0  0  0  0  0
   -0.1187    1.4139   -1.4504 H   0  0  0  0  0  0  0  0  0  0  0  0
    2.2772    1.4038    0.4458 H   0  0  0  0  0  0  0  0  0  0  0  0
    1.4737   -0.0691   -0.0870 H   0  0  0  0  0  0  0  0  0  0  0  0
    1.1181    3.6787    0.1868 H   0  0  0  0  0  0  0  0  0  0  0  0
    1.2937    3.4563   -1.5505 H   0  0  0  0  0  0  0  0  0  0  0  0
   -0.3002    3.8173   -0.8680 H   0  0  0  0  0  0  0  0  0  0  0  0
    2.0204    0.5470   -2.4781 H   0  0  0  0  0  0  0  0  0  0  0  0
    3.4469    0.3610   -1.4560 H   0  0  0  0  0  0  0  0  0  0  0  0
    2.8747    1.9838   -1.8753 H   0  0  0  0  0  0  0  0  0  0  0  0
   -1.5259    3.7552    0.4655 N   0  0  0  0  0  0  0  0  0  0  0  0
   -2.5160    4.8056    0.3945 C   0  0  2  0  0  0  0  0  0  0  0  0
   -1.8925    6.0781    0.9527 C   0  0  0  0  0  0  0  0  0  0  0  0
   -0.9327    6.0737    1.7208 O   0  0  0  0  0  0  0  0  0  0  0  0
   -3.7736    4.4335    1.1644 C   0  0  0  0  0  0  0  0  0  0  0  0
   -0.5443    4.0149    0.4405 H   0  0  0  0  0  0  0  0  0  0  0  0
   -2.7506    4.9479   -0.6660 H   0  0  0  0  0  0  0  0  0  0  0  0
   -3.5583    4.2868    2.2291 H   0  0  0  0  0  0  0  0  0  0  0  0
   -4.5335    5.2180    1.0859 H   0  0  0  0  0  0  0  0  0  0  0  0
   -4.2041    3.5022    0.7809 H   0  0  0  0  0  0  0  0  0  0  0  0
   -2.5609    7.2172    0.5264 N   0  0  0  0  0  0  0  0  0  0  0  0
   -2.1689    8.5477    0.9290 C   0  0  0  0  0  0  0  0  0  0  0  0
   -3.3349    7.1279   -0.1253 H   0  0  0  0  0  0  0  0  0  0  0  0
   -2.7334    8.8411    1.8263 H   0  0  0  0  0  0  0  0  0  0  0  0
   -1.0920    8.5606    1.1529 H   0  0  0  0  0  0  0  0  0  0  0  0
   -2.3824    9.2551    0.1141 H   0  0  0  0  0  0  0  0  0  0  0  0
  1  3  1  0  0  0  0
  1  7  1  0  0  0  0
  1  2  2  0  0  0  0
 37 38  1  0  0  0  0
 38 46  1  0  0  0  0
 38 39  2  0  0  0  0
  8  9  1  0  0  0  0
  9 17  1  0  0  0  0
  9 10  2  0  0  0  0
 18 19  1  0  0  0  0
 19 36  1  0  0  0  0
 19 20  2  0  0  0  0
 22 24  1  0  0  0  0
 37 40  1  0  0  0  0
  8 11  1  0  0  0  0
 21 23  1  0  0  0  0
 46 47  1  0  0  0  0
 21 22  1  0  0  0  0
 36 37  1  0  0  0  0
  7  8  1  0  0  0  0
 18 21  1  0  0  0  0
 17 18  1  0  0  0  0
  3  4  1  0  0  0  0
  3  5  1  0  0  0  0
  3  6  1  0  0  0  0
 24 33  1  0  0  0  0
 24 34  1  0  0  0  0
 24 35  1  0  0  0  0
 40 43  1  0  0  0  0
 40 44  1  0  0  0  0
 40 45  1  0  0  0  0
 11 14  1  0  0  0  0
 11 15  1  0  0  0  0
 11 16  1  0  0  0  0
 23 30  1  0  0  0  0
 23 31  1  0  0  0  0
 23 32  1  0  0  0  0
 47 49  1  0  0  0  0
 47 50  1  0  0  0  0
 47 51  1  0  0  0  0
 22 28  1  0  0  0  0
 22 29  1  0  0  0  0
 37 42  1  0  0  0  0
  8 13  1  0  0  0  0
 18 26  1  0  0  0  0
 21 27  1  0  0  0  0
 46 48  1  0  0  0  0
  7 12  1  0  0  0  0
 36 41  1  0  0  0  0
 17 25  1  0  0  0  0
M  END
$$$$

  -OEChem-05262214473D

 51 50  0     1  0  0  0  0  0999 V2000
    1.3524   -3.0009    1.4091 C   0  0  0  0  0  0  0  0  0  0  0  0
    1.8758   -1.9880    0.9598 O   0  0  0  0  0  0  0  0  0  0  0  0
    2.2030   -4.1782    1.7536 C   0  0  0  0  0  0  0  0  0  0  0  0
    2.3264   -4.8705    0.9053 H   0  0  0  0  0  0  0  0  0  0  0  0
    3.2257   -3.8876    2.0432 H   0  0  0  0  0  0  0  0  0  0  0  0
    1.8327   -4.8004    2.5839 H   0  0  0  0  0  0  0  0  0  0  0  0
    0.0005   -3.1873    1.6465 N   0  0  0  0  0  0  0  0  0  0  0  0
   -0.9949   -2.1807    1.3864 C   0  0  2  0  0  0  0  0  0  0  0  0
   -0.3083   -0.8216    1.4164 C   0  0  0  0  0  0  0  0  0  0  0  0
    0.7533   -0.6191    2.0022 O   0  0  0  0  0  0  0  0  0  0  0  0
   -2.1232   -2.2423    2.4042 C   0  0  0  0  0  0  0  0  0  0  0  0
   -0.3048   -4.0823    2.0245 H   0  0  0  0  0  0  0  0  0  0  0  0
   -1.3830   -2.3724    0.3801 H   0  0  0  0  0  0  0  0  0  0  0  0
   -1.7534   -2.0527    3.4185 H   0  0  0  0  0  0  0  0  0  0  0  0
   -2.8936   -1.4947    2.1882 H   0  0  0  0  0  0  0  0  0  0  0  0
   -2.5964   -3.2301    2.4022 H   0  0  0  0  0  0  0  0  0  0  0  0
   -1.0412    0.1517    0.7482 N   0  0  0  0  0  0  0  0  0  0  0  0
   -0.6079    1.5223    0.6467 C   0  0  2  0  0  0  0  0  0  0  0  0
   -1.8495    2.4096    0.5661 C   0  0  0  0  0  0  0  0  0  0  0  0
   -2.9718    2.0175    0.8792 O   0  0  0  0  0  0  0  0  0  0  0  0
    0.3687    1.7620   -0.5299 C   0  0  2  0  0  0  0  0  0  0  0  0
    1.6849    0.9696   -0.3678 C   0  0  0  0  0  0  0  0  0  0  0  0
    0.6300    3.2642   -0.7019 C   0  0  0  0  0  0  0  0  0  0  0  0
    2.5516    0.9696   -1.6205 C   0  0  0  0  0  0  0  0  0  0  0  0
   -1.9022   -0.1128    0.2753 H   0  0  0  0  0  0  0  0  0  0  0  0
   -0.1056    1.7491    1.5958 H   0  0  0  0  0  0  0  0  0  0  0  0
   -0.1187    1.4139   -1.4504 H   0  0  0  0  0  0  0  0  0  0  0  0
    2.2772    1.4038    0.4458 H   0  0  0  0  0  0  0  0  0  0  0  0
    1.4737   -0.0691   -0.0870 H   0  0  0  0  0  0  0  0  0  0  0  0
    1.1181    3.6787    0.1868 H   0  0  0  0  0  0  0  0  0  0  0  0
    1.2937    3.4563   -1.5505 H   0  0  0  0  0  0  0  0  0  0  0  0
   -0.3002    3.8173   -0.8680 H   0  0  0  0  0  0  0  0  0  0  0  0
    2.0204    0.5470   -2.4781 H   0  0  0  0  0  0  0  0  0  0  0  0
    3.4469    0.3610   -1.4560 H   0  0  0  0  0  0  0  0  0  0  0  0
    2.8747    1.9838   -1.8753 H   0  0  0  0  0  0  0  0  0  0  0  0
   -1.5482    3.6941    0.1364 N   0  0  0  0  0  0  0  0  0  0  0  0
   -2.5401    4.7354   -0.0068 C   0  0  2  0  0  0  0  0  0  0  0  0
   -1.8422    6.0774    0.1707 C   0  0  0  0  0  0  0  0  0  0  0  0
   -0.7770    6.2053    0.7708 O   0  0  0  0  0  0  0  0  0  0  0  0
   -3.6654    4.5702    1.0027 C   0  0  0  0  0  0  0  0  0  0  0  0
   -0.5824    3.9135   -0.0887 H   0  0  0  0  0  0  0  0  0  0  0  0
   -2.9332    4.6596   -1.0265 H   0  0  0  0  0  0  0  0  0  0  0  0
   -3.2907    4.6432    2.0302 H   0  0  0  0  0  0  0  0  0  0  0  0
   -4.4303    5.3432    0.8742 H   0  0  0  0  0  0  0  0  0  0  0  0
   -4.1469    3.5925    0.8931 H   0  0  0  0  0  0  0  0  0  0  0  0
   -2.5703    7.1214   -0.3824 N   0  0  0  0  0  0  0  0  0  0  0  0
   -2.1249    8.4945   -0.3330 C   0  0  0  0  0  0  0  0  0  0  0  0
   -3.4340    6.9209   -0.8779 H   0  0  0  0  0  0  0  0  0  0  0  0
   -2.5475    8.9858    0.5559 H   0  0  0  0  0  0  0  0  0  0  0  0
   -1.0266    8.5219   -0.2796 H   0  0  0  0  0  0  0  0  0  0  0  0
   -2.4614    9.0217   -1.2379 H   0  0  0  0  0  0  0  0  0  0  0  0
  1  3  1  0  0  0  0
  1  7  1  0  0  0  0
  1  2  2  0  0  0  0
 37 38  1  0  0  0  0
 38 46  1  0  0  0  0
 38 39  2  0  0  0  0
  8  9  1  0  0  0  0
  9 17  1  0  0  0  0
  9 10  2  0  0  0  0
 18 19  1  0  0  0  0
 19 36  1  0  0  0  0
 19 20  2  0  0  0  0
 22 24  1  0  0  0  0
 37 40  1  0  0  0  0
  8 11  1  0  0  0  0
 21 23  1  0  0  0  0
 46 47  1  0  0  0  0
 21 22  1  0  0  0  0
 36 37  1  0  0  0  0
  7  8  1  0  0  0  0
 18 21  1  0  0  0  0
 17 18  1  0  0  0  0
  3  4  1  0  0  0  0
  3  5  1  0  0  0  0
  3  6  1  0  0  0  0
 24 33  1  0  0  0  0
 24 34  1  0  0  0  0
 24 35  1  0  0  0  0
 40 43  1  0  0  0  0
 40 44  1  0  0  0  0
 40 45  1  0  0  0  0
 11 14  1  0  0  0  0
 11 15  1  0  0  0  0
 11 16  1  0  0  0  0
 23 30  1  0  0  0  0
 23 31  1  0  0  0  0
 23 32  1  0  0  0  0
 47 49  1  0  0  0  0
 47 50  1  0  0  0  0
 47 51  1  0  0  0  0
 22 28  1  0  0  0  0
 22 29  1  0  0  0  0
 37 42  1  0  0  0  0
  8 13  1  0  0  0  0
 18 26  1  0  0  0  0
 21 27  1  0  0  0  0
 46 48  1  0  0  0  0
  7 12  1  0  0  0  0
 36 41  1  0  0  0  0
 17 25  1  0  0  0  0
M  END
$$$$

  -OEChem-05262214473D

 51 50  0     1  0  0  0  0  0999 V2000
    1.3524   -3.0009    1.4091 C   0  0  0  0  0  0  0  0  0  0  0  0
    1.8758   -1.9880    0.9598 O   0  0  0  0  0  0  0  0  0  0  0  0
    2.2030   -4.1782    1.7536 C   0  0  0  0  0  0  0  0  0  0  0  0
    2.3264   -4.8705    0.9053 H   0  0  0  0  0  0  0  0  0  0  0  0
    3.2257   -3.8876    2.0432 H   0  0  0  0  0  0  0  0  0  0  0  0
    1.8327   -4.8004    2.5839 H   0  0  0  0  0  0  0  0  0  0  0  0
    0.0005   -3.1873    1.6465 N   0  0  0  0  0  0  0  0  0  0  0  0
   -0.9949   -2.1807    1.3864 C   0  0  2  0  0  0  0  0  0  0  0  0
   -0.3083   -0.8216    1.4164 C   0  0  0  0  0  0  0  0  0  0  0  0
    0.7533   -0.6191    2.0022 O   0  0  0  0  0  0  0  0  0  0  0  0
   -2.1232   -2.2423    2.4042 C   0  0  0  0  0  0  0  0  0  0  0  0
   -0.3048   -4.0823    2.0245 H   0  0  0  0  0  0  0  0  0  0  0  0
   -1.3830   -2.3724    0.3801 H   0  0  0  0  0  0  0  0  0  0  0  0
   -1.7534   -2.0527    3.4185 H   0  0  0  0  0  0  0  0  0  0  0  0
   -2.8936   -1.4947    2.1882 H   0  0  0  0  0  0  0  0  0  0  0  0
   -2.5964   -3.2301    2.4022 H   0  0  0  0  0  0  0  0  0  0  0  0
   -1.0412    0.1517    0.7482 N   0  0  0  0  0  0  0  0  0  0  0  0
   -0.6079    1.5223    0.6467 C   0  0  2  0  0  0  0  0  0  0  0  0
   -1.8495    2.4096    0.5661 C   0  0  0  0  0  0  0  0  0  0  0  0
   -2.9104    2.1253    1.1184 O   0  0  0  0  0  0  0  0  0  0  0  0
    0.3687    1.7620   -0.5299 C   0  0  2  0  0  0  0  0  0  0  0  0
    1.6849    0.9696   -0.3678 C   0  0  0  0  0  0  0  0  0  0  0  0
    0.6300    3.2642   -0.7019 C   0  0  0  0  0  0  0  0  0  0  0  0
    2.5516    0.9696   -1.6205 C   0  0  0  0  0  0  0  0  0  0  0  0
   -1.9022   -0.1128    0.2753 H   0  0  0  0  0  0  0  0  0  0  0  0
   -0.1056    1.7491    1.5958 H   0  0  0  0  0  0  0  0  0  0  0  0
   -0.1187    1.4139   -1.4504 H   0  0  0  0  0  0  0  0  0  0  0  0
    2.2772    1.4038    0.4458 H   0  0  0  0  0  0  0  0  0  0  0  0
    1.4737   -0.0691   -0.0870 H   0  0  0  0  0  0  0  0  0  0  0  0
    1.1181    3.6787    0.1868 H   0  0  0  0  0  0  0  0  0  0  0  0
    1.2937    3.4563   -1.5505 H   0  0  0  0  0  0  0  0  0  0  0  0
   -0.3002    3.8173   -0.8680 H   0  0  0  0  0  0  0  0  0  0  0  0
    2.0204    0.5470   -2.4781 H   0  0  0  0  0  0  0  0  0  0  0  0
    3.4469    0.3610   -1.4560 H   0  0  0  0  0  0  0  0  0  0  0  0
    2.8747    1.9838   -1.8753 H   0  0  0  0  0  0  0  0  0  0  0  0
   -1.6200    3.5662   -0.1653 N   0  0  0  0  0  0  0  0  0  0  0  0
   -2.6246    4.5835   -0.3761 C   0  0  2  0  0  0  0  0  0  0  0  0
   -1.9111    5.9116   -0.5920 C   0  0  0  0  0  0  0  0  0  0  0  0
   -0.7675    6.1305   -0.1979 O   0  0  0  0  0  0  0  0  0  0  0  0
   -3.5834    4.6668    0.8015 C   0  0  0  0  0  0  0  0  0  0  0  0
   -0.7000    3.7049   -0.5728 H   0  0  0  0  0  0  0  0  0  0  0  0
   -3.1678    4.3078   -1.2866 H   0  0  0  0  0  0  0  0  0  0  0  0
   -3.0573    4.9419    1.7229 H   0  0  0  0  0  0  0  0  0  0  0  0
   -4.3608    5.4181    0.6278 H   0  0  0  0  0  0  0  0  0  0  0  0
   -4.0735    3.7025    0.9739 H   0  0  0  0  0  0  0  0  0  0  0  0
   -2.7172    6.8380   -1.2387 N   0  0  0  0  0  0  0  0  0  0  0  0
   -2.2729    8.1771   -1.5474 C   0  0  0  0  0  0  0  0  0  0  0  0
   -3.6456    6.5639   -1.5464 H   0  0  0  0  0  0  0  0  0  0  0  0
   -2.5568    8.8559   -0.7296 H   0  0  0  0  0  0  0  0  0  0  0  0
   -1.1792    8.1824   -1.6651 H   0  0  0  0  0  0  0  0  0  0  0  0
   -2.7440    8.5131   -2.4829 H   0  0  0  0  0  0  0  0  0  0  0  0
  1  3  1  0  0  0  0
  1  7  1  0  0  0  0
  1  2  2  0  0  0  0
 37 38  1  0  0  0  0
 38 46  1  0  0  0  0
 38 39  2  0  0  0  0
  8  9  1  0  0  0  0
  9 17  1  0  0  0  0
  9 10  2  0  0  0  0
 18 19  1  0  0  0  0
 19 36  1  0  0  0  0
 19 20  2  0  0  0  0
 22 24  1  0  0  0  0
 37 40  1  0  0  0  0
  8 11  1  0  0  0  0
 21 23  1  0  0  0  0
 46 47  1  0  0  0  0
 21 22  1  0  0  0  0
 36 37  1  0  0  0  0
  7  8  1  0  0  0  0
 18 21  1  0  0  0  0
 17 18  1  0  0  0  0
  3  4  1  0  0  0  0
  3  5  1  0  0  0  0
  3  6  1  0  0  0  0
 24 33  1  0  0  0  0
 24 34  1  0  0  0  0
 24 35  1  0  0  0  0
 40 43  1  0  0  0  0
 40 44  1  0  0  0  0
 40 45  1  0  0  0  0
 11 14  1  0  0  0  0
 11 15  1  0  0  0  0
 11 16  1  0  0  0  0
 23 30  1  0  0  0  0
 23 31  1  0  0  0  0
 23 32  1  0  0  0  0
 47 49  1  0  0  0  0
 47 50  1  0  0  0  0
 47 51  1  0  0  0  0
 22 28  1  0  0  0  0
 22 29  1  0  0  0  0
 37 42  1  0  0  0  0
  8 13  1  0  0  0  0
 18 26  1  0  0  0  0
 21 27  1  0  0  0  0
 46 48  1  0  0  0  0
  7 12  1  0  0  0  0
 36 41  1  0  0  0  0
 17 25  1  0  0  0  0
M  END
$$$$

  -OEChem-05262214473D

 51 50  0     1  0  0  0  0  0999 V2000
    1.3524   -3.0009    1.4091 C   0  0  0  0  0  0  0  0  0  0  0  0
    1.8758   -1.9880    0.9598 O   0  0  0  0  0  0  0  0  0  0  0  0
    2.2030   -4.1782    1.7536 C   0  0  0  0  0  0  0  0  0  0  0  0
    2.3264   -4.8705    0.9053 H   0  0  0  0  0  0  0  0  0  0  0  0
    3.2257   -3.8876    2.0432 H   0  0  0  0  0  0  0  0  0  0  0  0
    1.8327   -4.8004    2.5839 H   0  0  0  0  0  0  0  0  0  0  0  0
    0.0005   -3.1873    1.6465 N   0  0  0  0  0  0  0  0  0  0  0  0
   -0.9949   -2.1807    1.3864 C   0  0  2  0  0  0  0  0  0  0  0  0
   -0.3083   -0.8216    1.4164 C   0  0  0  0  0  0  0  0  0  0  0  0
    0.7533   -0.6191    2.0022 O   0  0  0  0  0  0  0  0  0  0  0  0
   -2.1232   -2.2423    2.4042 C   0  0  0  0  0  0  0  0  0  0  0  0
   -0.3048   -4.0823    2.0245 H   0  0  0  0  0  0  0  0  0  0  0  0
   -1.3830   -2.3724    0.3801 H   0  0  0  0  0  0  0  0  0  0  0  0
   -1.7534   -2.0527    3.4185 H   0  0  0  0  0  0  0  0  0  0  0  0
   -2.8936   -1.4947    2.1882 H   0  0  0  0  0  0  0  0  0  0  0  0
   -2.5964   -3.2301    2.4022 H   0  0  0  0  0  0  0  0  0  0  0  0
   -1.0412    0.1517    0.7482 N   0  0  0  0  0  0  0  0  0  0  0  0
   -0.6079    1.5223    0.6467 C   0  0  2  0  0  0  0  0  0  0  0  0
   -1.8495    2.4096    0.5661 C   0  0  0  0  0  0  0  0  0  0  0  0
   -2.8136    2.2788    1.3176 O   0  0  0  0  0  0  0  0  0  0  0  0
    0.3687    1.7620   -0.5299 C   0  0  2  0  0  0  0  0  0  0  0  0
    1.6849    0.9696   -0.3678 C   0  0  0  0  0  0  0  0  0  0  0  0
    0.6300    3.2642   -0.7019 C   0  0  0  0  0  0  0  0  0  0  0  0
    2.5516    0.9696   -1.6205 C   0  0  0  0  0  0  0  0  0  0  0  0
   -1.9022   -0.1128    0.2753 H   0  0  0  0  0  0  0  0  0  0  0  0
   -0.1056    1.7491    1.5958 H   0  0  0  0  0  0  0  0  0  0  0  0
   -0.1187    1.4139   -1.4504 H   0  0  0  0  0  0  0  0  0  0  0  0
    2.2772    1.4038    0.4458 H   0  0  0  0  0  0  0  0  0  0  0  0
    1.4737   -0.0691   -0.0870 H   0  0  0  0  0  0  0  0  0  0  0  0
    1.1181    3.6787    0.1868 H   0  0  0  0  0  0  0  0  0  0  0  0
    1.2937    3.4563   -1.5505 H   0  0  0  0  0  0  0  0  0  0  0  0
   -0.3002    3.8173   -0.8680 H   0  0  0  0  0  0  0  0  0  0  0  0
    2.0204    0.5470   -2.4781 H   0  0  0  0  0  0  0  0  0  0  0  0
    3.4469    0.3610   -1.4560 H   0  0  0  0  0  0  0  0  0  0  0  0
    2.8747    1.9838   -1.8753 H   0  0  0  0  0  0  0  0  0  0  0  0
   -1.7364    3.3803   -0.4190 N   0  0  0  0  0  0  0  0  0  0  0  0
   -2.7639    4.3603   -0.6881 C   0  0  2  0  0  0  0  0  0  0  0  0
   -2.0946    5.5920   -1.2836 C   0  0  0  0  0  0  0  0  0  0  0  0
   -0.9050    5.8544   -1.1193 O   0  0  0  0  0  0  0  0  0  0  0  0
   -3.5330    4.7166    0.5745 C   0  0  0  0  0  0  0  0  0  0  0  0
   -0.8893    3.4031   -0.9789 H   0  0  0  0  0  0  0  0  0  0  0  0
   -3.4382    3.9164   -1.4286 H   0  0  0  0  0  0  0  0  0  0  0  0
   -2.8739    5.1627    1.3281 H   0  0  0  0  0  0  0  0  0  0  0  0
   -4.3296    5.4377    0.3636 H   0  0  0  0  0  0  0  0  0  0  0  0
   -3.9890    3.8247    1.0178 H   0  0  0  0  0  0  0  0  0  0  0  0
   -2.9917    6.3861   -1.9841 N   0  0  0  0  0  0  0  0  0  0  0  0
   -2.6026    7.6172   -2.6314 C   0  0  0  0  0  0  0  0  0  0  0  0
   -3.9554    6.0815   -2.0852 H   0  0  0  0  0  0  0  0  0  0  0  0
   -2.7608    8.4602   -1.9426 H   0  0  0  0  0  0  0  0  0  0  0  0
   -1.5395    7.5652   -2.9089 H   0  0  0  0  0  0  0  0  0  0  0  0
   -3.2110    7.7639   -3.5360 H   0  0  0  0  0  0  0  0  0  0  0  0
  1  3  1  0  0  0  0
  1  7  1  0  0  0  0
  1  2  2  0  0  0  0
 37 38  1  0  0  0  0
 38 46  1  0  0  0  0
 38 39  2  0  0  0  0
  8  9  1  0  0  0  0
  9 17  1  0  0  0  0
  9 10  2  0  0  0  0
 18 19  1  0  0  0  0
 19 36  1  0  0  0  0
 19 20  2  0  0  0  0
 22 24  1  0  0  0  0
 37 40  1  0  0  0  0
  8 11  1  0  0  0  0
 21 23  1  0  0  0  0
 46 47  1  0  0  0  0
 21 22  1  0  0  0  0
 36 37  1  0  0  0  0
  7  8  1  0  0  0  0
 18 21  1  0  0  0  0
 17 18  1  0  0  0  0
  3  4  1  0  0  0  0
  3  5  1  0  0  0  0
  3  6  1  0  0  0  0
 24 33  1  0  0  0  0
 24 34  1  0  0  0  0
 24 35  1  0  0  0  0
 40 43  1  0  0  0  0
 40 44  1  0  0  0  0
 40 45  1  0  0  0  0
 11 14  1  0  0  0  0
 11 15  1  0  0  0  0
 11 16  1  0  0  0  0
 23 30  1  0  0  0  0
 23 31  1  0  0  0  0
 23 32  1  0  0  0  0
 47 49  1  0  0  0  0
 47 50  1  0  0  0  0
 47 51  1  0  0  0  0
 22 28  1  0  0  0  0
 22 29  1  0  0  0  0
 37 42  1  0  0  0  0
  8 13  1  0  0  0  0
 18 26  1  0  0  0  0
 21 27  1  0  0  0  0
 46 48  1  0  0  0  0
  7 12  1  0  0  0  0
 36 41  1  0  0  0  0
 17 25  1  0  0  0  0
M  END
$$$$

  -OEChem-05262214473D

 51 50  0     1  0  0  0  0  0999 V2000
    1.3524   -3.0009    1.4091 C   0  0  0  0  0  0  0  0  0  0  0  0
    1.8758   -1.9880    0.9598 O   0  0  0  0  0  0  0  0  0  0  0  0
    2.2030   -4.1782    1.7536 C   0  0  0  0  0  0  0  0  0  0  0  0
    2.3264   -4.8705    0.9053 H   0  0  0  0  0  0  0  0  0  0  0  0
    3.2257   -3.8876    2.0432 H   0  0  0  0  0  0  0  0  0  0  0  0
    1.8327   -4.8004    2.5839 H   0  0  0  0  0  0  0  0  0  0  0  0
    0.0005   -3.1873    1.6465 N   0  0  0  0  0  0  0  0  0  0  0  0
   -0.9949   -2.1807    1.3864 C   0  0  2  0  0  0  0  0  0  0  0  0
   -0.3083   -0.8216    1.4164 C   0  0  0  0  0  0  0  0  0  0  0  0
    0.7533   -0.6191    2.0022 O   0  0  0  0  0  0  0  0  0  0  0  0
   -2.1232   -2.2423    2.4042 C   0  0  0  0  0  0  0  0  0  0  0  0
   -0.3048   -4.0823    2.0245 H   0  0  0  0  0  0  0  0  0  0  0  0
   -1.3830   -2.3724    0.3801 H   0  0  0  0  0  0  0  0  0  0  0  0
   -1.7534   -2.0527    3.4185 H   0  0  0  0  0  0  0  0  0  0  0  0
   -2.8936   -1.4947    2.1882 H   0  0  0  0  0  0  0  0  0  0  0  0
   -2.5964   -3.2301    2.4022 H   0  0  0  0  0  0  0  0  0  0  0  0
   -1.0412    0.1517    0.7482 N   0  0  0  0  0  0  0  0  0  0  0  0
   -0.6079    1.5223    0.6467 C   0  0  2  0  0  0  0  0  0  0  0  0
   -1.8495    2.4096    0.5661 C   0  0  0  0  0  0  0  0  0  0  0  0
   -2.6881    2.4677    1.4632 O   0  0  0  0  0  0  0  0  0  0  0  0
    0.3687    1.7620   -0.5299 C   0  0  2  0  0  0  0  0  0  0  0  0
    1.6849    0.9696   -0.3678 C   0  0  0  0  0  0  0  0  0  0  0  0
    0.6300    3.2642   -0.7019 C   0  0  0  0  0  0  0  0  0  0  0  0
    2.5516    0.9696   -1.6205 C   0  0  0  0  0  0  0  0  0  0  0  0
   -1.9022   -0.1128    0.2753 H   0  0  0  0  0  0  0  0  0  0  0  0
   -0.1056    1.7491    1.5958 H   0  0  0  0  0  0  0  0  0  0  0  0
   -0.1187    1.4139   -1.4504 H   0  0  0  0  0  0  0  0  0  0  0  0
    2.2772    1.4038    0.4458 H   0  0  0  0  0  0  0  0  0  0  0  0
    1.4737   -0.0691   -0.0870 H   0  0  0  0  0  0  0  0  0  0  0  0
    1.1181    3.6787    0.1868 H   0  0  0  0  0  0  0  0  0  0  0  0
    1.2937    3.4563   -1.5505 H   0  0  0  0  0  0  0  0  0  0  0  0
   -0.3002    3.8173   -0.8680 H   0  0  0  0  0  0  0  0  0  0  0  0
    2.0204    0.5470   -2.4781 H   0  0  0  0  0  0  0  0  0  0  0  0
    3.4469    0.3610   -1.4560 H   0  0  0  0  0  0  0  0  0  0  0  0
    2.8747    1.9838   -1.8753 H   0  0  0  0  0  0  0  0  0  0  0  0
   -1.8895    3.1489   -0.6075 N   0  0  0  0  0  0  0  0  0  0  0  0
   -2.9483    4.0810   -0.9217 C   0  0  2  0  0  0  0  0  0  0  0  0
   -2.3801    5.1403   -1.8568 C   0  0  0  0  0  0  0  0  0  0  0  0
   -1.1800    5.3959   -1.9305 O   0  0  0  0  0  0  0  0  0  0  0  0
   -3.5178    4.7163    0.3372 C   0  0  0  0  0  0  0  0  0  0  0  0
   -1.1372    3.0289   -1.2793 H   0  0  0  0  0  0  0  0  0  0  0  0
   -3.7261    3.5123   -1.4428 H   0  0  0  0  0  0  0  0  0  0  0  0
   -2.7531    5.2904    0.8729 H   0  0  0  0  0  0  0  0  0  0  0  0
   -4.3389    5.4007    0.0997 H   0  0  0  0  0  0  0  0  0  0  0  0
   -3.8991    3.9509    1.0218 H   0  0  0  0  0  0  0  0  0  0  0  0
   -3.3750    5.7967   -2.5678 N   0  0  0  0  0  0  0  0  0  0  0  0
   -3.0916    6.8529   -3.5112 C   0  0  0  0  0  0  0  0  0  0  0  0
   -4.3422    5.5064   -2.4577 H   0  0  0  0  0  0  0  0  0  0  0  0
   -3.1455    7.8257   -3.0004 H   0  0  0  0  0  0  0  0  0  0  0  0
   -2.0828    6.7125   -3.9265 H   0  0  0  0  0  0  0  0  0  0  0  0
   -3.8306    6.8251   -4.3255 H   0  0  0  0  0  0  0  0  0  0  0  0
  1  3  1  0  0  0  0
  1  7  1  0  0  0  0
  1  2  2  0  0  0  0
 37 38  1  0  0  0  0
 38 46  1  0  0  0  0
 38 39  2  0  0  0  0
  8  9  1  0  0  0  0
  9 17  1  0  0  0  0
  9 10  2  0  0  0  0
 18 19  1  0  0  0  0
 19 36  1  0  0  0  0
 19 20  2  0  0  0  0
 22 24  1  0  0  0  0
 37 40  1  0  0  0  0
  8 11  1  0  0  0  0
 21 23  1  0  0  0  0
 46 47  1  0  0  0  0
 21 22  1  0  0  0  0
 36 37  1  0  0  0  0
  7  8  1  0  0  0  0
 18 21  1  0  0  0  0
 17 18  1  0  0  0  0
  3  4  1  0  0  0  0
  3  5  1  0  0  0  0
  3  6  1  0  0  0  0
 24 33  1  0  0  0  0
 24 34  1  0  0  0  0
 24 35  1  0  0  0  0
 40 43  1  0  0  0  0
 40 44  1  0  0  0  0
 40 45  1  0  0  0  0
 11 14  1  0  0  0  0
 11 15  1  0  0  0  0
 11 16  1  0  0  0  0
 23 30  1  0  0  0  0
 23 31  1  0  0  0  0
 23 32  1  0  0  0  0
 47 49  1  0  0  0  0
 47 50  1  0  0  0  0
 47 51  1  0  0  0  0
 22 28  1  0  0  0  0
 22 29  1  0  0  0  0
 37 42  1  0  0  0  0
  8 13  1  0  0  0  0
 18 26  1  0  0  0  0
 21 27  1  0  0  0  0
 46 48  1  0  0  0  0
  7 12  1  0  0  0  0
 36 41  1  0  0  0  0
 17 25  1  0  0  0  0
M  END
$$$$

  -OEChem-05262214473D

 51 50  0     1  0  0  0  0  0999 V2000
    1.3524   -3.0009    1.4091 C   0  0  0  0  0  0  0  0  0  0  0  0
    1.8758   -1.9880    0.9598 O   0  0  0  0  0  0  0  0  0  0  0  0
    2.2030   -4.1782    1.7536 C   0  0  0  0  0  0  0  0  0  0  0  0
    2.3264   -4.8705    0.9053 H   0  0  0  0  0  0  0  0  0  0  0  0
    3.2257   -3.8876    2.0432 H   0  0  0  0  0  0  0  0  0  0  0  0
    1.8327   -4.8004    2.5839 H   0  0  0  0  0  0  0  0  0  0  0  0
    0.0005   -3.1873    1.6465 N   0  0  0  0  0  0  0  0  0  0  0  0
   -0.9949   -2.1807    1.3864 C   0  0  2  0  0  0  0  0  0  0  0  0
   -0.3083   -0.8216    1.4164 C   0  0  0  0  0  0  0  0  0  0  0  0
    0.7533   -0.6191    2.0022 O   0  0  0  0  0  0  0  0  0  0  0  0
   -2.1232   -2.2423    2.4042 C   0  0  0  0  0  0  0  0  0  0  0  0
   -0.3048   -4.0823    2.0245 H   0  0  0  0  0  0  0  0  0  0  0  0
   -1.3830   -2.3724    0.3801 H   0  0  0  0  0  0  0  0  0  0  0  0
   -1.7534   -2.0527    3.4185 H   0  0  0  0  0  0  0  0  0  0  0  0
   -2.8936   -1.4947    2.1882 H   0  0  0  0  0  0  0  0  0  0  0  0
   -2.5964   -3.2301    2.4022 H   0  0  0  0  0  0  0  0  0  0  0  0
   -1.0412    0.1517    0.7482 N   0  0  0  0  0  0  0  0  0  0  0  0
   -0.6079    1.5223    0.6467 C   0  0  2  0  0  0  0  0  0  0  0  0
   -1.8495    2.4096    0.5661 C   0  0  0  0  0  0  0  0  0  0  0  0
   -2.5424    2.6790    1.5452 O   0  0  0  0  0  0  0  0  0  0  0  0
    0.3687    1.7620   -0.5299 C   0  0  2  0  0  0  0  0  0  0  0  0
    1.6849    0.9696   -0.3678 C   0  0  0  0  0  0  0  0  0  0  0  0
    0.6300    3.2642   -0.7019 C   0  0  0  0  0  0  0  0  0  0  0  0
    2.5516    0.9696   -1.6205 C   0  0  0  0  0  0  0  0  0  0  0  0
   -1.9022   -0.1128    0.2753 H   0  0  0  0  0  0  0  0  0  0  0  0
   -0.1056    1.7491    1.5958 H   0  0  0  0  0  0  0  0  0  0  0  0
   -0.1187    1.4139   -1.4504 H   0  0  0  0  0  0  0  0  0  0  0  0
    2.2772    1.4038    0.4458 H   0  0  0  0  0  0  0  0  0  0  0  0
    1.4737   -0.0691   -0.0870 H   0  0  0  0  0  0  0  0  0  0  0  0
    1.1181    3.6787    0.1868 H   0  0  0  0  0  0  0  0  0  0  0  0
    1.2937    3.4563   -1.5505 H   0  0  0  0  0  0  0  0  0  0  0  0
   -0.3002    3.8173   -0.8680 H   0  0  0  0  0  0  0  0  0  0  0  0
    2.0204    0.5470   -2.4781 H   0  0  0  0  0  0  0  0  0  0  0  0
    3.4469    0.3610   -1.4560 H   0  0  0  0  0  0  0  0  0  0  0  0
    2.8747    1.9838   -1.8753 H   0  0  0  0  0  0  0  0  0  0  0  0
   -2.0689    2.8878   -0.7179 N   0  0  0  0  0  0  0  0  0  0  0  0
   -3.1654    3.7646   -1.0608 C   0  0  2  0  0  0  0  0  0  0  0  0
   -2.7482    4.5875   -2.2726 C   0  0  0  0  0  0  0  0  0  0  0  0
   -1.5738    4.7862   -2.5764 O   0  0  0  0  0  0  0  0  0  0  0  0
   -3.5388    4.6659    0.1058 C   0  0  0  0  0  0  0  0  0  0  0  0
   -1.4270    2.6076   -1.4534 H   0  0  0  0  0  0  0  0  0  0  0  0
   -4.0118    3.1228   -1.3283 H   0  0  0  0  0  0  0  0  0  0  0  0
   -2.7030    5.3164    0.3881 H   0  0  0  0  0  0  0  0  0  0  0  0
   -4.3881    5.3095   -0.1461 H   0  0  0  0  0  0  0  0  0  0  0  0
   -3.8099    4.0723    0.9856 H   0  0  0  0  0  0  0  0  0  0  0  0
   -3.8411    5.1098   -2.9501 N   0  0  0  0  0  0  0  0  0  0  0  0
   -3.7066    5.9364   -4.1268 C   0  0  0  0  0  0  0  0  0  0  0  0
   -4.7796    4.8778   -2.6385 H   0  0  0  0  0  0  0  0  0  0  0  0
   -3.6848    6.9956   -3.8309 H   0  0  0  0  0  0  0  0  0  0  0  0
   -2.7722    5.6822   -4.6485 H   0  0  0  0  0  0  0  0  0  0  0  0
   -4.5605    5.7607   -4.7976 H   0  0  0  0  0  0  0  0  0  0  0  0
  1  3  1  0  0  0  0
  1  7  1  0  0  0  0
  1  2  2  0  0  0  0
 37 38  1  0  0  0  0
 38 46  1  0  0  0  0
 38 39  2  0  0  0  0
  8  9  1  0  0  0  0
  9 17  1  0  0  0  0
  9 10  2  0  0  0  0
 18 19  1  0  0  0  0
 19 36  1  0  0  0  0
 19 20  2  0  0  0  0
 22 24  1  0  0  0  0
 37 40  1  0  0  0  0
  8 11  1  0  0  0  0
 21 23  1  0  0  0  0
 46 47  1  0  0  0  0
 21 22  1  0  0  0  0
 36 37  1  0  0  0  0
  7  8  1  0  0  0  0
 18 21  1  0  0  0  0
 17 18  1  0  0  0  0
  3  4  1  0  0  0  0
  3  5  1  0  0  0  0
  3  6  1  0  0  0  0
 24 33  1  0  0  0  0
 24 34  1  0  0  0  0
 24 35  1  0  0  0  0
 40 43  1  0  0  0  0
 40 44  1  0  0  0  0
 40 45  1  0  0  0  0
 11 14  1  0  0  0  0
 11 15  1  0  0  0  0
 11 16  1  0  0  0  0
 23 30  1  0  0  0  0
 23 31  1  0  0  0  0
 23 32  1  0  0  0  0
 47 49  1  0  0  0  0
 47 50  1  0  0  0  0
 47 51  1  0  0  0  0
 22 28  1  0  0  0  0
 22 29  1  0  0  0  0
 37 42  1  0  0  0  0
  8 13  1  0  0  0  0
 18 26  1  0  0  0  0
 21 27  1  0  0  0  0
 46 48  1  0  0  0  0
  7 12  1  0  0  0  0
 36 41  1  0  0  0  0
 17 25  1  0  0  0  0
M  END
$$$$

  -OEChem-05262214473D

 51 50  0     1  0  0  0  0  0999 V2000
    1.3524   -3.0009    1.4091 C   0  0  0  0  0  0  0  0  0  0  0  0
    1.8758   -1.9880    0.9598 O   0  0  0  0  0  0  0  0  0  0  0  0
    2.2030   -4.1782    1.7536 C   0  0  0  0  0  0  0  0  0  0  0  0
    2.3264   -4.8705    0.9053 H   0  0  0  0  0  0  0  0  0  0  0  0
    3.2257   -3.8876    2.0432 H   0  0  0  0  0  0  0  0  0  0  0  0
    1.8327   -4.8004    2.5839 H   0  0  0  0  0  0  0  0  0  0  0  0
    0.0005   -3.1873    1.6465 N   0  0  0  0  0  0  0  0  0  0  0  0
   -0.9949   -2.1807    1.3864 C   0  0  2  0  0  0  0  0  0  0  0  0
   -0.3083   -0.8216    1.4164 C   0  0  0  0  0  0  0  0  0  0  0  0
    0.7533   -0.6191    2.0022 O   0  0  0  0  0  0  0  0  0  0  0  0
   -2.1232   -2.2423    2.4042 C   0  0  0  0  0  0  0  0  0  0  0  0
   -0.3048   -4.0823    2.0245 H   0  0  0  0  0  0  0  0  0  0  0  0
   -1.3830   -2.3724    0.3801 H   0  0  0  0  0  0  0  0  0  0  0  0
   -1.7534   -2.0527    3.4185 H   0  0  0  0  0  0  0  0  0  0  0  0
   -2.8936   -1.4947    2.1882 H   0  0  0  0  0  0  0  0  0  0  0  0
   -2.5964   -3.2301    2.4022 H   0  0  0  0  0  0  0  0  0  0  0  0
   -1.0412    0.1517    0.7482 N   0  0  0  0  0  0  0  0  0  0  0  0
   -0.6079    1.5223    0.6467 C   0  0  2  0  0  0  0  0  0  0  0  0
   -1.8495    2.4096    0.5661 C   0  0  0  0  0  0  0  0  0  0  0  0
   -2.3865    2.8984    1.5581 O   0  0  0  0  0  0  0  0  0  0  0  0
    0.3687    1.7620   -0.5299 C   0  0  2  0  0  0  0  0  0  0  0  0
    1.6849    0.9696   -0.3678 C   0  0  0  0  0  0  0  0  0  0  0  0
    0.6300    3.2642   -0.7019 C   0  0  0  0  0  0  0  0  0  0  0  0
    2.5516    0.9696   -1.6205 C   0  0  0  0  0  0  0  0  0  0  0  0
   -1.9022   -0.1128    0.2753 H   0  0  0  0  0  0  0  0  0  0  0  0
   -0.1056    1.7491    1.5958 H   0  0  0  0  0  0  0  0  0  0  0  0
   -0.1187    1.4139   -1.4504 H   0  0  0  0  0  0  0  0  0  0  0  0
    2.2772    1.4038    0.4458 H   0  0  0  0  0  0  0  0  0  0  0  0
    1.4737   -0.0691   -0.0870 H   0  0  0  0  0  0  0  0  0  0  0  0
    1.1181    3.6787    0.1868 H   0  0  0  0  0  0  0  0  0  0  0  0
    1.2937    3.4563   -1.5505 H   0  0  0  0  0  0  0  0  0  0  0  0
   -0.3002    3.8173   -0.8680 H   0  0  0  0  0  0  0  0  0  0  0  0
    2.0204    0.5470   -2.4781 H   0  0  0  0  0  0  0  0  0  0  0  0
    3.4469    0.3610   -1.4560 H   0  0  0  0  0  0  0  0  0  0  0  0
    2.8747    1.9838   -1.8753 H   0  0  0  0  0  0  0  0  0  0  0  0
   -2.2624    2.6148   -0.7427 N   0  0  0  0  0  0  0  0  0  0  0  0
   -3.4003    3.4327   -1.0961 C   0  0  2  0  0  0  0  0  0  0  0  0
   -3.1738    3.9711   -2.5026 C   0  0  0  0  0  0  0  0  0  0  0  0
   -2.0595    4.0667   -3.0129 O   0  0  0  0  0  0  0  0  0  0  0  0
   -3.5945    4.5688   -0.1040 C   0  0  0  0  0  0  0  0  0  0  0  0
   -1.7388    2.1680   -1.4895 H   0  0  0  0  0  0  0  0  0  0  0  0
   -4.2760    2.7746   -1.0929 H   0  0  0  0  0  0  0  0  0  0  0  0
   -2.7271    5.2389   -0.0931 H   0  0  0  0  0  0  0  0  0  0  0  0
   -4.4738    5.1705   -0.3570 H   0  0  0  0  0  0  0  0  0  0  0  0
   -3.7276    4.1808    0.9117 H   0  0  0  0  0  0  0  0  0  0  0  0
   -4.3580    4.3723   -3.1048 N   0  0  0  0  0  0  0  0  0  0  0  0
   -4.4057    4.9300   -4.4363 C   0  0  0  0  0  0  0  0  0  0  0  0
   -5.2379    4.2387   -2.6152 H   0  0  0  0  0  0  0  0  0  0  0  0
   -4.3418    6.0266   -4.3775 H   0  0  0  0  0  0  0  0  0  0  0  0
   -3.5606    4.5446   -5.0256 H   0  0  0  0  0  0  0  0  0  0  0  0
   -5.3511    4.6433   -4.9201 H   0  0  0  0  0  0  0  0  0  0  0  0
  1  3  1  0  0  0  0
  1  7  1  0  0  0  0
  1  2  2  0  0  0  0
 37 38  1  0  0  0  0
 38 46  1  0  0  0  0
 38 39  2  0  0  0  0
  8  9  1  0  0  0  0
  9 17  1  0  0  0  0
  9 10  2  0  0  0  0
 18 19  1  0  0  0  0
 19 36  1  0  0  0  0
 19 20  2  0  0  0  0
 22 24  1  0  0  0  0
 37 40  1  0  0  0  0
  8 11  1  0  0  0  0
 21 23  1  0  0  0  0
 46 47  1  0  0  0  0
 21 22  1  0  0  0  0
 36 37  1  0  0  0  0
  7  8  1  0  0  0  0
 18 21  1  0  0  0  0
 17 18  1  0  0  0  0
  3  4  1  0  0  0  0
  3  5  1  0  0  0  0
  3  6  1  0  0  0  0
 24 33  1  0  0  0  0
 24 34  1  0  0  0  0
 24 35  1  0  0  0  0
 40 43  1  0  0  0  0
 40 44  1  0  0  0  0
 40 45  1  0  0  0  0
 11 14  1  0  0  0  0
 11 15  1  0  0  0  0
 11 16  1  0  0  0  0
 23 30  1  0  0  0  0
 23 31  1  0  0  0  0
 23 32  1  0  0  0  0
 47 49  1  0  0  0  0
 47 50  1  0  0  0  0
 47 51  1  0  0  0  0
 22 28  1  0  0  0  0
 22 29  1  0  0  0  0
 37 42  1  0  0  0  0
  8 13  1  0  0  0  0
 18 26  1  0  0  0  0
 21 27  1  0  0  0  0
 46 48  1  0  0  0  0
  7 12  1  0  0  0  0
 36 41  1  0  0  0  0
 17 25  1  0  0  0  0
M  END
$$$$

  -OEChem-05262214473D

 51 50  0     1  0  0  0  0  0999 V2000
    1.3524   -3.0009    1.4091 C   0  0  0  0  0  0  0  0  0  0  0  0
    1.8758   -1.9880    0.9598 O   0  0  0  0  0  0  0  0  0  0  0  0
    2.2030   -4.1782    1.7536 C   0  0  0  0  0  0  0  0  0  0  0  0
    2.3264   -4.8705    0.9053 H   0  0  0  0  0  0  0  0  0  0  0  0
    3.2257   -3.8876    2.0432 H   0  0  0  0  0  0  0  0  0  0  0  0
    1.8327   -4.8004    2.5839 H   0  0  0  0  0  0  0  0  0  0  0  0
    0.0005   -3.1873    1.6465 N   0  0  0  0  0  0  0  0  0  0  0  0
   -0.9949   -2.1807    1.3864 C   0  0  2  0  0  0  0  0  0  0  0  0
   -0.3083   -0.8216    1.4164 C   0  0  0  0  0  0  0  0  0  0  0  0
    0.7533   -0.6191    2.0022 O   0  0  0  0  0  0  0  0  0  0  0  0
   -2.1232   -2.2423    2.4042 C   0  0  0  0  0  0  0  0  0  0  0  0
   -0.3048   -4.0823    2.0245 H   0  0  0  0  0  0  0  0  0  0  0  0
   -1.3830   -2.3724    0.3801 H   0  0  0  0  0  0  0  0  0  0  0  0
   -1.7534   -2.0527    3.4185 H   0  0  0  0  0  0  0  0  0  0  0  0
   -2.8936   -1.4947    2.1882 H   0  0  0  0  0  0  0  0  0  0  0  0
   -2.5964   -3.2301    2.4022 H   0  0  0  0  0  0  0  0  0  0  0  0
   -1.0412    0.1517    0.7482 N   0  0  0  0  0  0  0  0  0  0  0  0
   -0.6079    1.5223    0.6467 C   0  0  2  0  0  0  0  0  0  0  0  0
   -1.8495    2.4096    0.5661 C   0  0  0  0  0  0  0  0  0  0  0  0
   -2.2309    3.1109    1.5010 O   0  0  0  0  0  0  0  0  0  0  0  0
    0.3687    1.7620   -0.5299 C   0  0  2  0  0  0  0  0  0  0  0  0
    1.6849    0.9696   -0.3678 C   0  0  0  0  0  0  0  0  0  0  0  0
    0.6300    3.2642   -0.7019 C   0  0  0  0  0  0  0  0  0  0  0  0
    2.5516    0.9696   -1.6205 C   0  0  0  0  0  0  0  0  0  0  0  0
   -1.9022   -0.1128    0.2753 H   0  0  0  0  0  0  0  0  0  0  0  0
   -0.1056    1.7491    1.5958 H   0  0  0  0  0  0  0  0  0  0  0  0
   -0.1187    1.4139   -1.4504 H   0  0  0  0  0  0  0  0  0  0  0  0
    2.2772    1.4038    0.4458 H   0  0  0  0  0  0  0  0  0  0  0  0
    1.4737   -0.0691   -0.0870 H   0  0  0  0  0  0  0  0  0  0  0  0
    1.1181    3.6787    0.1868 H   0  0  0  0  0  0  0  0  0  0  0  0
    1.2937    3.4563   -1.5505 H   0  0  0  0  0  0  0  0  0  0  0  0
   -0.3002    3.8173   -0.8680 H   0  0  0  0  0  0  0  0  0  0  0  0
    2.0204    0.5470   -2.4781 H   0  0  0  0  0  0  0  0  0  0  0  0
    3.4469    0.3610   -1.4560 H   0  0  0  0  0  0  0  0  0  0  0  0
    2.8747    1.9838   -1.8753 H   0  0  0  0  0  0  0  0  0  0  0  0
   -2.4567    2.3486   -0.6801 N   0  0  0  0  0  0  0  0  0  0  0  0
   -3.6370    3.1079   -1.0250 C   0  0  2  0  0  0  0  0  0  0  0  0
   -3.6278    3.3331   -2.5313 C   0  0  0  0  0  0  0  0  0  0  0  0
   -2.6042    3.2867   -3.2102 O   0  0  0  0  0  0  0  0  0  0  0  0
   -3.6812    4.4317   -0.2778 C   0  0  0  0  0  0  0  0  0  0  0  0
   -2.0514    1.7400   -1.3851 H   0  0  0  0  0  0  0  0  0  0  0  0
   -4.5005    2.4914   -0.7526 H   0  0  0  0  0  0  0  0  0  0  0  0
   -2.8238    5.0631   -0.5380 H   0  0  0  0  0  0  0  0  0  0  0  0
   -4.5901    4.9930   -0.5185 H   0  0  0  0  0  0  0  0  0  0  0  0
   -3.6577    4.2690    0.8051 H   0  0  0  0  0  0  0  0  0  0  0  0
   -4.8907    3.6345   -3.0216 N   0  0  0  0  0  0  0  0  0  0  0  0
   -5.1412    3.9024   -4.4185 C   0  0  0  0  0  0  0  0  0  0  0  0
   -5.6858    3.6325   -2.3894 H   0  0  0  0  0  0  0  0  0  0  0  0
   -5.0718    4.9846   -4.6030 H   0  0  0  0  0  0  0  0  0  0  0  0
   -4.3944    3.3773   -5.0321 H   0  0  0  0  0  0  0  0  0  0  0  0
   -6.1484    3.5491   -4.6846 H   0  0  0  0  0  0  0  0  0  0  0  0
  1  3  1  0  0  0  0
  1  7  1  0  0  0  0
  1  2  2  0  0  0  0
 37 38  1  0  0  0  0
 38 46  1  0  0  0  0
 38 39  2  0  0  0  0
  8  9  1  0  0  0  0
  9 17  1  0  0  0  0
  9 10  2  0  0  0  0
 18 19  1  0  0  0  0
 19 36  1  0  0  0  0
 19 20  2  0  0  0  0
 22 24  1  0  0  0  0
 37 40  1  0  0  0  0
  8 11  1  0  0  0  0
 21 23  1  0  0  0  0
 46 47  1  0  0  0  0
 21 22  1  0  0  0  0
 36 37  1  0  0  0  0
  7  8  1  0  0  0  0
 18 21  1  0  0  0  0
 17 18  1  0  0  0  0
  3  4  1  0  0  0  0
  3  5  1  0  0  0  0
  3  6  1  0  0  0  0
 24 33  1  0  0  0  0
 24 34  1  0  0  0  0
 24 35  1  0  0  0  0
 40 43  1  0  0  0  0
 40 44  1  0  0  0  0
 40 45  1  0  0  0  0
 11 14  1  0  0  0  0
 11 15  1  0  0  0  0
 11 16  1  0  0  0  0
 23 30  1  0  0  0  0
 23 31  1  0  0  0  0
 23 32  1  0  0  0  0
 47 49  1  0  0  0  0
 47 50  1  0  0  0  0
 47 51  1  0  0  0  0
 22 28  1  0  0  0  0
 22 29  1  0  0  0  0
 37 42  1  0  0  0  0
  8 13  1  0  0  0  0
 18 26  1  0  0  0  0
 21 27  1  0  0  0  0
 46 48  1  0  0  0  0
  7 12  1  0  0  0  0
 36 41  1  0  0  0  0
 17 25  1  0  0  0  0
M  END
$$$$

  -OEChem-05262214473D

 51 50  0     1  0  0  0  0  0999 V2000
    1.3524   -3.0009    1.4091 C   0  0  0  0  0  0  0  0  0  0  0  0
    1.8758   -1.9880    0.9598 O   0  0  0  0  0  0  0  0  0  0  0  0
    2.2030   -4.1782    1.7536 C   0  0  0  0  0  0  0  0  0  0  0  0
    2.3264   -4.8705    0.9053 H   0  0  0  0  0  0  0  0  0  0  0  0
    3.2257   -3.8876    2.0432 H   0  0  0  0  0  0  0  0  0  0  0  0
    1.8327   -4.8004    2.5839 H   0  0  0  0  0  0  0  0  0  0  0  0
    0.0005   -3.1873    1.6465 N   0  0  0  0  0  0  0  0  0  0  0  0
   -0.9949   -2.1807    1.3864 C   0  0  2  0  0  0  0  0  0  0  0  0
   -0.3083   -0.8216    1.4164 C   0  0  0  0  0  0  0  0  0  0  0  0
    0.7533   -0.6191    2.0022 O   0  0  0  0  0  0  0  0  0  0  0  0
   -2.1232   -2.2423    2.4042 C   0  0  0  0  0  0  0  0  0  0  0  0
   -0.3048   -4.0823    2.0245 H   0  0  0  0  0  0  0  0  0  0  0  0
   -1.3830   -2.3724    0.3801 H   0  0  0  0  0  0  0  0  0  0  0  0
   -1.7534   -2.0527    3.4185 H   0  0  0  0  0  0  0  0  0  0  0  0
   -2.8936   -1.4947    2.1882 H   0  0  0  0  0  0  0  0  0  0  0  0
   -2.5964   -3.2301    2.4022 H   0  0  0  0  0  0  0  0  0  0  0  0
   -1.0412    0.1517    0.7482 N   0  0  0  0  0  0  0  0  0  0  0  0
   -0.6079    1.5223    0.6467 C   0  0  2  0  0  0  0  0  0  0  0  0
   -1.8495    2.4096    0.5661 C   0  0  0  0  0  0  0  0  0  0  0  0
   -2.0863    3.3020    1.3778 O   0  0  0  0  0  0  0  0  0  0  0  0
    0.3687    1.7620   -0.5299 C   0  0  2  0  0  0  0  0  0  0  0  0
    1.6849    0.9696   -0.3678 C   0  0  0  0  0  0  0  0  0  0  0  0
    0.6300    3.2642   -0.7019 C   0  0  0  0  0  0  0  0  0  0  0  0
    2.5516    0.9696   -1.6205 C   0  0  0  0  0  0  0  0  0  0  0  0
   -1.9022   -0.1128    0.2753 H   0  0  0  0  0  0  0  0  0  0  0  0
   -0.1056    1.7491    1.5958 H   0  0  0  0  0  0  0  0  0  0  0  0
   -0.1187    1.4139   -1.4504 H   0  0  0  0  0  0  0  0  0  0  0  0
    2.2772    1.4038    0.4458 H   0  0  0  0  0  0  0  0  0  0  0  0
    1.4737   -0.0691   -0.0870 H   0  0  0  0  0  0  0  0  0  0  0  0
    1.1181    3.6787    0.1868 H   0  0  0  0  0  0  0  0  0  0  0  0
    1.2937    3.4563   -1.5505 H   0  0  0  0  0  0  0  0  0  0  0  0
   -0.3002    3.8173   -0.8680 H   0  0  0  0  0  0  0  0  0  0  0  0
    2.0204    0.5470   -2.4781 H   0  0  0  0  0  0  0  0  0  0  0  0
    3.4469    0.3610   -1.4560 H   0  0  0  0  0  0  0  0  0  0  0  0
    2.8747    1.9838   -1.8753 H   0  0  0  0  0  0  0  0  0  0  0  0
   -2.6386    2.1073   -0.5345 N   0  0  0  0  0  0  0  0  0  0  0  0
   -3.8594    2.8124   -0.8525 C   0  0  2  0  0  0  0  0  0  0  0  0
   -4.0794    2.7170   -2.3565 C   0  0  0  0  0  0  0  0  0  0  0  0
   -3.1705    2.4992   -3.1550 O   0  0  0  0  0  0  0  0  0  0  0  0
   -3.7930    4.2639   -0.4039 C   0  0  0  0  0  0  0  0  0  0  0  0
   -2.3435    1.3529   -1.1473 H   0  0  0  0  0  0  0  0  0  0  0  0
   -4.6701    2.2924   -0.3305 H   0  0  0  0  0  0  0  0  0  0  0  0
   -2.9865    4.8011   -0.9162 H   0  0  0  0  0  0  0  0  0  0  0  0
   -4.7292    4.7892   -0.6198 H   0  0  0  0  0  0  0  0  0  0  0  0
   -3.6050    4.3308    0.6731 H   0  0  0  0  0  0  0  0  0  0  0  0
   -5.4028    2.9465   -2.7059 N   0  0  0  0  0  0  0  0  0  0  0  0
   -5.8630    2.9236   -4.0748 C   0  0  0  0  0  0  0  0  0  0  0  0
   -6.0927    3.1005   -1.9765 H   0  0  0  0  0  0  0  0  0  0  0  0
   -5.8250    3.9406   -4.4920 H   0  0  0  0  0  0  0  0  0  0  0  0
   -5.2167    2.2597   -4.6677 H   0  0  0  0  0  0  0  0  0  0  0  0
   -6.8980    2.5525   -4.1073 H   0  0  0  0  0  0  0  0  0  0  0  0
  1  3  1  0  0  0  0
  1  7  1  0  0  0  0
  1  2  2  0  0  0  0
 37 38  1  0  0  0  0
 38 46  1  0  0  0  0
 38 39  2  0  0  0  0
  8  9  1  0  0  0  0
  9 17  1  0  0  0  0
  9 10  2  0  0  0  0
 18 19  1  0  0  0  0
 19 36  1  0  0  0  0
 19 20  2  0  0  0  0
 22 24  1  0  0  0  0
 37 40  1  0  0  0  0
  8 11  1  0  0  0  0
 21 23  1  0  0  0  0
 46 47  1  0  0  0  0
 21 22  1  0  0  0  0
 36 37  1  0  0  0  0
  7  8  1  0  0  0  0
 18 21  1  0  0  0  0
 17 18  1  0  0  0  0
  3  4  1  0  0  0  0
  3  5  1  0  0  0  0
  3  6  1  0  0  0  0
 24 33  1  0  0  0  0
 24 34  1  0  0  0  0
 24 35  1  0  0  0  0
 40 43  1  0  0  0  0
 40 44  1  0  0  0  0
 40 45  1  0  0  0  0
 11 14  1  0  0  0  0
 11 15  1  0  0  0  0
 11 16  1  0  0  0  0
 23 30  1  0  0  0  0
 23 31  1  0  0  0  0
 23 32  1  0  0  0  0
 47 49  1  0  0  0  0
 47 50  1  0  0  0  0
 47 51  1  0  0  0  0
 22 28  1  0  0  0  0
 22 29  1  0  0  0  0
 37 42  1  0  0  0  0
  8 13  1  0  0  0  0
 18 26  1  0  0  0  0
 21 27  1  0  0  0  0
 46 48  1  0  0  0  0
  7 12  1  0  0  0  0
 36 41  1  0  0  0  0
 17 25  1  0  0  0  0
M  END
$$$$

  -OEChem-05262214473D

 51 50  0     1  0  0  0  0  0999 V2000
    1.3524   -3.0009    1.4091 C   0  0  0  0  0  0  0  0  0  0  0  0
    1.8758   -1.9880    0.9598 O   0  0  0  0  0  0  0  0  0  0  0  0
    2.2030   -4.1782    1.7536 C   0  0  0  0  0  0  0  0  0  0  0  0
    2.3264   -4.8705    0.9053 H   0  0  0  0  0  0  0  0  0  0  0  0
    3.2257   -3.8876    2.0432 H   0  0  0  0  0  0  0  0  0  0  0  0
    1.8327   -4.8004    2.5839 H   0  0  0  0  0  0  0  0  0  0  0  0
    0.0005   -3.1873    1.6465 N   0  0  0  0  0  0  0  0  0  0  0  0
   -0.9949   -2.1807    1.3864 C   0  0  2  0  0  0  0  0  0  0  0  0
   -0.3083   -0.8216    1.4164 C   0  0  0  0  0  0  0  0  0  0  0  0
    0.7533   -0.6191    2.0022 O   0  0  0  0  0  0  0  0  0  0  0  0
   -2.1232   -2.2423    2.4042 C   0  0  0  0  0  0  0  0  0  0  0  0
   -0.3048   -4.0823    2.0245 H   0  0  0  0  0  0  0  0  0  0  0  0
   -1.3830   -2.3724    0.3801 H   0  0  0  0  0  0  0  0  0  0  0  0
   -1.7534   -2.0527    3.4185 H   0  0  0  0  0  0  0  0  0  0  0  0
   -2.8936   -1.4947    2.1882 H   0  0  0  0  0  0  0  0  0  0  0  0
   -2.5964   -3.2301    2.4022 H   0  0  0  0  0  0  0  0  0  0  0  0
   -1.0412    0.1517    0.7482 N   0  0  0  0  0  0  0  0  0  0  0  0
   -0.6079    1.5223    0.6467 C   0  0  2  0  0  0  0  0  0  0  0  0
   -1.8495    2.4096    0.5661 C   0  0  0  0  0  0  0  0  0  0  0  0
   -1.9626    3.4587    1.1969 O   0  0  0  0  0  0  0  0  0  0  0  0
    0.3687    1.7620   -0.5299 C   0  0  2  0  0  0  0  0  0  0  0  0
    1.6849    0.9696   -0.3678 C   0  0  0  0  0  0  0  0  0  0  0  0
    0.6300    3.2642   -0.7019 C   0  0  0  0  0  0  0  0  0  0  0  0
    2.5516    0.9696   -1.6205 C   0  0  0  0  0  0  0  0  0  0  0  0
   -1.9022   -0.1128    0.2753 H   0  0  0  0  0  0  0  0  0  0  0  0
   -0.1056    1.7491    1.5958 H   0  0  0  0  0  0  0  0  0  0  0  0
   -0.1187    1.4139   -1.4504 H   0  0  0  0  0  0  0  0  0  0  0  0
    2.2772    1.4038    0.4458 H   0  0  0  0  0  0  0  0  0  0  0  0
    1.4737   -0.0691   -0.0870 H   0  0  0  0  0  0  0  0  0  0  0  0
    1.1181    3.6787    0.1868 H   0  0  0  0  0  0  0  0  0  0  0  0
    1.2937    3.4563   -1.5505 H   0  0  0  0  0  0  0  0  0  0  0  0
   -0.3002    3.8173   -0.8680 H   0  0  0  0  0  0  0  0  0  0  0  0
    2.0204    0.5470   -2.4781 H   0  0  0  0  0  0  0  0  0  0  0  0
    3.4469    0.3610   -1.4560 H   0  0  0  0  0  0  0  0  0  0  0  0
    2.8747    1.9838   -1.8753 H   0  0  0  0  0  0  0  0  0  0  0  0
   -2.7957    1.9073   -0.3158 N   0  0  0  0  0  0  0  0  0  0  0  0
   -4.0523    2.5662   -0.5904 C   0  0  2  0  0  0  0  0  0  0  0  0
   -4.4978    2.1648   -1.9903 C   0  0  0  0  0  0  0  0  0  0  0  0
   -3.7201    1.7578   -2.8509 O   0  0  0  0  0  0  0  0  0  0  0  0
   -3.9221    4.0769   -0.4736 C   0  0  0  0  0  0  0  0  0  0  0  0
   -2.5952    1.0330   -0.7922 H   0  0  0  0  0  0  0  0  0  0  0  0
   -4.7732    2.1913    0.1444 H   0  0  0  0  0  0  0  0  0  0  0  0
   -3.2040    4.4708   -1.2021 H   0  0  0  0  0  0  0  0  0  0  0  0
   -4.8815    4.5729   -0.6538 H   0  0  0  0  0  0  0  0  0  0  0  0
   -3.5730    4.3619    0.5247 H   0  0  0  0  0  0  0  0  0  0  0  0
   -5.8595    2.3554   -2.1794 N   0  0  0  0  0  0  0  0  0  0  0  0
   -6.5220    2.0602   -3.4284 C   0  0  0  0  0  0  0  0  0  0  0  0
   -6.4311    2.6790   -1.4047 H   0  0  0  0  0  0  0  0  0  0  0  0
   -6.5501    2.9659   -4.0521 H   0  0  0  0  0  0  0  0  0  0  0  0
   -5.9715    1.2681   -3.9571 H   0  0  0  0  0  0  0  0  0  0  0  0
   -7.5490    1.7215   -3.2274 H   0  0  0  0  0  0  0  0  0  0  0  0
  1  3  1  0  0  0  0
  1  7  1  0  0  0  0
  1  2  2  0  0  0  0
 37 38  1  0  0  0  0
 38 46  1  0  0  0  0
 38 39  2  0  0  0  0
  8  9  1  0  0  0  0
  9 17  1  0  0  0  0
  9 10  2  0  0  0  0
 18 19  1  0  0  0  0
 19 36  1  0  0  0  0
 19 20  2  0  0  0  0
 22 24  1  0  0  0  0
 37 40  1  0  0  0  0
  8 11  1  0  0  0  0
 21 23  1  0  0  0  0
 46 47  1  0  0  0  0
 21 22  1  0  0  0  0
 36 37  1  0  0  0  0
  7  8  1  0  0  0  0
 18 21  1  0  0  0  0
 17 18  1  0  0  0  0
  3  4  1  0  0  0  0
  3  5  1  0  0  0  0
  3  6  1  0  0  0  0
 24 33  1  0  0  0  0
 24 34  1  0  0  0  0
 24 35  1  0  0  0  0
 40 43  1  0  0  0  0
 40 44  1  0  0  0  0
 40 45  1  0  0  0  0
 11 14  1  0  0  0  0
 11 15  1  0  0  0  0
 11 16  1  0  0  0  0
 23 30  1  0  0  0  0
 23 31  1  0  0  0  0
 23 32  1  0  0  0  0
 47 49  1  0  0  0  0
 47 50  1  0  0  0  0
 47 51  1  0  0  0  0
 22 28  1  0  0  0  0
 22 29  1  0  0  0  0
 37 42  1  0  0  0  0
  8 13  1  0  0  0  0
 18 26  1  0  0  0  0
 21 27  1  0  0  0  0
 46 48  1  0  0  0  0
  7 12  1  0  0  0  0
 36 41  1  0  0  0  0
 17 25  1  0  0  0  0
M  END
$$$$

  -OEChem-05262214473D

 51 50  0     1  0  0  0  0  0999 V2000
    1.3524   -3.0009    1.4091 C   0  0  0  0  0  0  0  0  0  0  0  0
    1.8758   -1.9880    0.9598 O   0  0  0  0  0  0  0  0  0  0  0  0
    2.2030   -4.1782    1.7536 C   0  0  0  0  0  0  0  0  0  0  0  0
    2.3264   -4.8705    0.9053 H   0  0  0  0  0  0  0  0  0  0  0  0
    3.2257   -3.8876    2.0432 H   0  0  0  0  0  0  0  0  0  0  0  0
    1.8327   -4.8004    2.5839 H   0  0  0  0  0  0  0  0  0  0  0  0
    0.0005   -3.1873    1.6465 N   0  0  0  0  0  0  0  0  0  0  0  0
   -0.9949   -2.1807    1.3864 C   0  0  2  0  0  0  0  0  0  0  0  0
   -0.3083   -0.8216    1.4164 C   0  0  0  0  0  0  0  0  0  0  0  0
    0.7533   -0.6191    2.0022 O   0  0  0  0  0  0  0  0  0  0  0  0
   -2.1232   -2.2423    2.4042 C   0  0  0  0  0  0  0  0  0  0  0  0
   -0.3048   -4.0823    2.0245 H   0  0  0  0  0  0  0  0  0  0  0  0
   -1.3830   -2.3724    0.3801 H   0  0  0  0  0  0  0  0  0  0  0  0
   -1.7534   -2.0527    3.4185 H   0  0  0  0  0  0  0  0  0  0  0  0
   -2.8936   -1.4947    2.1882 H   0  0  0  0  0  0  0  0  0  0  0  0
   -2.5964   -3.2301    2.4022 H   0  0  0  0  0  0  0  0  0  0  0  0
   -1.0412    0.1517    0.7482 N   0  0  0  0  0  0  0  0  0  0  0  0
   -0.6079    1.5223    0.6467 C   0  0  2  0  0  0  0  0  0  0  0  0
   -1.8495    2.4096    0.5661 C   0  0  0  0  0  0  0  0  0  0  0  0
   -1.8681    3.5704    0.9706 O   0  0  0  0  0  0  0  0  0  0  0  0
    0.3687    1.7620   -0.5299 C   0  0  2  0  0  0  0  0  0  0  0  0
    1.6849    0.9696   -0.3678 C   0  0  0  0  0  0  0  0  0  0  0  0
    0.6300    3.2642   -0.7019 C   0  0  0  0  0  0  0  0  0  0  0  0
    2.5516    0.9696   -1.6205 C   0  0  0  0  0  0  0  0  0  0  0  0
   -1.9022   -0.1128    0.2753 H   0  0  0  0  0  0  0  0  0  0  0  0
   -0.1056    1.7491    1.5958 H   0  0  0  0  0  0  0  0  0  0  0  0
   -0.1187    1.4139   -1.4504 H   0  0  0  0  0  0  0  0  0  0  0  0
    2.2772    1.4038    0.4458 H   0  0  0  0  0  0  0  0  0  0  0  0
    1.4737   -0.0691   -0.0870 H   0  0  0  0  0  0  0  0  0  0  0  0
    1.1181    3.6787    0.1868 H   0  0  0  0  0  0  0  0  0  0  0  0
    1.2937    3.4563   -1.5505 H   0  0  0  0  0  0  0  0  0  0  0  0
   -0.3002    3.8173   -0.8680 H   0  0  0  0  0  0  0  0  0  0  0  0
    2.0204    0.5470   -2.4781 H   0  0  0  0  0  0  0  0  0  0  0  0
    3.4469    0.3610   -1.4560 H   0  0  0  0  0  0  0  0  0  0  0  0
    2.8747    1.9838   -1.8753 H   0  0  0  0  0  0  0  0  0  0  0  0
   -2.9174    1.7622   -0.0389 N   0  0  0  0  0  0  0  0  0  0  0  0
   -4.2027    2.3862   -0.2564 C   0  0  2  0  0  0  0  0  0  0  0  0
   -4.8545    1.7142   -1.4576 C   0  0  0  0  0  0  0  0  0  0  0  0
   -4.2153    1.1132   -2.3187 O   0  0  0  0  0  0  0  0  0  0  0  0
   -4.0599    3.8833   -0.4822 C   0  0  0  0  0  0  0  0  0  0  0  0
   -2.7893    0.8020   -0.3442 H   0  0  0  0  0  0  0  0  0  0  0  0
   -4.8028    2.1949    0.6400 H   0  0  0  0  0  0  0  0  0  0  0  0
   -3.4616    4.0945   -1.3760 H   0  0  0  0  0  0  0  0  0  0  0  0
   -5.0367    4.3589   -0.6184 H   0  0  0  0  0  0  0  0  0  0  0  0
   -3.5641    4.3604    0.3700 H   0  0  0  0  0  0  0  0  0  0  0  0
   -6.2295    1.9014   -1.4780 N   0  0  0  0  0  0  0  0  0  0  0  0
   -7.0731    1.3712   -2.5235 C   0  0  0  0  0  0  0  0  0  0  0  0
   -6.6777    2.3968   -0.7128 H   0  0  0  0  0  0  0  0  0  0  0  0
   -7.1978    2.1268   -3.3132 H   0  0  0  0  0  0  0  0  0  0  0  0
   -6.6073    0.4700   -2.9487 H   0  0  0  0  0  0  0  0  0  0  0  0
   -8.0570    1.1128   -2.1049 H   0  0  0  0  0  0  0  0  0  0  0  0
  1  3  1  0  0  0  0
  1  7  1  0  0  0  0
  1  2  2  0  0  0  0
 37 38  1  0  0  0  0
 38 46  1  0  0  0  0
 38 39  2  0  0  0  0
  8  9  1  0  0  0  0
  9 17  1  0  0  0  0
  9 10  2  0  0  0  0
 18 19  1  0  0  0  0
 19 36  1  0  0  0  0
 19 20  2  0  0  0  0
 22 24  1  0  0  0  0
 37 40  1  0  0  0  0
  8 11  1  0  0  0  0
 21 23  1  0  0  0  0
 46 47  1  0  0  0  0
 21 22  1  0  0  0  0
 36 37  1  0  0  0  0
  7  8  1  0  0  0  0
 18 21  1  0  0  0  0
 17 18  1  0  0  0  0
  3  4  1  0  0  0  0
  3  5  1  0  0  0  0
  3  6  1  0  0  0  0
 24 33  1  0  0  0  0
 24 34  1  0  0  0  0
 24 35  1  0  0  0  0
 40 43  1  0  0  0  0
 40 44  1  0  0  0  0
 40 45  1  0  0  0  0
 11 14  1  0  0  0  0
 11 15  1  0  0  0  0
 11 16  1  0  0  0  0
 23 30  1  0  0  0  0
 23 31  1  0  0  0  0
 23 32  1  0  0  0  0
 47 49  1  0  0  0  0
 47 50  1  0  0  0  0
 47 51  1  0  0  0  0
 22 28  1  0  0  0  0
 22 29  1  0  0  0  0
 37 42  1  0  0  0  0
  8 13  1  0  0  0  0
 18 26  1  0  0  0  0
 21 27  1  0  0  0  0
 46 48  1  0  0  0  0
  7 12  1  0  0  0  0
 36 41  1  0  0  0  0
 17 25  1  0  0  0  0
M  END
$$$$

  -OEChem-05262214473D

 51 50  0     1  0  0  0  0  0999 V2000
    1.3524   -3.0009    1.4091 C   0  0  0  0  0  0  0  0  0  0  0  0
    1.8758   -1.9880    0.9598 O   0  0  0  0  0  0  0  0  0  0  0  0
    2.2030   -4.1782    1.7536 C   0  0  0  0  0  0  0  0  0  0  0  0
    2.3264   -4.8705    0.9053 H   0  0  0  0  0  0  0  0  0  0  0  0
    3.2257   -3.8876    2.0432 H   0  0  0  0  0  0  0  0  0  0  0  0
    1.8327   -4.8004    2.5839 H   0  0  0  0  0  0  0  0  0  0  0  0
    0.0005   -3.1873    1.6465 N   0  0  0  0  0  0  0  0  0  0  0  0
   -0.9949   -2.1807    1.3864 C   0  0  2  0  0  0  0  0  0  0  0  0
   -0.3083   -0.8216    1.4164 C   0  0  0  0  0  0  0  0  0  0  0  0
    0.7533   -0.6191    2.0022 O   0  0  0  0  0  0  0  0  0  0  0  0
   -2.1232   -2.2423    2.4042 C   0  0  0  0  0  0  0  0  0  0  0  0
   -0.3048   -4.0823    2.0245 H   0  0  0  0  0  0  0  0  0  0  0  0
   -1.3830   -2.3724    0.3801 H   0  0  0  0  0  0  0  0  0  0  0  0
   -1.7534   -2.0527    3.4185 H   0  0  0  0  0  0  0  0  0  0  0  0
   -2.8936   -1.4947    2.1882 H   0  0  0  0  0  0  0  0  0  0  0  0
   -2.5964   -3.2301    2.4022 H   0  0  0  0  0  0  0  0  0  0  0  0
   -1.0412    0.1517    0.7482 N   0  0  0  0  0  0  0  0  0  0  0  0
   -0.6079    1.5223    0.6467 C   0  0  2  0  0  0  0  0  0  0  0  0
   -1.8495    2.4096    0.5661 C   0  0  0  0  0  0  0  0  0  0  0  0
   -1.8093    3.6294    0.7143 O   0  0  0  0  0  0  0  0  0  0  0  0
    0.3687    1.7620   -0.5299 C   0  0  2  0  0  0  0  0  0  0  0  0
    1.6849    0.9696   -0.3678 C   0  0  0  0  0  0  0  0  0  0  0  0
    0.6300    3.2642   -0.7019 C   0  0  0  0  0  0  0  0  0  0  0  0
    2.5516    0.9696   -1.6205 C   0  0  0  0  0  0  0  0  0  0  0  0
   -1.9022   -0.1128    0.2753 H   0  0  0  0  0  0  0  0  0  0  0  0
   -0.1056    1.7491    1.5958 H   0  0  0  0  0  0  0  0  0  0  0  0
   -0.1187    1.4139   -1.4504 H   0  0  0  0  0  0  0  0  0  0  0  0
    2.2772    1.4038    0.4458 H   0  0  0  0  0  0  0  0  0  0  0  0
    1.4737   -0.0691   -0.0870 H   0  0  0  0  0  0  0  0  0  0  0  0
    1.1181    3.6787    0.1868 H   0  0  0  0  0  0  0  0  0  0  0  0
    1.2937    3.4563   -1.5505 H   0  0  0  0  0  0  0  0  0  0  0  0
   -0.3002    3.8173   -0.8680 H   0  0  0  0  0  0  0  0  0  0  0  0
    2.0204    0.5470   -2.4781 H   0  0  0  0  0  0  0  0  0  0  0  0
    3.4469    0.3610   -1.4560 H   0  0  0  0  0  0  0  0  0  0  0  0
    2.8747    1.9838   -1.8753 H   0  0  0  0  0  0  0  0  0  0  0  0
   -2.9952    1.6820    0.2774 N   0  0  0  0  0  0  0  0  0  0  0  0
   -4.3002    2.2846    0.1267 C   0  0  2  0  0  0  0  0  0  0  0  0
   -5.1250    1.3958   -0.7947 C   0  0  0  0  0  0  0  0  0  0  0  0
   -4.6225    0.6092   -1.5946 O   0  0  0  0  0  0  0  0  0  0  0  0
   -4.1969    3.6964   -0.4291 C   0  0  0  0  0  0  0  0  0  0  0  0
   -2.9127    0.6758    0.1663 H   0  0  0  0  0  0  0  0  0  0  0  0
   -4.7568    2.3030    1.1223 H   0  0  0  0  0  0  0  0  0  0  0  0
   -3.7417    3.6980   -1.4262 H   0  0  0  0  0  0  0  0  0  0  0  0
   -5.1843    4.1618   -0.5158 H   0  0  0  0  0  0  0  0  0  0  0  0
   -3.5787    4.3263    0.2196 H   0  0  0  0  0  0  0  0  0  0  0  0
   -6.4877    1.6154   -0.6493 N   0  0  0  0  0  0  0  0  0  0  0  0
   -7.4789    0.9035   -1.4218 C   0  0  0  0  0  0  0  0  0  0  0  0
   -6.8158    2.2730    0.0518 H   0  0  0  0  0  0  0  0  0  0  0  0
   -7.7238    1.4805   -2.3258 H   0  0  0  0  0  0  0  0  0  0  0  0
   -7.0808   -0.0802   -1.7114 H   0  0  0  0  0  0  0  0  0  0  0  0
   -8.3872    0.7677   -0.8164 H   0  0  0  0  0  0  0  0  0  0  0  0
  1  3  1  0  0  0  0
  1  7  1  0  0  0  0
  1  2  2  0  0  0  0
 37 38  1  0  0  0  0
 38 46  1  0  0  0  0
 38 39  2  0  0  0  0
  8  9  1  0  0  0  0
  9 17  1  0  0  0  0
  9 10  2  0  0  0  0
 18 19  1  0  0  0  0
 19 36  1  0  0  0  0
 19 20  2  0  0  0  0
 22 24  1  0  0  0  0
 37 40  1  0  0  0  0
  8 11  1  0  0  0  0
 21 23  1  0  0  0  0
 46 47  1  0  0  0  0
 21 22  1  0  0  0  0
 36 37  1  0  0  0  0
  7  8  1  0  0  0  0
 18 21  1  0  0  0  0
 17 18  1  0  0  0  0
  3  4  1  0  0  0  0
  3  5  1  0  0  0  0
  3  6  1  0  0  0  0
 24 33  1  0  0  0  0
 24 34  1  0  0  0  0
 24 35  1  0  0  0  0
 40 43  1  0  0  0  0
 40 44  1  0  0  0  0
 40 45  1  0  0  0  0
 11 14  1  0  0  0  0
 11 15  1  0  0  0  0
 11 16  1  0  0  0  0
 23 30  1  0  0  0  0
 23 31  1  0  0  0  0
 23 32  1  0  0  0  0
 47 49  1  0  0  0  0
 47 50  1  0  0  0  0
 47 51  1  0  0  0  0
 22 28  1  0  0  0  0
 22 29  1  0  0  0  0
 37 42  1  0  0  0  0
  8 13  1  0  0  0  0
 18 26  1  0  0  0  0
 21 27  1  0  0  0  0
 46 48  1  0  0  0  0
  7 12  1  0  0  0  0
 36 41  1  0  0  0  0
 17 25  1  0  0  0  0
M  END
$$$$

  -OEChem-05262214473D

 51 50  0     1  0  0  0  0  0999 V2000
    1.3524   -3.0009    1.4091 C   0  0  0  0  0  0  0  0  0  0  0  0
    1.8758   -1.9880    0.9598 O   0  0  0  0  0  0  0  0  0  0  0  0
    2.2030   -4.1782    1.7536 C   0  0  0  0  0  0  0  0  0  0  0  0
    2.3264   -4.8705    0.9053 H   0  0  0  0  0  0  0  0  0  0  0  0
    3.2257   -3.8876    2.0432 H   0  0  0  0  0  0  0  0  0  0  0  0
    1.8327   -4.8004    2.5839 H   0  0  0  0  0  0  0  0  0  0  0  0
    0.0005   -3.1873    1.6465 N   0  0  0  0  0  0  0  0  0  0  0  0
   -0.9949   -2.1807    1.3864 C   0  0  2  0  0  0  0  0  0  0  0  0
   -0.3083   -0.8216    1.4164 C   0  0  0  0  0  0  0  0  0  0  0  0
    0.7533   -0.6191    2.0022 O   0  0  0  0  0  0  0  0  0  0  0  0
   -2.1232   -2.2423    2.4042 C   0  0  0  0  0  0  0  0  0  0  0  0
   -0.3048   -4.0823    2.0245 H   0  0  0  0  0  0  0  0  0  0  0  0
   -1.3830   -2.3724    0.3801 H   0  0  0  0  0  0  0  0  0  0  0  0
   -1.7534   -2.0527    3.4185 H   0  0  0  0  0  0  0  0  0  0  0  0
   -2.8936   -1.4947    2.1882 H   0  0  0  0  0  0  0  0  0  0  0  0
   -2.5964   -3.2301    2.4022 H   0  0  0  0  0  0  0  0  0  0  0  0
   -1.0412    0.1517    0.7482 N   0  0  0  0  0  0  0  0  0  0  0  0
   -0.6079    1.5223    0.6467 C   0  0  2  0  0  0  0  0  0  0  0  0
   -1.8495    2.4096    0.5661 C   0  0  0  0  0  0  0  0  0  0  0  0
   -1.7902    3.6316    0.4455 O   0  0  0  0  0  0  0  0  0  0  0  0
    0.3687    1.7620   -0.5299 C   0  0  2  0  0  0  0  0  0  0  0  0
    1.6849    0.9696   -0.3678 C   0  0  0  0  0  0  0  0  0  0  0  0
    0.6300    3.2642   -0.7019 C   0  0  0  0  0  0  0  0  0  0  0  0
    2.5516    0.9696   -1.6205 C   0  0  0  0  0  0  0  0  0  0  0  0
   -1.9022   -0.1128    0.2753 H   0  0  0  0  0  0  0  0  0  0  0  0
   -0.1056    1.7491    1.5958 H   0  0  0  0  0  0  0  0  0  0  0  0
   -0.1187    1.4139   -1.4504 H   0  0  0  0  0  0  0  0  0  0  0  0
    2.2772    1.4038    0.4458 H   0  0  0  0  0  0  0  0  0  0  0  0
    1.4737   -0.0691   -0.0870 H   0  0  0  0  0  0  0  0  0  0  0  0
    1.1181    3.6787    0.1868 H   0  0  0  0  0  0  0  0  0  0  0  0
    1.2937    3.4563   -1.5505 H   0  0  0  0  0  0  0  0  0  0  0  0
   -0.3002    3.8173   -0.8680 H   0  0  0  0  0  0  0  0  0  0  0  0
    2.0204    0.5470   -2.4781 H   0  0  0  0  0  0  0  0  0  0  0  0
    3.4469    0.3610   -1.4560 H   0  0  0  0  0  0  0  0  0  0  0  0
    2.8747    1.9838   -1.8753 H   0  0  0  0  0  0  0  0  0  0  0  0
   -3.0240    1.6721    0.6114 N   0  0  0  0  0  0  0  0  0  0  0  0
   -4.3381    2.2683    0.5328 C   0  0  2  0  0  0  0  0  0  0  0  0
   -5.2911    1.2313   -0.0468 C   0  0  0  0  0  0  0  0  0  0  0  0
   -4.9139    0.2802   -0.7281 O   0  0  0  0  0  0  0  0  0  0  0  0
   -4.3238    3.5289   -0.3179 C   0  0  0  0  0  0  0  0  0  0  0  0
   -2.9568    0.6629    0.7045 H   0  0  0  0  0  0  0  0  0  0  0  0
   -4.6385    2.5083    1.5586 H   0  0  0  0  0  0  0  0  0  0  0  0
   -4.0252    3.3083   -1.3492 H   0  0  0  0  0  0  0  0  0  0  0  0
   -5.3140    3.9950   -0.3530 H   0  0  0  0  0  0  0  0  0  0  0  0
   -3.6159    4.2619    0.0836 H   0  0  0  0  0  0  0  0  0  0  0  0
   -6.6165    1.5169    0.2500 N   0  0  0  0  0  0  0  0  0  0  0  0
   -7.7117    0.6890   -0.1982 C   0  0  0  0  0  0  0  0  0  0  0  0
   -6.8360    2.3162    0.8372 H   0  0  0  0  0  0  0  0  0  0  0  0
   -8.0923    1.0710   -1.1570 H   0  0  0  0  0  0  0  0  0  0  0  0
   -7.3598   -0.3449   -0.3294 H   0  0  0  0  0  0  0  0  0  0  0  0
   -8.5173    0.7099    0.5505 H   0  0  0  0  0  0  0  0  0  0  0  0
  1  3  1  0  0  0  0
  1  7  1  0  0  0  0
  1  2  2  0  0  0  0
 37 38  1  0  0  0  0
 38 46  1  0  0  0  0
 38 39  2  0  0  0  0
  8  9  1  0  0  0  0
  9 17  1  0  0  0  0
  9 10  2  0  0  0  0
 18 19  1  0  0  0  0
 19 36  1  0  0  0  0
 19 20  2  0  0  0  0
 22 24  1  0  0  0  0
 37 40  1  0  0  0  0
  8 11  1  0  0  0  0
 21 23  1  0  0  0  0
 46 47  1  0  0  0  0
 21 22  1  0  0  0  0
 36 37  1  0  0  0  0
  7  8  1  0  0  0  0
 18 21  1  0  0  0  0
 17 18  1  0  0  0  0
  3  4  1  0  0  0  0
  3  5  1  0  0  0  0
  3  6  1  0  0  0  0
 24 33  1  0  0  0  0
 24 34  1  0  0  0  0
 24 35  1  0  0  0  0
 40 43  1  0  0  0  0
 40 44  1  0  0  0  0
 40 45  1  0  0  0  0
 11 14  1  0  0  0  0
 11 15  1  0  0  0  0
 11 16  1  0  0  0  0
 23 30  1  0  0  0  0
 23 31  1  0  0  0  0
 23 32  1  0  0  0  0
 47 49  1  0  0  0  0
 47 50  1  0  0  0  0
 47 51  1  0  0  0  0
 22 28  1  0  0  0  0
 22 29  1  0  0  0  0
 37 42  1  0  0  0  0
  8 13  1  0  0  0  0
 18 26  1  0  0  0  0
 21 27  1  0  0  0  0
 46 48  1  0  0  0  0
  7 12  1  0  0  0  0
 36 41  1  0  0  0  0
 17 25  1  0  0  0  0
M  END
$$$$

  -OEChem-05262214473D

 51 50  0     1  0  0  0  0  0999 V2000
    1.3524   -3.0009    1.4091 C   0  0  0  0  0  0  0  0  0  0  0  0
    1.8758   -1.9880    0.9598 O   0  0  0  0  0  0  0  0  0  0  0  0
    2.2030   -4.1782    1.7536 C   0  0  0  0  0  0  0  0  0  0  0  0
    2.3264   -4.8705    0.9053 H   0  0  0  0  0  0  0  0  0  0  0  0
    3.2257   -3.8876    2.0432 H   0  0  0  0  0  0  0  0  0  0  0  0
    1.8327   -4.8004    2.5839 H   0  0  0  0  0  0  0  0  0  0  0  0
    0.0005   -3.1873    1.6465 N   0  0  0  0  0  0  0  0  0  0  0  0
   -0.9949   -2.1807    1.3864 C   0  0  2  0  0  0  0  0  0  0  0  0
   -0.3083   -0.8216    1.4164 C   0  0  0  0  0  0  0  0  0  0  0  0
    0.7533   -0.6191    2.0022 O   0  0  0  0  0  0  0  0  0  0  0  0
   -2.1232   -2.2423    2.4042 C   0  0  0  0  0  0  0  0  0  0  0  0
   -0.3048   -4.0823    2.0245 H   0  0  0  0  0  0  0  0  0  0  0  0
   -1.3830   -2.3724    0.3801 H   0  0  0  0  0  0  0  0  0  0  0  0
   -1.7534   -2.0527    3.4185 H   0  0  0  0  0  0  0  0  0  0  0  0
   -2.8936   -1.4947    2.1882 H   0  0  0  0  0  0  0  0  0  0  0  0
   -2.5964   -3.2301    2.4022 H   0  0  0  0  0  0  0  0  0  0  0  0
   -1.0412    0.1517    0.7482 N   0  0  0  0  0  0  0  0  0  0  0  0
   -0.6079    1.5223    0.6467 C   0  0  2  0  0  0  0  0  0  0  0  0
   -1.8495    2.4096    0.5661 C   0  0  0  0  0  0  0  0  0  0  0  0
   -1.8122    3.5770    0.1825 O   0  0  0  0  0  0  0  0  0  0  0  0
    0.3687    1.7620   -0.5299 C   0  0  2  0  0  0  0  0  0  0  0  0
    1.6849    0.9696   -0.3678 C   0  0  0  0  0  0  0  0  0  0  0  0
    0.6300    3.2642   -0.7019 C   0  0  0  0  0  0  0  0  0  0  0  0
    2.5516    0.9696   -1.6205 C   0  0  0  0  0  0  0  0  0  0  0  0
   -1.9022   -0.1128    0.2753 H   0  0  0  0  0  0  0  0  0  0  0  0
   -0.1056    1.7491    1.5958 H   0  0  0  0  0  0  0  0  0  0  0  0
   -0.1187    1.4139   -1.4504 H   0  0  0  0  0  0  0  0  0  0  0  0
    2.2772    1.4038    0.4458 H   0  0  0  0  0  0  0  0  0  0  0  0
    1.4737   -0.0691   -0.0870 H   0  0  0  0  0  0  0  0  0  0  0  0
    1.1181    3.6787    0.1868 H   0  0  0  0  0  0  0  0  0  0  0  0
    1.2937    3.4563   -1.5505 H   0  0  0  0  0  0  0  0  0  0  0  0
   -0.3002    3.8173   -0.8680 H   0  0  0  0  0  0  0  0  0  0  0  0
    2.0204    0.5470   -2.4781 H   0  0  0  0  0  0  0  0  0  0  0  0
    3.4469    0.3610   -1.4560 H   0  0  0  0  0  0  0  0  0  0  0  0
    2.8747    1.9838   -1.8753 H   0  0  0  0  0  0  0  0  0  0  0  0
   -3.0018    1.7332    0.9405 N   0  0  0  0  0  0  0  0  0  0  0  0
   -4.3140    2.3385    0.9341 C   0  0  2  0  0  0  0  0  0  0  0  0
   -5.3414    1.2320    0.7352 C   0  0  0  0  0  0  0  0  0  0  0  0
   -5.0696    0.1486    0.2219 O   0  0  0  0  0  0  0  0  0  0  0  0
   -4.4320    3.3922   -0.1561 C   0  0  0  0  0  0  0  0  0  0  0  0
   -2.9188    0.7643    1.2337 H   0  0  0  0  0  0  0  0  0  0  0  0
   -4.4559    2.7966    1.9190 H   0  0  0  0  0  0  0  0  0  0  0  0
   -4.2928    2.9519   -1.1503 H   0  0  0  0  0  0  0  0  0  0  0  0
   -5.4172    3.8699   -0.1413 H   0  0  0  0  0  0  0  0  0  0  0  0
   -3.6731    4.1717   -0.0286 H   0  0  0  0  0  0  0  0  0  0  0  0
   -6.6071    1.6127    1.1588 N   0  0  0  0  0  0  0  0  0  0  0  0
   -7.7556    0.7422    1.0637 C   0  0  0  0  0  0  0  0  0  0  0  0
   -6.7369    2.5233    1.5898 H   0  0  0  0  0  0  0  0  0  0  0  0
   -8.2782    0.9263    0.1135 H   0  0  0  0  0  0  0  0  0  0  0  0
   -7.4252   -0.3063    1.1032 H   0  0  0  0  0  0  0  0  0  0  0  0
   -8.4384    0.9433    1.9024 H   0  0  0  0  0  0  0  0  0  0  0  0
  1  3  1  0  0  0  0
  1  7  1  0  0  0  0
  1  2  2  0  0  0  0
 37 38  1  0  0  0  0
 38 46  1  0  0  0  0
 38 39  2  0  0  0  0
  8  9  1  0  0  0  0
  9 17  1  0  0  0  0
  9 10  2  0  0  0  0
 18 19  1  0  0  0  0
 19 36  1  0  0  0  0
 19 20  2  0  0  0  0
 22 24  1  0  0  0  0
 37 40  1  0  0  0  0
  8 11  1  0  0  0  0
 21 23  1  0  0  0  0
 46 47  1  0  0  0  0
 21 22  1  0  0  0  0
 36 37  1  0  0  0  0
  7  8  1  0  0  0  0
 18 21  1  0  0  0  0
 17 18  1  0  0  0  0
  3  4  1  0  0  0  0
  3  5  1  0  0  0  0
  3  6  1  0  0  0  0
 24 33  1  0  0  0  0
 24 34  1  0  0  0  0
 24 35  1  0  0  0  0
 40 43  1  0  0  0  0
 40 44  1  0  0  0  0
 40 45  1  0  0  0  0
 11 14  1  0  0  0  0
 11 15  1  0  0  0  0
 11 16  1  0  0  0  0
 23 30  1  0  0  0  0
 23 31  1  0  0  0  0
 23 32  1  0  0  0  0
 47 49  1  0  0  0  0
 47 50  1  0  0  0  0
 47 51  1  0  0  0  0
 22 28  1  0  0  0  0
 22 29  1  0  0  0  0
 37 42  1  0  0  0  0
  8 13  1  0  0  0  0
 18 26  1  0  0  0  0
 21 27  1  0  0  0  0
 46 48  1  0  0  0  0
  7 12  1  0  0  0  0
 36 41  1  0  0  0  0
 17 25  1  0  0  0  0
M  END
$$$$

  -OEChem-05262214473D

 51 50  0     1  0  0  0  0  0999 V2000
    1.3524   -3.0009    1.4091 C   0  0  0  0  0  0  0  0  0  0  0  0
    1.8758   -1.9880    0.9598 O   0  0  0  0  0  0  0  0  0  0  0  0
    2.2030   -4.1782    1.7536 C   0  0  0  0  0  0  0  0  0  0  0  0
    2.3264   -4.8705    0.9053 H   0  0  0  0  0  0  0  0  0  0  0  0
    3.2257   -3.8876    2.0432 H   0  0  0  0  0  0  0  0  0  0  0  0
    1.8327   -4.8004    2.5839 H   0  0  0  0  0  0  0  0  0  0  0  0
    0.0005   -3.1873    1.6465 N   0  0  0  0  0  0  0  0  0  0  0  0
   -0.9949   -2.1807    1.3864 C   0  0  2  0  0  0  0  0  0  0  0  0
   -0.3083   -0.8216    1.4164 C   0  0  0  0  0  0  0  0  0  0  0  0
    0.7533   -0.6191    2.0022 O   0  0  0  0  0  0  0  0  0  0  0  0
   -2.1232   -2.2423    2.4042 C   0  0  0  0  0  0  0  0  0  0  0  0
   -0.3048   -4.0823    2.0245 H   0  0  0  0  0  0  0  0  0  0  0  0
   -1.3830   -2.3724    0.3801 H   0  0  0  0  0  0  0  0  0  0  0  0
   -1.7534   -2.0527    3.4185 H   0  0  0  0  0  0  0  0  0  0  0  0
   -2.8936   -1.4947    2.1882 H   0  0  0  0  0  0  0  0  0  0  0  0
   -2.5964   -3.2301    2.4022 H   0  0  0  0  0  0  0  0  0  0  0  0
   -1.0412    0.1517    0.7482 N   0  0  0  0  0  0  0  0  0  0  0  0
   -0.6079    1.5223    0.6467 C   0  0  2  0  0  0  0  0  0  0  0  0
   -1.8495    2.4096    0.5661 C   0  0  0  0  0  0  0  0  0  0  0  0
   -1.8736    3.4693   -0.0567 O   0  0  0  0  0  0  0  0  0  0  0  0
    0.3687    1.7620   -0.5299 C   0  0  2  0  0  0  0  0  0  0  0  0
    1.6849    0.9696   -0.3678 C   0  0  0  0  0  0  0  0  0  0  0  0
    0.6300    3.2642   -0.7019 C   0  0  0  0  0  0  0  0  0  0  0  0
    2.5516    0.9696   -1.6205 C   0  0  0  0  0  0  0  0  0  0  0  0
   -1.9022   -0.1128    0.2753 H   0  0  0  0  0  0  0  0  0  0  0  0
   -0.1056    1.7491    1.5958 H   0  0  0  0  0  0  0  0  0  0  0  0
   -0.1187    1.4139   -1.4504 H   0  0  0  0  0  0  0  0  0  0  0  0
    2.2772    1.4038    0.4458 H   0  0  0  0  0  0  0  0  0  0  0  0
    1.4737   -0.0691   -0.0870 H   0  0  0  0  0  0  0  0  0  0  0  0
    1.1181    3.6787    0.1868 H   0  0  0  0  0  0  0  0  0  0  0  0
    1.2937    3.4563   -1.5505 H   0  0  0  0  0  0  0  0  0  0  0  0
   -0.3002    3.8173   -0.8680 H   0  0  0  0  0  0  0  0  0  0  0  0
    2.0204    0.5470   -2.4781 H   0  0  0  0  0  0  0  0  0  0  0  0
    3.4469    0.3610   -1.4560 H   0  0  0  0  0  0  0  0  0  0  0  0
    2.8747    1.9838   -1.8753 H   0  0  0  0  0  0  0  0  0  0  0  0
   -2.9300    1.8611    1.2422 N   0  0  0  0  0  0  0  0  0  0  0  0
   -4.2295    2.4904    1.3034 C   0  0  2  0  0  0  0  0  0  0  0  0
   -5.2725    1.3978    1.4979 C   0  0  0  0  0  0  0  0  0  0  0  0
   -5.0791    0.2234    1.1906 O   0  0  0  0  0  0  0  0  0  0  0  0
   -4.5141    3.2957    0.0451 C   0  0  0  0  0  0  0  0  0  0  0  0
   -2.8011    0.9729    1.7179 H   0  0  0  0  0  0  0  0  0  0  0  0
   -4.2213    3.1484    2.1791 H   0  0  0  0  0  0  0  0  0  0  0  0
   -4.5262    2.6532   -0.8430 H   0  0  0  0  0  0  0  0  0  0  0  0
   -5.4867    3.7950    0.1051 H   0  0  0  0  0  0  0  0  0  0  0  0
   -3.7465    4.0616   -0.1094 H   0  0  0  0  0  0  0  0  0  0  0  0
   -6.4601    1.8961    2.0151 N   0  0  0  0  0  0  0  0  0  0  0  0
   -7.6077    1.0596    2.2781 C   0  0  0  0  0  0  0  0  0  0  0  0
   -6.5252    2.8802    2.2583 H   0  0  0  0  0  0  0  0  0  0  0  0
   -8.2689    1.0562    1.3990 H   0  0  0  0  0  0  0  0  0  0  0  0
   -7.2726    0.0332    2.4886 H   0  0  0  0  0  0  0  0  0  0  0  0
   -8.1557    1.4519    3.1474 H   0  0  0  0  0  0  0  0  0  0  0  0
  1  3  1  0  0  0  0
  1  7  1  0  0  0  0
  1  2  2  0  0  0  0
 37 38  1  0  0  0  0
 38 46  1  0  0  0  0
 38 39  2  0  0  0  0
  8  9  1  0  0  0  0
  9 17  1  0  0  0  0
  9 10  2  0  0  0  0
 18 19  1  0  0  0  0
 19 36  1  0  0  0  0
 19 20  2  0  0  0  0
 22 24  1  0  0  0  0
 37 40  1  0  0  0  0
  8 11  1  0  0  0  0
 21 23  1  0  0  0  0
 46 47  1  0  0  0  0
 21 22  1  0  0  0  0
 36 37  1  0  0  0  0
  7  8  1  0  0  0  0
 18 21  1  0  0  0  0
 17 18  1  0  0  0  0
  3  4  1  0  0  0  0
  3  5  1  0  0  0  0
  3  6  1  0  0  0  0
 24 33  1  0  0  0  0
 24 34  1  0  0  0  0
 24 35  1  0  0  0  0
 40 43  1  0  0  0  0
 40 44  1  0  0  0  0
 40 45  1  0  0  0  0
 11 14  1  0  0  0  0
 11 15  1  0  0  0  0
 11 16  1  0  0  0  0
 23 30  1  0  0  0  0
 23 31  1  0  0  0  0
 23 32  1  0  0  0  0
 47 49  1  0  0  0  0
 47 50  1  0  0  0  0
 47 51  1  0  0  0  0
 22 28  1  0  0  0  0
 22 29  1  0  0  0  0
 37 42  1  0  0  0  0
  8 13  1  0  0  0  0
 18 26  1  0  0  0  0
 21 27  1  0  0  0  0
 46 48  1  0  0  0  0
  7 12  1  0  0  0  0
 36 41  1  0  0  0  0
 17 25  1  0  0  0  0
M  END
$$$$

  -OEChem-05262214473D

 51 50  0     1  0  0  0  0  0999 V2000
    1.3524   -3.0009    1.4091 C   0  0  0  0  0  0  0  0  0  0  0  0
    1.8758   -1.9880    0.9598 O   0  0  0  0  0  0  0  0  0  0  0  0
    2.2030   -4.1782    1.7536 C   0  0  0  0  0  0  0  0  0  0  0  0
    2.3264   -4.8705    0.9053 H   0  0  0  0  0  0  0  0  0  0  0  0
    3.2257   -3.8876    2.0432 H   0  0  0  0  0  0  0  0  0  0  0  0
    1.8327   -4.8004    2.5839 H   0  0  0  0  0  0  0  0  0  0  0  0
    0.0005   -3.1873    1.6465 N   0  0  0  0  0  0  0  0  0  0  0  0
   -0.9949   -2.1807    1.3864 C   0  0  2  0  0  0  0  0  0  0  0  0
   -0.3083   -0.8216    1.4164 C   0  0  0  0  0  0  0  0  0  0  0  0
    0.7533   -0.6191    2.0022 O   0  0  0  0  0  0  0  0  0  0  0  0
   -2.1232   -2.2423    2.4042 C   0  0  0  0  0  0  0  0  0  0  0  0
   -0.3048   -4.0823    2.0245 H   0  0  0  0  0  0  0  0  0  0  0  0
   -1.3830   -2.3724    0.3801 H   0  0  0  0  0  0  0  0  0  0  0  0
   -1.7534   -2.0527    3.4185 H   0  0  0  0  0  0  0  0  0  0  0  0
   -2.8936   -1.4947    2.1882 H   0  0  0  0  0  0  0  0  0  0  0  0
   -2.5964   -3.2301    2.4022 H   0  0  0  0  0  0  0  0  0  0  0  0
   -1.0412    0.1517    0.7482 N   0  0  0  0  0  0  0  0  0  0  0  0
   -0.6079    1.5223    0.6467 C   0  0  2  0  0  0  0  0  0  0  0  0
   -1.8495    2.4096    0.5661 C   0  0  0  0  0  0  0  0  0  0  0  0
   -1.9704    3.3158   -0.2559 O   0  0  0  0  0  0  0  0  0  0  0  0
    0.3687    1.7620   -0.5299 C   0  0  2  0  0  0  0  0  0  0  0  0
    1.6849    0.9696   -0.3678 C   0  0  0  0  0  0  0  0  0  0  0  0
    0.6300    3.2642   -0.7019 C   0  0  0  0  0  0  0  0  0  0  0  0
    2.5516    0.9696   -1.6205 C   0  0  0  0  0  0  0  0  0  0  0  0
   -1.9022   -0.1128    0.2753 H   0  0  0  0  0  0  0  0  0  0  0  0
   -0.1056    1.7491    1.5958 H   0  0  0  0  0  0  0  0  0  0  0  0
   -0.1187    1.4139   -1.4504 H   0  0  0  0  0  0  0  0  0  0  0  0
    2.2772    1.4038    0.4458 H   0  0  0  0  0  0  0  0  0  0  0  0
    1.4737   -0.0691   -0.0870 H   0  0  0  0  0  0  0  0  0  0  0  0
    1.1181    3.6787    0.1868 H   0  0  0  0  0  0  0  0  0  0  0  0
    1.2937    3.4563   -1.5505 H   0  0  0  0  0  0  0  0  0  0  0  0
   -0.3002    3.8173   -0.8680 H   0  0  0  0  0  0  0  0  0  0  0  0
    2.0204    0.5470   -2.4781 H   0  0  0  0  0  0  0  0  0  0  0  0
    3.4469    0.3610   -1.4560 H   0  0  0  0  0  0  0  0  0  0  0  0
    2.8747    1.9838   -1.8753 H   0  0  0  0  0  0  0  0  0  0  0  0
   -2.8135    2.0470    1.4959 N   0  0  0  0  0  0  0  0  0  0  0  0
   -4.0903    2.7136    1.6154 C   0  0  2  0  0  0  0  0  0  0  0  0
   -5.0890    1.7174    2.1895 C   0  0  0  0  0  0  0  0  0  0  0  0
   -4.9416    0.4995    2.1120 O   0  0  0  0  0  0  0  0  0  0  0  0
   -4.5644    3.2458    0.2720 C   0  0  0  0  0  0  0  0  0  0  0  0
   -2.6119    1.2747    2.1240 H   0  0  0  0  0  0  0  0  0  0  0  0
   -3.9509    3.5398    2.3211 H   0  0  0  0  0  0  0  0  0  0  0  0
   -4.7096    2.4325   -0.4482 H   0  0  0  0  0  0  0  0  0  0  0  0
   -5.5179    3.7754    0.3692 H   0  0  0  0  0  0  0  0  0  0  0  0
   -3.8310    3.9394   -0.1533 H   0  0  0  0  0  0  0  0  0  0  0  0
   -6.1856    2.3480    2.7604 N   0  0  0  0  0  0  0  0  0  0  0  0
   -7.2780    1.6195    3.3621 C   0  0  0  0  0  0  0  0  0  0  0  0
   -6.2155    3.3626    2.7971 H   0  0  0  0  0  0  0  0  0  0  0  0
   -8.0649    1.4519    2.6119 H   0  0  0  0  0  0  0  0  0  0  0  0
   -6.9123    0.6504    3.7325 H   0  0  0  0  0  0  0  0  0  0  0  0
   -7.6887    2.2011    4.2005 H   0  0  0  0  0  0  0  0  0  0  0  0
  1  3  1  0  0  0  0
  1  7  1  0  0  0  0
  1  2  2  0  0  0  0
 37 38  1  0  0  0  0
 38 46  1  0  0  0  0
 38 39  2  0  0  0  0
  8  9  1  0  0  0  0
  9 17  1  0  0  0  0
  9 10  2  0  0  0  0
 18 19  1  0  0  0  0
 19 36  1  0  0  0  0
 19 20  2  0  0  0  0
 22 24  1  0  0  0  0
 37 40  1  0  0  0  0
  8 11  1  0  0  0  0
 21 23  1  0  0  0  0
 46 47  1  0  0  0  0
 21 22  1  0  0  0  0
 36 37  1  0  0  0  0
  7  8  1  0  0  0  0
 18 21  1  0  0  0  0
 17 18  1  0  0  0  0
  3  4  1  0  0  0  0
  3  5  1  0  0  0  0
  3  6  1  0  0  0  0
 24 33  1  0  0  0  0
 24 34  1  0  0  0  0
 24 35  1  0  0  0  0
 40 43  1  0  0  0  0
 40 44  1  0  0  0  0
 40 45  1  0  0  0  0
 11 14  1  0  0  0  0
 11 15  1  0  0  0  0
 11 16  1  0  0  0  0
 23 30  1  0  0  0  0
 23 31  1  0  0  0  0
 23 32  1  0  0  0  0
 47 49  1  0  0  0  0
 47 50  1  0  0  0  0
 47 51  1  0  0  0  0
 22 28  1  0  0  0  0
 22 29  1  0  0  0  0
 37 42  1  0  0  0  0
  8 13  1  0  0  0  0
 18 26  1  0  0  0  0
 21 27  1  0  0  0  0
 46 48  1  0  0  0  0
  7 12  1  0  0  0  0
 36 41  1  0  0  0  0
 17 25  1  0  0  0  0
M  END
$$$$

  -OEChem-05262214473D

 51 50  0     1  0  0  0  0  0999 V2000
    1.3524   -3.0009    1.4091 C   0  0  0  0  0  0  0  0  0  0  0  0
    1.8758   -1.9880    0.9598 O   0  0  0  0  0  0  0  0  0  0  0  0
    2.2030   -4.1782    1.7536 C   0  0  0  0  0  0  0  0  0  0  0  0
    2.3264   -4.8705    0.9053 H   0  0  0  0  0  0  0  0  0  0  0  0
    3.2257   -3.8876    2.0432 H   0  0  0  0  0  0  0  0  0  0  0  0
    1.8327   -4.8004    2.5839 H   0  0  0  0  0  0  0  0  0  0  0  0
    0.0005   -3.1873    1.6465 N   0  0  0  0  0  0  0  0  0  0  0  0
   -0.9949   -2.1807    1.3864 C   0  0  2  0  0  0  0  0  0  0  0  0
   -0.3083   -0.8216    1.4164 C   0  0  0  0  0  0  0  0  0  0  0  0
    0.7533   -0.6191    2.0022 O   0  0  0  0  0  0  0  0  0  0  0  0
   -2.1232   -2.2423    2.4042 C   0  0  0  0  0  0  0  0  0  0  0  0
   -0.3048   -4.0823    2.0245 H   0  0  0  0  0  0  0  0  0  0  0  0
   -1.3830   -2.3724    0.3801 H   0  0  0  0  0  0  0  0  0  0  0  0
   -1.7534   -2.0527    3.4185 H   0  0  0  0  0  0  0  0  0  0  0  0
   -2.8936   -1.4947    2.1882 H   0  0  0  0  0  0  0  0  0  0  0  0
   -2.5964   -3.2301    2.4022 H   0  0  0  0  0  0  0  0  0  0  0  0
   -1.0412    0.1517    0.7482 N   0  0  0  0  0  0  0  0  0  0  0  0
   -0.6079    1.5223    0.6467 C   0  0  2  0  0  0  0  0  0  0  0  0
   -1.8495    2.4096    0.5661 C   0  0  0  0  0  0  0  0  0  0  0  0
   -2.0959    3.1269   -0.4015 O   0  0  0  0  0  0  0  0  0  0  0  0
    0.3687    1.7620   -0.5299 C   0  0  2  0  0  0  0  0  0  0  0  0
    1.6849    0.9696   -0.3678 C   0  0  0  0  0  0  0  0  0  0  0  0
    0.6300    3.2642   -0.7019 C   0  0  0  0  0  0  0  0  0  0  0  0
    2.5516    0.9696   -1.6205 C   0  0  0  0  0  0  0  0  0  0  0  0
   -1.9022   -0.1128    0.2753 H   0  0  0  0  0  0  0  0  0  0  0  0
   -0.1056    1.7491    1.5958 H   0  0  0  0  0  0  0  0  0  0  0  0
   -0.1187    1.4139   -1.4504 H   0  0  0  0  0  0  0  0  0  0  0  0
    2.2772    1.4038    0.4458 H   0  0  0  0  0  0  0  0  0  0  0  0
    1.4737   -0.0691   -0.0870 H   0  0  0  0  0  0  0  0  0  0  0  0
    1.1181    3.6787    0.1868 H   0  0  0  0  0  0  0  0  0  0  0  0
    1.2937    3.4563   -1.5505 H   0  0  0  0  0  0  0  0  0  0  0  0
   -0.3002    3.8173   -0.8680 H   0  0  0  0  0  0  0  0  0  0  0  0
    2.0204    0.5470   -2.4781 H   0  0  0  0  0  0  0  0  0  0  0  0
    3.4469    0.3610   -1.4560 H   0  0  0  0  0  0  0  0  0  0  0  0
    2.8747    1.9838   -1.8753 H   0  0  0  0  0  0  0  0  0  0  0  0
   -2.6604    2.2784    1.6844 N   0  0  0  0  0  0  0  0  0  0  0  0
   -3.9058    2.9929    1.8489 C   0  0  2  0  0  0  0  0  0  0  0  0
   -4.8035    2.1690    2.7627 C   0  0  0  0  0  0  0  0  0  0  0  0
   -4.6666    0.9580    2.9232 O   0  0  0  0  0  0  0  0  0  0  0  0
   -4.5796    3.2461    0.5093 C   0  0  0  0  0  0  0  0  0  0  0  0
   -2.3639    1.6489    2.4243 H   0  0  0  0  0  0  0  0  0  0  0  0
   -3.6630    3.9439    2.3354 H   0  0  0  0  0  0  0  0  0  0  0  0
   -4.8304    2.3047    0.0070 H   0  0  0  0  0  0  0  0  0  0  0  0
   -5.5086    3.8124    0.6332 H   0  0  0  0  0  0  0  0  0  0  0  0
   -3.9209    3.8132   -0.1572 H   0  0  0  0  0  0  0  0  0  0  0  0
   -5.8023    2.9374    3.3442 N   0  0  0  0  0  0  0  0  0  0  0  0
   -6.7890    2.3838    4.2419 C   0  0  0  0  0  0  0  0  0  0  0  0
   -5.8287    3.9377    3.1696 H   0  0  0  0  0  0  0  0  0  0  0  0
   -7.6802    2.0864    3.6697 H   0  0  0  0  0  0  0  0  0  0  0  0
   -6.3690    1.5032    4.7500 H   0  0  0  0  0  0  0  0  0  0  0  0
   -7.0691    3.1399    4.9900 H   0  0  0  0  0  0  0  0  0  0  0  0
  1  3  1  0  0  0  0
  1  7  1  0  0  0  0
  1  2  2  0  0  0  0
 37 38  1  0  0  0  0
 38 46  1  0  0  0  0
 38 39  2  0  0  0  0
  8  9  1  0  0  0  0
  9 17  1  0  0  0  0
  9 10  2  0  0  0  0
 18 19  1  0  0  0  0
 19 36  1  0  0  0  0
 19 20  2  0  0  0  0
 22 24  1  0  0  0  0
 37 40  1  0  0  0  0
  8 11  1  0  0  0  0
 21 23  1  0  0  0  0
 46 47  1  0  0  0  0
 21 22  1  0  0  0  0
 36 37  1  0  0  0  0
  7  8  1  0  0  0  0
 18 21  1  0  0  0  0
 17 18  1  0  0  0  0
  3  4  1  0  0  0  0
  3  5  1  0  0  0  0
  3  6  1  0  0  0  0
 24 33  1  0  0  0  0
 24 34  1  0  0  0  0
 24 35  1  0  0  0  0
 40 43  1  0  0  0  0
 40 44  1  0  0  0  0
 40 45  1  0  0  0  0
 11 14  1  0  0  0  0
 11 15  1  0  0  0  0
 11 16  1  0  0  0  0
 23 30  1  0  0  0  0
 23 31  1  0  0  0  0
 23 32  1  0  0  0  0
 47 49  1  0  0  0  0
 47 50  1  0  0  0  0
 47 51  1  0  0  0  0
 22 28  1  0  0  0  0
 22 29  1  0  0  0  0
 37 42  1  0  0  0  0
  8 13  1  0  0  0  0
 18 26  1  0  0  0  0
 21 27  1  0  0  0  0
 46 48  1  0  0  0  0
  7 12  1  0  0  0  0
 36 41  1  0  0  0  0
 17 25  1  0  0  0  0
M  END
$$$$

  -OEChem-05262214473D

 51 50  0     1  0  0  0  0  0999 V2000
    1.3524   -3.0009    1.4091 C   0  0  0  0  0  0  0  0  0  0  0  0
    1.8758   -1.9880    0.9598 O   0  0  0  0  0  0  0  0  0  0  0  0
    2.2030   -4.1782    1.7536 C   0  0  0  0  0  0  0  0  0  0  0  0
    2.3264   -4.8705    0.9053 H   0  0  0  0  0  0  0  0  0  0  0  0
    3.2257   -3.8876    2.0432 H   0  0  0  0  0  0  0  0  0  0  0  0
    1.8327   -4.8004    2.5839 H   0  0  0  0  0  0  0  0  0  0  0  0
    0.0005   -3.1873    1.6465 N   0  0  0  0  0  0  0  0  0  0  0  0
   -0.9949   -2.1807    1.3864 C   0  0  2  0  0  0  0  0  0  0  0  0
   -0.3083   -0.8216    1.4164 C   0  0  0  0  0  0  0  0  0  0  0  0
    0.7533   -0.6191    2.0022 O   0  0  0  0  0  0  0  0  0  0  0  0
   -2.1232   -2.2423    2.4042 C   0  0  0  0  0  0  0  0  0  0  0  0
   -0.3048   -4.0823    2.0245 H   0  0  0  0  0  0  0  0  0  0  0  0
   -1.3830   -2.3724    0.3801 H   0  0  0  0  0  0  0  0  0  0  0  0
   -1.7534   -2.0527    3.4185 H   0  0  0  0  0  0  0  0  0  0  0  0
   -2.8936   -1.4947    2.1882 H   0  0  0  0  0  0  0  0  0  0  0  0
   -2.5964   -3.2301    2.4022 H   0  0  0  0  0  0  0  0  0  0  0  0
   -1.0412    0.1517    0.7482 N   0  0  0  0  0  0  0  0  0  0  0  0
   -0.6079    1.5223    0.6467 C   0  0  2  0  0  0  0  0  0  0  0  0
   -1.8495    2.4096    0.5661 C   0  0  0  0  0  0  0  0  0  0  0  0
   -2.2416    2.9156   -0.4835 O   0  0  0  0  0  0  0  0  0  0  0  0
    0.3687    1.7620   -0.5299 C   0  0  2  0  0  0  0  0  0  0  0  0
    1.6849    0.9696   -0.3678 C   0  0  0  0  0  0  0  0  0  0  0  0
    0.6300    3.2642   -0.7019 C   0  0  0  0  0  0  0  0  0  0  0  0
    2.5516    0.9696   -1.6205 C   0  0  0  0  0  0  0  0  0  0  0  0
   -1.9022   -0.1128    0.2753 H   0  0  0  0  0  0  0  0  0  0  0  0
   -0.1056    1.7491    1.5958 H   0  0  0  0  0  0  0  0  0  0  0  0
   -0.1187    1.4139   -1.4504 H   0  0  0  0  0  0  0  0  0  0  0  0
    2.2772    1.4038    0.4458 H   0  0  0  0  0  0  0  0  0  0  0  0
    1.4737   -0.0691   -0.0870 H   0  0  0  0  0  0  0  0  0  0  0  0
    1.1181    3.6787    0.1868 H   0  0  0  0  0  0  0  0  0  0  0  0
    1.2937    3.4563   -1.5505 H   0  0  0  0  0  0  0  0  0  0  0  0
   -0.3002    3.8173   -0.8680 H   0  0  0  0  0  0  0  0  0  0  0  0
    2.0204    0.5470   -2.4781 H   0  0  0  0  0  0  0  0  0  0  0  0
    3.4469    0.3610   -1.4560 H   0  0  0  0  0  0  0  0  0  0  0  0
    2.8747    1.9838   -1.8753 H   0  0  0  0  0  0  0  0  0  0  0  0
   -2.4810    2.5395    1.7948 N   0  0  0  0  0  0  0  0  0  0  0  0
   -3.6888    3.3093    1.9881 C   0  0  2  0  0  0  0  0  0  0  0  0
   -4.4354    2.7219    3.1784 C   0  0  0  0  0  0  0  0  0  0  0  0
   -4.2728    1.5678    3.5691 O   0  0  0  0  0  0  0  0  0  0  0  0
   -4.5586    3.2965    0.7407 C   0  0  0  0  0  0  0  0  0  0  0  0
   -2.0742    2.0702    2.5985 H   0  0  0  0  0  0  0  0  0  0  0  0
   -3.3772    4.3334    2.2209 H   0  0  0  0  0  0  0  0  0  0  0  0
   -4.8805    2.2788    0.4918 H   0  0  0  0  0  0  0  0  0  0  0  0
   -5.4594    3.9035    0.8790 H   0  0  0  0  0  0  0  0  0  0  0  0
   -4.0100    3.6918   -0.1210 H   0  0  0  0  0  0  0  0  0  0  0  0
   -5.3363    3.6243    3.7264 N   0  0  0  0  0  0  0  0  0  0  0  0
   -6.1739    3.3003    4.8575 C   0  0  0  0  0  0  0  0  0  0  0  0
   -5.3912    4.5663    3.3503 H   0  0  0  0  0  0  0  0  0  0  0  0
   -7.1409    2.9165    4.5002 H   0  0  0  0  0  0  0  0  0  0  0  0
   -5.6796    2.5335    5.4720 H   0  0  0  0  0  0  0  0  0  0  0  0
   -6.3392    4.2043    5.4621 H   0  0  0  0  0  0  0  0  0  0  0  0
  1  3  1  0  0  0  0
  1  7  1  0  0  0  0
  1  2  2  0  0  0  0
 37 38  1  0  0  0  0
 38 46  1  0  0  0  0
 38 39  2  0  0  0  0
  8  9  1  0  0  0  0
  9 17  1  0  0  0  0
  9 10  2  0  0  0  0
 18 19  1  0  0  0  0
 19 36  1  0  0  0  0
 19 20  2  0  0  0  0
 22 24  1  0  0  0  0
 37 40  1  0  0  0  0
  8 11  1  0  0  0  0
 21 23  1  0  0  0  0
 46 47  1  0  0  0  0
 21 22  1  0  0  0  0
 36 37  1  0  0  0  0
  7  8  1  0  0  0  0
 18 21  1  0  0  0  0
 17 18  1  0  0  0  0
  3  4  1  0  0  0  0
  3  5  1  0  0  0  0
  3  6  1  0  0  0  0
 24 33  1  0  0  0  0
 24 34  1  0  0  0  0
 24 35  1  0  0  0  0
 40 43  1  0  0  0  0
 40 44  1  0  0  0  0
 40 45  1  0  0  0  0
 11 14  1  0  0  0  0
 11 15  1  0  0  0  0
 11 16  1  0  0  0  0
 23 30  1  0  0  0  0
 23 31  1  0  0  0  0
 23 32  1  0  0  0  0
 47 49  1  0  0  0  0
 47 50  1  0  0  0  0
 47 51  1  0  0  0  0
 22 28  1  0  0  0  0
 22 29  1  0  0  0  0
 37 42  1  0  0  0  0
  8 13  1  0  0  0  0
 18 26  1  0  0  0  0
 21 27  1  0  0  0  0
 46 48  1  0  0  0  0
  7 12  1  0  0  0  0
 36 41  1  0  0  0  0
 17 25  1  0  0  0  0
M  END
$$$$

  -OEChem-05262214473D

 51 50  0     1  0  0  0  0  0999 V2000
    1.3524   -3.0009    1.4091 C   0  0  0  0  0  0  0  0  0  0  0  0
    1.8758   -1.9880    0.9598 O   0  0  0  0  0  0  0  0  0  0  0  0
    2.2030   -4.1782    1.7536 C   0  0  0  0  0  0  0  0  0  0  0  0
    2.3264   -4.8705    0.9053 H   0  0  0  0  0  0  0  0  0  0  0  0
    3.2257   -3.8876    2.0432 H   0  0  0  0  0  0  0  0  0  0  0  0
    1.8327   -4.8004    2.5839 H   0  0  0  0  0  0  0  0  0  0  0  0
    0.0005   -3.1873    1.6465 N   0  0  0  0  0  0  0  0  0  0  0  0
   -0.9949   -2.1807    1.3864 C   0  0  2  0  0  0  0  0  0  0  0  0
   -0.3083   -0.8216    1.4164 C   0  0  0  0  0  0  0  0  0  0  0  0
    0.7533   -0.6191    2.0022 O   0  0  0  0  0  0  0  0  0  0  0  0
   -2.1232   -2.2423    2.4042 C   0  0  0  0  0  0  0  0  0  0  0  0
   -0.3048   -4.0823    2.0245 H   0  0  0  0  0  0  0  0  0  0  0  0
   -1.3830   -2.3724    0.3801 H   0  0  0  0  0  0  0  0  0  0  0  0
   -1.7534   -2.0527    3.4185 H   0  0  0  0  0  0  0  0  0  0  0  0
   -2.8936   -1.4947    2.1882 H   0  0  0  0  0  0  0  0  0  0  0  0
   -2.5964   -3.2301    2.4022 H   0  0  0  0  0  0  0  0  0  0  0  0
   -1.0412    0.1517    0.7482 N   0  0  0  0  0  0  0  0  0  0  0  0
   -0.6079    1.5223    0.6467 C   0  0  2  0  0  0  0  0  0  0  0  0
   -1.8495    2.4096    0.5661 C   0  0  0  0  0  0  0  0  0  0  0  0
   -2.3975    2.6962   -0.4964 O   0  0  0  0  0  0  0  0  0  0  0  0
    0.3687    1.7620   -0.5299 C   0  0  2  0  0  0  0  0  0  0  0  0
    1.6849    0.9696   -0.3678 C   0  0  0  0  0  0  0  0  0  0  0  0
    0.6300    3.2642   -0.7019 C   0  0  0  0  0  0  0  0  0  0  0  0
    2.5516    0.9696   -1.6205 C   0  0  0  0  0  0  0  0  0  0  0  0
   -1.9022   -0.1128    0.2753 H   0  0  0  0  0  0  0  0  0  0  0  0
   -0.1056    1.7491    1.5958 H   0  0  0  0  0  0  0  0  0  0  0  0
   -0.1187    1.4139   -1.4504 H   0  0  0  0  0  0  0  0  0  0  0  0
    2.2772    1.4038    0.4458 H   0  0  0  0  0  0  0  0  0  0  0  0
    1.4737   -0.0691   -0.0870 H   0  0  0  0  0  0  0  0  0  0  0  0
    1.1181    3.6787    0.1868 H   0  0  0  0  0  0  0  0  0  0  0  0
    1.2937    3.4563   -1.5505 H   0  0  0  0  0  0  0  0  0  0  0  0
   -0.3002    3.8173   -0.8680 H   0  0  0  0  0  0  0  0  0  0  0  0
    2.0204    0.5470   -2.4781 H   0  0  0  0  0  0  0  0  0  0  0  0
    3.4469    0.3610   -1.4560 H   0  0  0  0  0  0  0  0  0  0  0  0
    2.8747    1.9838   -1.8753 H   0  0  0  0  0  0  0  0  0  0  0  0
   -2.2876    2.8125    1.8196 N   0  0  0  0  0  0  0  0  0  0  0  0
   -3.4539    3.6412    2.0233 C   0  0  2  0  0  0  0  0  0  0  0  0
   -4.0098    3.3383    3.4085 C   0  0  0  0  0  0  0  0  0  0  0  0
   -3.7871    2.2872    4.0056 O   0  0  0  0  0  0  0  0  0  0  0  0
   -4.5029    3.3936    0.9505 C   0  0  0  0  0  0  0  0  0  0  0  0
   -1.7624    2.5098    2.6346 H   0  0  0  0  0  0  0  0  0  0  0  0
   -3.1131    4.6816    1.9854 H   0  0  0  0  0  0  0  0  0  0  0  0
   -4.8564    2.3563    0.9730 H   0  0  0  0  0  0  0  0  0  0  0  0
   -5.3738    4.0426    1.0898 H   0  0  0  0  0  0  0  0  0  0  0  0
   -4.0924    3.5833   -0.0471 H   0  0  0  0  0  0  0  0  0  0  0  0
   -4.8193    4.3618    3.8812 N   0  0  0  0  0  0  0  0  0  0  0  0
   -5.4749    4.3067    5.1670 C   0  0  0  0  0  0  0  0  0  0  0  0
   -4.9330    5.2054    3.3270 H   0  0  0  0  0  0  0  0  0  0  0  0
   -6.4839    3.8855    5.0469 H   0  0  0  0  0  0  0  0  0  0  0  0
   -4.8912    3.6710    5.8491 H   0  0  0  0  0  0  0  0  0  0  0  0
   -5.5486    5.3216    5.5846 H   0  0  0  0  0  0  0  0  0  0  0  0
  1  3  1  0  0  0  0
  1  7  1  0  0  0  0
  1  2  2  0  0  0  0
 37 38  1  0  0  0  0
 38 46  1  0  0  0  0
 38 39  2  0  0  0  0
  8  9  1  0  0  0  0
  9 17  1  0  0  0  0
  9 10  2  0  0  0  0
 18 19  1  0  0  0  0
 19 36  1  0  0  0  0
 19 20  2  0  0  0  0
 22 24  1  0  0  0  0
 37 40  1  0  0  0  0
  8 11  1  0  0  0  0
 21 23  1  0  0  0  0
 46 47  1  0  0  0  0
 21 22  1  0  0  0  0
 36 37  1  0  0  0  0
  7  8  1  0  0  0  0
 18 21  1  0  0  0  0
 17 18  1  0  0  0  0
  3  4  1  0  0  0  0
  3  5  1  0  0  0  0
  3  6  1  0  0  0  0
 24 33  1  0  0  0  0
 24 34  1  0  0  0  0
 24 35  1  0  0  0  0
 40 43  1  0  0  0  0
 40 44  1  0  0  0  0
 40 45  1  0  0  0  0
 11 14  1  0  0  0  0
 11 15  1  0  0  0  0
 11 16  1  0  0  0  0
 23 30  1  0  0  0  0
 23 31  1  0  0  0  0
 23 32  1  0  0  0  0
 47 49  1  0  0  0  0
 47 50  1  0  0  0  0
 47 51  1  0  0  0  0
 22 28  1  0  0  0  0
 22 29  1  0  0  0  0
 37 42  1  0  0  0  0
  8 13  1  0  0  0  0
 18 26  1  0  0  0  0
 21 27  1  0  0  0  0
 46 48  1  0  0  0  0
  7 12  1  0  0  0  0
 36 41  1  0  0  0  0
 17 25  1  0  0  0  0
M  END
$$$$

  -OEChem-05262214473D

 51 50  0     1  0  0  0  0  0999 V2000
    1.3524   -3.0009    1.4091 C   0  0  0  0  0  0  0  0  0  0  0  0
    1.8758   -1.9880    0.9598 O   0  0  0  0  0  0  0  0  0  0  0  0
    2.2030   -4.1782    1.7536 C   0  0  0  0  0  0  0  0  0  0  0  0
    2.3264   -4.8705    0.9053 H   0  0  0  0  0  0  0  0  0  0  0  0
    3.2257   -3.8876    2.0432 H   0  0  0  0  0  0  0  0  0  0  0  0
    1.8327   -4.8004    2.5839 H   0  0  0  0  0  0  0  0  0  0  0  0
    0.0005   -3.1873    1.6465 N   0  0  0  0  0  0  0  0  0  0  0  0
   -0.9949   -2.1807    1.3864 C   0  0  2  0  0  0  0  0  0  0  0  0
   -0.3083   -0.8216    1.4164 C   0  0  0  0  0  0  0  0  0  0  0  0
    0.7533   -0.6191    2.0022 O   0  0  0  0  0  0  0  0  0  0  0  0
   -2.1232   -2.2423    2.4042 C   0  0  0  0  0  0  0  0  0  0  0  0
   -0.3048   -4.0823    2.0245 H   0  0  0  0  0  0  0  0  0  0  0  0
   -1.3830   -2.3724    0.3801 H   0  0  0  0  0  0  0  0  0  0  0  0
   -1.7534   -2.0527    3.4185 H   0  0  0  0  0  0  0  0  0  0  0  0
   -2.8936   -1.4947    2.1882 H   0  0  0  0  0  0  0  0  0  0  0  0
   -2.5964   -3.2301    2.4022 H   0  0  0  0  0  0  0  0  0  0  0  0
   -1.0412    0.1517    0.7482 N   0  0  0  0  0  0  0  0  0  0  0  0
   -0.6079    1.5223    0.6467 C   0  0  2  0  0  0  0  0  0  0  0  0
   -1.8495    2.4096    0.5661 C   0  0  0  0  0  0  0  0  0  0  0  0
   -2.5531    2.4837   -0.4393 O   0  0  0  0  0  0  0  0  0  0  0  0
    0.3687    1.7620   -0.5299 C   0  0  2  0  0  0  0  0  0  0  0  0
    1.6849    0.9696   -0.3678 C   0  0  0  0  0  0  0  0  0  0  0  0
    0.6300    3.2642   -0.7019 C   0  0  0  0  0  0  0  0  0  0  0  0
    2.5516    0.9696   -1.6205 C   0  0  0  0  0  0  0  0  0  0  0  0
   -1.9022   -0.1128    0.2753 H   0  0  0  0  0  0  0  0  0  0  0  0
   -0.1056    1.7491    1.5958 H   0  0  0  0  0  0  0  0  0  0  0  0
   -0.1187    1.4139   -1.4504 H   0  0  0  0  0  0  0  0  0  0  0  0
    2.2772    1.4038    0.4458 H   0  0  0  0  0  0  0  0  0  0  0  0
    1.4737   -0.0691   -0.0870 H   0  0  0  0  0  0  0  0  0  0  0  0
    1.1181    3.6787    0.1868 H   0  0  0  0  0  0  0  0  0  0  0  0
    1.2937    3.4563   -1.5505 H   0  0  0  0  0  0  0  0  0  0  0  0
   -0.3002    3.8173   -0.8680 H   0  0  0  0  0  0  0  0  0  0  0  0
    2.0204    0.5470   -2.4781 H   0  0  0  0  0  0  0  0  0  0  0  0
    3.4469    0.3610   -1.4560 H   0  0  0  0  0  0  0  0  0  0  0  0
    2.8747    1.9838   -1.8753 H   0  0  0  0  0  0  0  0  0  0  0  0
   -2.0933    3.0787    1.7571 N   0  0  0  0  0  0  0  0  0  0  0  0
   -3.2172    3.9660    1.9523 C   0  0  2  0  0  0  0  0  0  0  0  0
   -3.5558    3.9763    3.4371 C   0  0  0  0  0  0  0  0  0  0  0  0
   -3.2425    3.0672    4.2029 O   0  0  0  0  0  0  0  0  0  0  0  0
   -4.4162    3.5307    1.1244 C   0  0  0  0  0  0  0  0  0  0  0  0
   -1.4498    2.9378    2.5301 H   0  0  0  0  0  0  0  0  0  0  0  0
   -2.8886    4.9648    1.6451 H   0  0  0  0  0  0  0  0  0  0  0  0
   -4.7597    2.5320    1.4179 H   0  0  0  0  0  0  0  0  0  0  0  0
   -5.2574    4.2201    1.2514 H   0  0  0  0  0  0  0  0  0  0  0  0
   -4.1623    3.4951    0.0594 H   0  0  0  0  0  0  0  0  0  0  0  0
   -4.2866    5.0997    3.7980 N   0  0  0  0  0  0  0  0  0  0  0  0
   -4.7394    5.3343    5.1492 C   0  0  0  0  0  0  0  0  0  0  0  0
   -4.4851    5.8117    3.1012 H   0  0  0  0  0  0  0  0  0  0  0  0
   -5.7539    4.9275    5.2724 H   0  0  0  0  0  0  0  0  0  0  0  0
   -4.0574    4.8384    5.8556 H   0  0  0  0  0  0  0  0  0  0  0  0
   -4.7513    6.4159    5.3492 H   0  0  0  0  0  0  0  0  0  0  0  0
  1  3  1  0  0  0  0
  1  7  1  0  0  0  0
  1  2  2  0  0  0  0
 37 38  1  0  0  0  0
 38 46  1  0  0  0  0
 38 39  2  0  0  0  0
  8  9  1  0  0  0  0
  9 17  1  0  0  0  0
  9 10  2  0  0  0  0
 18 19  1  0  0  0  0
 19 36  1  0  0  0  0
 19 20  2  0  0  0  0
 22 24  1  0  0  0  0
 37 40  1  0  0  0  0
  8 11  1  0  0  0  0
 21 23  1  0  0  0  0
 46 47  1  0  0  0  0
 21 22  1  0  0  0  0
 36 37  1  0  0  0  0
  7  8  1  0  0  0  0
 18 21  1  0  0  0  0
 17 18  1  0  0  0  0
  3  4  1  0  0  0  0
  3  5  1  0  0  0  0
  3  6  1  0  0  0  0
 24 33  1  0  0  0  0
 24 34  1  0  0  0  0
 24 35  1  0  0  0  0
 40 43  1  0  0  0  0
 40 44  1  0  0  0  0
 40 45  1  0  0  0  0
 11 14  1  0  0  0  0
 11 15  1  0  0  0  0
 11 16  1  0  0  0  0
 23 30  1  0  0  0  0
 23 31  1  0  0  0  0
 23 32  1  0  0  0  0
 47 49  1  0  0  0  0
 47 50  1  0  0  0  0
 47 51  1  0  0  0  0
 22 28  1  0  0  0  0
 22 29  1  0  0  0  0
 37 42  1  0  0  0  0
  8 13  1  0  0  0  0
 18 26  1  0  0  0  0
 21 27  1  0  0  0  0
 46 48  1  0  0  0  0
  7 12  1  0  0  0  0
 36 41  1  0  0  0  0
 17 25  1  0  0  0  0
M  END
$$$$

  -OEChem-05262214473D

 51 50  0     1  0  0  0  0  0999 V2000
    1.3524   -3.0009    1.4091 C   0  0  0  0  0  0  0  0  0  0  0  0
    1.8758   -1.9880    0.9598 O   0  0  0  0  0  0  0  0  0  0  0  0
    2.2030   -4.1782    1.7536 C   0  0  0  0  0  0  0  0  0  0  0  0
    2.3264   -4.8705    0.9053 H   0  0  0  0  0  0  0  0  0  0  0  0
    3.2257   -3.8876    2.0432 H   0  0  0  0  0  0  0  0  0  0  0  0
    1.8327   -4.8004    2.5839 H   0  0  0  0  0  0  0  0  0  0  0  0
    0.0005   -3.1873    1.6465 N   0  0  0  0  0  0  0  0  0  0  0  0
   -0.9949   -2.1807    1.3864 C   0  0  2  0  0  0  0  0  0  0  0  0
   -0.3083   -0.8216    1.4164 C   0  0  0  0  0  0  0  0  0  0  0  0
    0.7533   -0.6191    2.0022 O   0  0  0  0  0  0  0  0  0  0  0  0
   -2.1232   -2.2423    2.4042 C   0  0  0  0  0  0  0  0  0  0  0  0
   -0.3048   -4.0823    2.0245 H   0  0  0  0  0  0  0  0  0  0  0  0
   -1.3830   -2.3724    0.3801 H   0  0  0  0  0  0  0  0  0  0  0  0
   -1.7534   -2.0527    3.4185 H   0  0  0  0  0  0  0  0  0  0  0  0
   -2.8936   -1.4947    2.1882 H   0  0  0  0  0  0  0  0  0  0  0  0
   -2.5964   -3.2301    2.4022 H   0  0  0  0  0  0  0  0  0  0  0  0
   -1.0412    0.1517    0.7482 N   0  0  0  0  0  0  0  0  0  0  0  0
   -0.6079    1.5223    0.6467 C   0  0  2  0  0  0  0  0  0  0  0  0
   -1.8495    2.4096    0.5661 C   0  0  0  0  0  0  0  0  0  0  0  0
   -2.6977    2.2926   -0.3161 O   0  0  0  0  0  0  0  0  0  0  0  0
    0.3687    1.7620   -0.5299 C   0  0  2  0  0  0  0  0  0  0  0  0
    1.6849    0.9696   -0.3678 C   0  0  0  0  0  0  0  0  0  0  0  0
    0.6300    3.2642   -0.7019 C   0  0  0  0  0  0  0  0  0  0  0  0
    2.5516    0.9696   -1.6205 C   0  0  0  0  0  0  0  0  0  0  0  0
   -1.9022   -0.1128    0.2753 H   0  0  0  0  0  0  0  0  0  0  0  0
   -0.1056    1.7491    1.5958 H   0  0  0  0  0  0  0  0  0  0  0  0
   -0.1187    1.4139   -1.4504 H   0  0  0  0  0  0  0  0  0  0  0  0
    2.2772    1.4038    0.4458 H   0  0  0  0  0  0  0  0  0  0  0  0
    1.4737   -0.0691   -0.0870 H   0  0  0  0  0  0  0  0  0  0  0  0
    1.1181    3.6787    0.1868 H   0  0  0  0  0  0  0  0  0  0  0  0
    1.2937    3.4563   -1.5505 H   0  0  0  0  0  0  0  0  0  0  0  0
   -0.3002    3.8173   -0.8680 H   0  0  0  0  0  0  0  0  0  0  0  0
    2.0204    0.5470   -2.4781 H   0  0  0  0  0  0  0  0  0  0  0  0
    3.4469    0.3610   -1.4560 H   0  0  0  0  0  0  0  0  0  0  0  0
    2.8747    1.9838   -1.8753 H   0  0  0  0  0  0  0  0  0  0  0  0
   -1.9114    3.3200    1.6115 N   0  0  0  0  0  0  0  0  0  0  0  0
   -2.9947    4.2615    1.7798 C   0  0  2  0  0  0  0  0  0  0  0  0
   -3.1042    4.5924    3.2624 C   0  0  0  0  0  0  0  0  0  0  0  0
   -2.6761    3.8548    4.1477 O   0  0  0  0  0  0  0  0  0  0  0  0
   -4.3045    3.6985    1.2504 C   0  0  0  0  0  0  0  0  0  0  0  0
   -1.1576    3.3249    2.2923 H   0  0  0  0  0  0  0  0  0  0  0  0
   -2.7190    5.1638    1.2231 H   0  0  0  0  0  0  0  0  0  0  0  0
   -4.5970    2.7940    1.7961 H   0  0  0  0  0  0  0  0  0  0  0  0
   -5.1183    4.4239    1.3527 H   0  0  0  0  0  0  0  0  0  0  0  0
   -4.2150    3.4333    0.1914 H   0  0  0  0  0  0  0  0  0  0  0  0
   -3.7745    5.7876    3.4823 N   0  0  0  0  0  0  0  0  0  0  0  0
   -4.0175    6.3131    4.8055 C   0  0  0  0  0  0  0  0  0  0  0  0
   -4.0781    6.3436    2.6884 H   0  0  0  0  0  0  0  0  0  0  0  0
   -5.0007    5.9715    5.1614 H   0  0  0  0  0  0  0  0  0  0  0  0
   -3.2351    5.9559    5.4912 H   0  0  0  0  0  0  0  0  0  0  0  0
   -4.0017    7.4125    4.7718 H   0  0  0  0  0  0  0  0  0  0  0  0
  1  3  1  0  0  0  0
  1  7  1  0  0  0  0
  1  2  2  0  0  0  0
 37 38  1  0  0  0  0
 38 46  1  0  0  0  0
 38 39  2  0  0  0  0
  8  9  1  0  0  0  0
  9 17  1  0  0  0  0
  9 10  2  0  0  0  0
 18 19  1  0  0  0  0
 19 36  1  0  0  0  0
 19 20  2  0  0  0  0
 22 24  1  0  0  0  0
 37 40  1  0  0  0  0
  8 11  1  0  0  0  0
 21 23  1  0  0  0  0
 46 47  1  0  0  0  0
 21 22  1  0  0  0  0
 36 37  1  0  0  0  0
  7  8  1  0  0  0  0
 18 21  1  0  0  0  0
 17 18  1  0  0  0  0
  3  4  1  0  0  0  0
  3  5  1  0  0  0  0
  3  6  1  0  0  0  0
 24 33  1  0  0  0  0
 24 34  1  0  0  0  0
 24 35  1  0  0  0  0
 40 43  1  0  0  0  0
 40 44  1  0  0  0  0
 40 45  1  0  0  0  0
 11 14  1  0  0  0  0
 11 15  1  0  0  0  0
 11 16  1  0  0  0  0
 23 30  1  0  0  0  0
 23 31  1  0  0  0  0
 23 32  1  0  0  0  0
 47 49  1  0  0  0  0
 47 50  1  0  0  0  0
 47 51  1  0  0  0  0
 22 28  1  0  0  0  0
 22 29  1  0  0  0  0
 37 42  1  0  0  0  0
  8 13  1  0  0  0  0
 18 26  1  0  0  0  0
 21 27  1  0  0  0  0
 46 48  1  0  0  0  0
  7 12  1  0  0  0  0
 36 41  1  0  0  0  0
 17 25  1  0  0  0  0
M  END
$$$$

  -OEChem-05262214473D

 51 50  0     1  0  0  0  0  0999 V2000
    1.3524   -3.0009    1.4091 C   0  0  0  0  0  0  0  0  0  0  0  0
    1.8758   -1.9880    0.9598 O   0  0  0  0  0  0  0  0  0  0  0  0
    2.2030   -4.1782    1.7536 C   0  0  0  0  0  0  0  0  0  0  0  0
    2.3264   -4.8705    0.9053 H   0  0  0  0  0  0  0  0  0  0  0  0
    3.2257   -3.8876    2.0432 H   0  0  0  0  0  0  0  0  0  0  0  0
    1.8327   -4.8004    2.5839 H   0  0  0  0  0  0  0  0  0  0  0  0
    0.0005   -3.1873    1.6465 N   0  0  0  0  0  0  0  0  0  0  0  0
   -0.9949   -2.1807    1.3864 C   0  0  2  0  0  0  0  0  0  0  0  0
   -0.3083   -0.8216    1.4164 C   0  0  0  0  0  0  0  0  0  0  0  0
    0.7533   -0.6191    2.0022 O   0  0  0  0  0  0  0  0  0  0  0  0
   -2.1232   -2.2423    2.4042 C   0  0  0  0  0  0  0  0  0  0  0  0
   -0.3048   -4.0823    2.0245 H   0  0  0  0  0  0  0  0  0  0  0  0
   -1.3830   -2.3724    0.3801 H   0  0  0  0  0  0  0  0  0  0  0  0
   -1.7534   -2.0527    3.4185 H   0  0  0  0  0  0  0  0  0  0  0  0
   -2.8936   -1.4947    2.1882 H   0  0  0  0  0  0  0  0  0  0  0  0
   -2.5964   -3.2301    2.4022 H   0  0  0  0  0  0  0  0  0  0  0  0
   -1.0412    0.1517    0.7482 N   0  0  0  0  0  0  0  0  0  0  0  0
   -0.6079    1.5223    0.6467 C   0  0  2  0  0  0  0  0  0  0  0  0
   -1.8495    2.4096    0.5661 C   0  0  0  0  0  0  0  0  0  0  0  0
   -2.8214    2.1358   -0.1352 O   0  0  0  0  0  0  0  0  0  0  0  0
    0.3687    1.7620   -0.5299 C   0  0  2  0  0  0  0  0  0  0  0  0
    1.6849    0.9696   -0.3678 C   0  0  0  0  0  0  0  0  0  0  0  0
    0.6300    3.2642   -0.7019 C   0  0  0  0  0  0  0  0  0  0  0  0
    2.5516    0.9696   -1.6205 C   0  0  0  0  0  0  0  0  0  0  0  0
   -1.9022   -0.1128    0.2753 H   0  0  0  0  0  0  0  0  0  0  0  0
   -0.1056    1.7491    1.5958 H   0  0  0  0  0  0  0  0  0  0  0  0
   -0.1187    1.4139   -1.4504 H   0  0  0  0  0  0  0  0  0  0  0  0
    2.2772    1.4038    0.4458 H   0  0  0  0  0  0  0  0  0  0  0  0
    1.4737   -0.0691   -0.0870 H   0  0  0  0  0  0  0  0  0  0  0  0
    1.1181    3.6787    0.1868 H   0  0  0  0  0  0  0  0  0  0  0  0
    1.2937    3.4563   -1.5505 H   0  0  0  0  0  0  0  0  0  0  0  0
   -0.3002    3.8173   -0.8680 H   0  0  0  0  0  0  0  0  0  0  0  0
    2.0204    0.5470   -2.4781 H   0  0  0  0  0  0  0  0  0  0  0  0
    3.4469    0.3610   -1.4560 H   0  0  0  0  0  0  0  0  0  0  0  0
    2.8747    1.9838   -1.8753 H   0  0  0  0  0  0  0  0  0  0  0  0
   -1.7542    3.5200    1.3928 N   0  0  0  0  0  0  0  0  0  0  0  0
   -2.8018    4.5077    1.5176 C   0  0  2  0  0  0  0  0  0  0  0  0
   -2.6858    5.1446    2.8962 C   0  0  0  0  0  0  0  0  0  0  0  0
   -2.1266    4.5961    3.8436 O   0  0  0  0  0  0  0  0  0  0  0  0
   -4.1753    3.8856    1.3201 C   0  0  0  0  0  0  0  0  0  0  0  0
   -0.9060    3.6448    1.9373 H   0  0  0  0  0  0  0  0  0  0  0  0
   -2.6159    5.2649    0.7481 H   0  0  0  0  0  0  0  0  0  0  0  0
   -4.3795    3.1244    2.0820 H   0  0  0  0  0  0  0  0  0  0  0  0
   -4.9660    4.6401    1.3867 H   0  0  0  0  0  0  0  0  0  0  0  0
   -4.2469    3.4022    0.3398 H   0  0  0  0  0  0  0  0  0  0  0  0
   -3.3179    6.3787    2.9558 N   0  0  0  0  0  0  0  0  0  0  0  0
   -3.3586    7.1765    4.1591 C   0  0  0  0  0  0  0  0  0  0  0  0
   -3.7398    6.7651    2.1165 H   0  0  0  0  0  0  0  0  0  0  0  0
   -4.2755    6.9462    4.7214 H   0  0  0  0  0  0  0  0  0  0  0  0
   -2.4803    6.9475    4.7806 H   0  0  0  0  0  0  0  0  0  0  0  0
   -3.3507    8.2435    3.8919 H   0  0  0  0  0  0  0  0  0  0  0  0
  1  3  1  0  0  0  0
  1  7  1  0  0  0  0
  1  2  2  0  0  0  0
 37 38  1  0  0  0  0
 38 46  1  0  0  0  0
 38 39  2  0  0  0  0
  8  9  1  0  0  0  0
  9 17  1  0  0  0  0
  9 10  2  0  0  0  0
 18 19  1  0  0  0  0
 19 36  1  0  0  0  0
 19 20  2  0  0  0  0
 22 24  1  0  0  0  0
 37 40  1  0  0  0  0
  8 11  1  0  0  0  0
 21 23  1  0  0  0  0
 46 47  1  0  0  0  0
 21 22  1  0  0  0  0
 36 37  1  0  0  0  0
  7  8  1  0  0  0  0
 18 21  1  0  0  0  0
 17 18  1  0  0  0  0
  3  4  1  0  0  0  0
  3  5  1  0  0  0  0
  3  6  1  0  0  0  0
 24 33  1  0  0  0  0
 24 34  1  0  0  0  0
 24 35  1  0  0  0  0
 40 43  1  0  0  0  0
 40 44  1  0  0  0  0
 40 45  1  0  0  0  0
 11 14  1  0  0  0  0
 11 15  1  0  0  0  0
 11 16  1  0  0  0  0
 23 30  1  0  0  0  0
 23 31  1  0  0  0  0
 23 32  1  0  0  0  0
 47 49  1  0  0  0  0
 47 50  1  0  0  0  0
 47 51  1  0  0  0  0
 22 28  1  0  0  0  0
 22 29  1  0  0  0  0
 37 42  1  0  0  0  0
  8 13  1  0  0  0  0
 18 26  1  0  0  0  0
 21 27  1  0  0  0  0
 46 48  1  0  0  0  0
  7 12  1  0  0  0  0
 36 41  1  0  0  0  0
 17 25  1  0  0  0  0
M  END
$$$$

  -OEChem-05262214473D

 51 50  0     1  0  0  0  0  0999 V2000
    1.3524   -3.0009    1.4091 C   0  0  0  0  0  0  0  0  0  0  0  0
    1.8758   -1.9880    0.9598 O   0  0  0  0  0  0  0  0  0  0  0  0
    2.2030   -4.1782    1.7536 C   0  0  0  0  0  0  0  0  0  0  0  0
    2.3264   -4.8705    0.9053 H   0  0  0  0  0  0  0  0  0  0  0  0
    3.2257   -3.8876    2.0432 H   0  0  0  0  0  0  0  0  0  0  0  0
    1.8327   -4.8004    2.5839 H   0  0  0  0  0  0  0  0  0  0  0  0
    0.0005   -3.1873    1.6465 N   0  0  0  0  0  0  0  0  0  0  0  0
   -0.9949   -2.1807    1.3864 C   0  0  2  0  0  0  0  0  0  0  0  0
   -0.3083   -0.8216    1.4164 C   0  0  0  0  0  0  0  0  0  0  0  0
    0.7533   -0.6191    2.0022 O   0  0  0  0  0  0  0  0  0  0  0  0
   -2.1232   -2.2423    2.4042 C   0  0  0  0  0  0  0  0  0  0  0  0
   -0.3048   -4.0823    2.0245 H   0  0  0  0  0  0  0  0  0  0  0  0
   -1.3830   -2.3724    0.3801 H   0  0  0  0  0  0  0  0  0  0  0  0
   -1.7534   -2.0527    3.4185 H   0  0  0  0  0  0  0  0  0  0  0  0
   -2.8936   -1.4947    2.1882 H   0  0  0  0  0  0  0  0  0  0  0  0
   -2.5964   -3.2301    2.4022 H   0  0  0  0  0  0  0  0  0  0  0  0
   -1.0412    0.1517    0.7482 N   0  0  0  0  0  0  0  0  0  0  0  0
   -0.6079    1.5223    0.6467 C   0  0  2  0  0  0  0  0  0  0  0  0
   -1.8495    2.4096    0.5661 C   0  0  0  0  0  0  0  0  0  0  0  0
   -2.9159    2.0242    0.0911 O   0  0  0  0  0  0  0  0  0  0  0  0
    0.3687    1.7620   -0.5299 C   0  0  2  0  0  0  0  0  0  0  0  0
    1.6849    0.9696   -0.3678 C   0  0  0  0  0  0  0  0  0  0  0  0
    0.6300    3.2642   -0.7019 C   0  0  0  0  0  0  0  0  0  0  0  0
    2.5516    0.9696   -1.6205 C   0  0  0  0  0  0  0  0  0  0  0  0
   -1.9022   -0.1128    0.2753 H   0  0  0  0  0  0  0  0  0  0  0  0
   -0.1056    1.7491    1.5958 H   0  0  0  0  0  0  0  0  0  0  0  0
   -0.1187    1.4139   -1.4504 H   0  0  0  0  0  0  0  0  0  0  0  0
    2.2772    1.4038    0.4458 H   0  0  0  0  0  0  0  0  0  0  0  0
    1.4737   -0.0691   -0.0870 H   0  0  0  0  0  0  0  0  0  0  0  0
    1.1181    3.6787    0.1868 H   0  0  0  0  0  0  0  0  0  0  0  0
    1.2937    3.4563   -1.5505 H   0  0  0  0  0  0  0  0  0  0  0  0
   -0.3002    3.8173   -0.8680 H   0  0  0  0  0  0  0  0  0  0  0  0
    2.0204    0.5470   -2.4781 H   0  0  0  0  0  0  0  0  0  0  0  0
    3.4469    0.3610   -1.4560 H   0  0  0  0  0  0  0  0  0  0  0  0
    2.8747    1.9838   -1.8753 H   0  0  0  0  0  0  0  0  0  0  0  0
   -1.6326    3.6651    1.1158 N   0  0  0  0  0  0  0  0  0  0  0  0
   -2.6514    4.6877    1.1836 C   0  0  2  0  0  0  0  0  0  0  0  0
   -2.3292    5.5952    2.3635 C   0  0  0  0  0  0  0  0  0  0  0  0
   -1.6313    5.2407    3.3114 O   0  0  0  0  0  0  0  0  0  0  0  0
   -4.0375    4.0791    1.3287 C   0  0  0  0  0  0  0  0  0  0  0  0
   -0.7118    3.8758    1.4892 H   0  0  0  0  0  0  0  0  0  0  0  0
   -2.5863    5.2613    0.2526 H   0  0  0  0  0  0  0  0  0  0  0  0
   -4.1219    3.5006    2.2559 H   0  0  0  0  0  0  0  0  0  0  0  0
   -4.8108    4.8541    1.3512 H   0  0  0  0  0  0  0  0  0  0  0  0
   -4.2559    3.4037    0.4945 H   0  0  0  0  0  0  0  0  0  0  0  0
   -2.9478    6.8327    2.2544 N   0  0  0  0  0  0  0  0  0  0  0  0
   -2.8075    7.8655    3.2542 C   0  0  0  0  0  0  0  0  0  0  0  0
   -3.4932    7.0473    1.4247 H   0  0  0  0  0  0  0  0  0  0  0  0
   -3.6279    7.7853    3.9826 H   0  0  0  0  0  0  0  0  0  0  0  0
   -1.8445    7.7456    3.7723 H   0  0  0  0  0  0  0  0  0  0  0  0
   -2.8427    8.8522    2.7695 H   0  0  0  0  0  0  0  0  0  0  0  0
  1  3  1  0  0  0  0
  1  7  1  0  0  0  0
  1  2  2  0  0  0  0
 37 38  1  0  0  0  0
 38 46  1  0  0  0  0
 38 39  2  0  0  0  0
  8  9  1  0  0  0  0
  9 17  1  0  0  0  0
  9 10  2  0  0  0  0
 18 19  1  0  0  0  0
 19 36  1  0  0  0  0
 19 20  2  0  0  0  0
 22 24  1  0  0  0  0
 37 40  1  0  0  0  0
  8 11  1  0  0  0  0
 21 23  1  0  0  0  0
 46 47  1  0  0  0  0
 21 22  1  0  0  0  0
 36 37  1  0  0  0  0
  7  8  1  0  0  0  0
 18 21  1  0  0  0  0
 17 18  1  0  0  0  0
  3  4  1  0  0  0  0
  3  5  1  0  0  0  0
  3  6  1  0  0  0  0
 24 33  1  0  0  0  0
 24 34  1  0  0  0  0
 24 35  1  0  0  0  0
 40 43  1  0  0  0  0
 40 44  1  0  0  0  0
 40 45  1  0  0  0  0
 11 14  1  0  0  0  0
 11 15  1  0  0  0  0
 11 16  1  0  0  0  0
 23 30  1  0  0  0  0
 23 31  1  0  0  0  0
 23 32  1  0  0  0  0
 47 49  1  0  0  0  0
 47 50  1  0  0  0  0
 47 51  1  0  0  0  0
 22 28  1  0  0  0  0
 22 29  1  0  0  0  0
 37 42  1  0  0  0  0
  8 13  1  0  0  0  0
 18 26  1  0  0  0  0
 21 27  1  0  0  0  0
 46 48  1  0  0  0  0
  7 12  1  0  0  0  0
 36 41  1  0  0  0  0
 17 25  1  0  0  0  0
M  END
$$$$

  -OEChem-05262214473D

 51 50  0     1  0  0  0  0  0999 V2000
    1.3524   -3.0009    1.4091 C   0  0  0  0  0  0  0  0  0  0  0  0
    1.8758   -1.9880    0.9598 O   0  0  0  0  0  0  0  0  0  0  0  0
    2.2030   -4.1782    1.7536 C   0  0  0  0  0  0  0  0  0  0  0  0
    2.3264   -4.8705    0.9053 H   0  0  0  0  0  0  0  0  0  0  0  0
    3.2257   -3.8876    2.0432 H   0  0  0  0  0  0  0  0  0  0  0  0
    1.8327   -4.8004    2.5839 H   0  0  0  0  0  0  0  0  0  0  0  0
    0.0005   -3.1873    1.6465 N   0  0  0  0  0  0  0  0  0  0  0  0
   -0.9949   -2.1807    1.3864 C   0  0  2  0  0  0  0  0  0  0  0  0
   -0.3083   -0.8216    1.4164 C   0  0  0  0  0  0  0  0  0  0  0  0
    0.7533   -0.6191    2.0022 O   0  0  0  0  0  0  0  0  0  0  0  0
   -2.1232   -2.2423    2.4042 C   0  0  0  0  0  0  0  0  0  0  0  0
   -0.3048   -4.0823    2.0245 H   0  0  0  0  0  0  0  0  0  0  0  0
   -1.3830   -2.3724    0.3801 H   0  0  0  0  0  0  0  0  0  0  0  0
   -1.7534   -2.0527    3.4185 H   0  0  0  0  0  0  0  0  0  0  0  0
   -2.8936   -1.4947    2.1882 H   0  0  0  0  0  0  0  0  0  0  0  0
   -2.5964   -3.2301    2.4022 H   0  0  0  0  0  0  0  0  0  0  0  0
   -1.0412    0.1517    0.7482 N   0  0  0  0  0  0  0  0  0  0  0  0
   -0.6079    1.5223    0.6467 C   0  0  2  0  0  0  0  0  0  0  0  0
   -1.8495    2.4096    0.5661 C   0  0  0  0  0  0  0  0  0  0  0  0
   -2.9747    1.9652    0.3474 O   0  0  0  0  0  0  0  0  0  0  0  0
    0.3687    1.7620   -0.5299 C   0  0  2  0  0  0  0  0  0  0  0  0
    1.6849    0.9696   -0.3678 C   0  0  0  0  0  0  0  0  0  0  0  0
    0.6300    3.2642   -0.7019 C   0  0  0  0  0  0  0  0  0  0  0  0
    2.5516    0.9696   -1.6205 C   0  0  0  0  0  0  0  0  0  0  0  0
   -1.9022   -0.1128    0.2753 H   0  0  0  0  0  0  0  0  0  0  0  0
   -0.1056    1.7491    1.5958 H   0  0  0  0  0  0  0  0  0  0  0  0
   -0.1187    1.4139   -1.4504 H   0  0  0  0  0  0  0  0  0  0  0  0
    2.2772    1.4038    0.4458 H   0  0  0  0  0  0  0  0  0  0  0  0
    1.4737   -0.0691   -0.0870 H   0  0  0  0  0  0  0  0  0  0  0  0
    1.1181    3.6787    0.1868 H   0  0  0  0  0  0  0  0  0  0  0  0
    1.2937    3.4563   -1.5505 H   0  0  0  0  0  0  0  0  0  0  0  0
   -0.3002    3.8173   -0.8680 H   0  0  0  0  0  0  0  0  0  0  0  0
    2.0204    0.5470   -2.4781 H   0  0  0  0  0  0  0  0  0  0  0  0
    3.4469    0.3610   -1.4560 H   0  0  0  0  0  0  0  0  0  0  0  0
    2.8747    1.9838   -1.8753 H   0  0  0  0  0  0  0  0  0  0  0  0
   -1.5547    3.7453    0.7996 N   0  0  0  0  0  0  0  0  0  0  0  0
   -2.5540    4.7893    0.8006 C   0  0  2  0  0  0  0  0  0  0  0  0
   -2.0586    5.9136    1.7006 C   0  0  0  0  0  0  0  0  0  0  0  0
   -1.2241    5.7447    2.5873 O   0  0  0  0  0  0  0  0  0  0  0  0
   -3.9005    4.2660    1.2756 C   0  0  0  0  0  0  0  0  0  0  0  0
   -0.5885    4.0020    0.9787 H   0  0  0  0  0  0  0  0  0  0  0  0
   -2.6322    5.1532   -0.2298 H   0  0  0  0  0  0  0  0  0  0  0  0
   -3.8418    3.8971    2.3061 H   0  0  0  0  0  0  0  0  0  0  0  0
   -4.6633    5.0512    1.2486 H   0  0  0  0  0  0  0  0  0  0  0  0
   -4.2413    3.4378    0.6450 H   0  0  0  0  0  0  0  0  0  0  0  0
   -2.6896    7.1187    1.4257 N   0  0  0  0  0  0  0  0  0  0  0  0
   -2.4017    8.3332    2.1525 C   0  0  0  0  0  0  0  0  0  0  0  0
   -3.3551    7.1711    0.6601 H   0  0  0  0  0  0  0  0  0  0  0  0
   -3.1019    8.4316    2.9951 H   0  0  0  0  0  0  0  0  0  0  0  0
   -1.3710    8.2958    2.5349 H   0  0  0  0  0  0  0  0  0  0  0  0
   -2.5125    9.1973    1.4809 H   0  0  0  0  0  0  0  0  0  0  0  0
  1  3  1  0  0  0  0
  1  7  1  0  0  0  0
  1  2  2  0  0  0  0
 37 38  1  0  0  0  0
 38 46  1  0  0  0  0
 38 39  2  0  0  0  0
  8  9  1  0  0  0  0
  9 17  1  0  0  0  0
  9 10  2  0  0  0  0
 18 19  1  0  0  0  0
 19 36  1  0  0  0  0
 19 20  2  0  0  0  0
 22 24  1  0  0  0  0
 37 40  1  0  0  0  0
  8 11  1  0  0  0  0
 21 23  1  0  0  0  0
 46 47  1  0  0  0  0
 21 22  1  0  0  0  0
 36 37  1  0  0  0  0
  7  8  1  0  0  0  0
 18 21  1  0  0  0  0
 17 18  1  0  0  0  0
  3  4  1  0  0  0  0
  3  5  1  0  0  0  0
  3  6  1  0  0  0  0
 24 33  1  0  0  0  0
 24 34  1  0  0  0  0
 24 35  1  0  0  0  0
 40 43  1  0  0  0  0
 40 44  1  0  0  0  0
 40 45  1  0  0  0  0
 11 14  1  0  0  0  0
 11 15  1  0  0  0  0
 11 16  1  0  0  0  0
 23 30  1  0  0  0  0
 23 31  1  0  0  0  0
 23 32  1  0  0  0  0
 47 49  1  0  0  0  0
 47 50  1  0  0  0  0
 47 51  1  0  0  0  0
 22 28  1  0  0  0  0
 22 29  1  0  0  0  0
 37 42  1  0  0  0  0
  8 13  1  0  0  0  0
 18 26  1  0  0  0  0
 21 27  1  0  0  0  0
 46 48  1  0  0  0  0
  7 12  1  0  0  0  0
 36 41  1  0  0  0  0
 17 25  1  0  0  0  0
M  END
$$$$

  -OEChem-05262214473D

 51 50  0     1  0  0  0  0  0999 V2000
    1.3524   -3.0009    1.4091 C   0  0  0  0  0  0  0  0  0  0  0  0
    1.8758   -1.9880    0.9598 O   0  0  0  0  0  0  0  0  0  0  0  0
    2.2030   -4.1782    1.7536 C   0  0  0  0  0  0  0  0  0  0  0  0
    2.3264   -4.8705    0.9053 H   0  0  0  0  0  0  0  0  0  0  0  0
    3.2257   -3.8876    2.0432 H   0  0  0  0  0  0  0  0  0  0  0  0
    1.8327   -4.8004    2.5839 H   0  0  0  0  0  0  0  0  0  0  0  0
    0.0005   -3.1873    1.6465 N   0  0  0  0  0  0  0  0  0  0  0  0
   -0.9949   -2.1807    1.3864 C   0  0  2  0  0  0  0  0  0  0  0  0
   -0.3083   -0.8216    1.4164 C   0  0  0  0  0  0  0  0  0  0  0  0
    0.7533   -0.6191    2.0022 O   0  0  0  0  0  0  0  0  0  0  0  0
   -2.1232   -2.2423    2.4042 C   0  0  0  0  0  0  0  0  0  0  0  0
   -0.3048   -4.0823    2.0245 H   0  0  0  0  0  0  0  0  0  0  0  0
   -1.3830   -2.3724    0.3801 H   0  0  0  0  0  0  0  0  0  0  0  0
   -1.7534   -2.0527    3.4185 H   0  0  0  0  0  0  0  0  0  0  0  0
   -2.8936   -1.4947    2.1882 H   0  0  0  0  0  0  0  0  0  0  0  0
   -2.5964   -3.2301    2.4022 H   0  0  0  0  0  0  0  0  0  0  0  0
   -1.0412    0.1517    0.7482 N   0  0  0  0  0  0  0  0  0  0  0  0
   -0.6079    1.5223    0.6467 C   0  0  2  0  0  0  0  0  0  0  0  0
   -1.8060    2.4237    0.9424 C   0  0  0  0  0  0  0  0  0  0  0  0
   -2.9150    1.9842    1.2396 O   0  0  0  0  0  0  0  0  0  0  0  0
    0.0563    1.8472   -0.7130 C   0  0  2  0  0  0  0  0  0  0  0  0
    1.3493    1.0332   -0.9412 C   0  0  0  0  0  0  0  0  0  0  0  0
    0.3094    3.3561   -0.8302 C   0  0  0  0  0  0  0  0  0  0  0  0
    1.8817    1.1263   -2.3655 C   0  0  0  0  0  0  0  0  0  0  0  0
   -1.9022   -0.1128    0.2753 H   0  0  0  0  0  0  0  0  0  0  0  0
    0.1182    1.6681    1.4567 H   0  0  0  0  0  0  0  0  0  0  0  0
   -0.6516    1.5781   -1.5083 H   0  0  0  0  0  0  0  0  0  0  0  0
    2.1352    1.3958   -0.2687 H   0  0  0  0  0  0  0  0  0  0  0  0
    1.1846   -0.0228   -0.6963 H   0  0  0  0  0  0  0  0  0  0  0  0
    1.0120    3.6939   -0.0609 H   0  0  0  0  0  0  0  0  0  0  0  0
    0.7496    3.6099   -1.7994 H   0  0  0  0  0  0  0  0  0  0  0  0
   -0.6173    3.9286   -0.7192 H   0  0  0  0  0  0  0  0  0  0  0  0
    1.1447    0.7782   -3.0947 H   0  0  0  0  0  0  0  0  0  0  0  0
    2.7726    0.4989   -2.4735 H   0  0  0  0  0  0  0  0  0  0  0  0
    2.1606    2.1548   -2.6148 H   0  0  0  0  0  0  0  0  0  0  0  0
   -1.4795    3.7702    0.8670 N   0  0  0  0  0  0  0  0  0  0  0  0
   -2.4269    4.8313    1.1222 C   0  0  2  0  0  0  0  0  0  0  0  0
   -1.6502    6.0496    1.6036 C   0  0  0  0  0  0  0  0  0  0  0  0
   -0.5318    5.9756    2.1084 O   0  0  0  0  0  0  0  0  0  0  0  0
   -3.4670    4.4095    2.1483 C   0  0  0  0  0  0  0  0  0  0  0  0
   -0.5272    4.0227    0.6201 H   0  0  0  0  0  0  0  0  0  0  0  0
   -2.9106    5.0601    0.1663 H   0  0  0  0  0  0  0  0  0  0  0  0
   -3.0012    4.1761    3.1127 H   0  0  0  0  0  0  0  0  0  0  0  0
   -4.2007    5.2041    2.3194 H   0  0  0  0  0  0  0  0  0  0  0  0
   -4.0043    3.5155    1.8138 H   0  0  0  0  0  0  0  0  0  0  0  0
   -2.3706    7.2249    1.4428 N   0  0  0  0  0  0  0  0  0  0  0  0
   -1.8548    8.5155    1.8355 C   0  0  0  0  0  0  0  0  0  0  0  0
   -3.2831    7.1947    0.9976 H   0  0  0  0  0  0  0  0  0  0  0  0
   -2.1733    8.7408    2.8639 H   0  0  0  0  0  0  0  0  0  0  0  0
   -0.7559    8.5013    1.7869 H   0  0  0  0  0  0  0  0  0  0  0  0
   -2.2419    9.2877    1.1544 H   0  0  0  0  0  0  0  0  0  0  0  0
  1  3  1  0  0  0  0
  1  7  1  0  0  0  0
  1  2  2  0  0  0  0
 37 38  1  0  0  0  0
 38 46  1  0  0  0  0
 38 39  2  0  0  0  0
  8  9  1  0  0  0  0
  9 17  1  0  0  0  0
  9 10  2  0  0  0  0
 18 19  1  0  0  0  0
 19 36  1  0  0  0  0
 19 20  2  0  0  0  0
 22 24  1  0  0  0  0
 37 40  1  0  0  0  0
  8 11  1  0  0  0  0
 21 23  1  0  0  0  0
 46 47  1  0  0  0  0
 21 22  1  0  0  0  0
 36 37  1  0  0  0  0
  7  8  1  0  0  0  0
 18 21  1  0  0  0  0
 17 18  1  0  0  0  0
  3  4  1  0  0  0  0
  3  5  1  0  0  0  0
  3  6  1  0  0  0  0
 24 33  1  0  0  0  0
 24 34  1  0  0  0  0
 24 35  1  0  0  0  0
 40 43  1  0  0  0  0
 40 44  1  0  0  0  0
 40 45  1  0  0  0  0
 11 14  1  0  0  0  0
 11 15  1  0  0  0  0
 11 16  1  0  0  0  0
 23 30  1  0  0  0  0
 23 31  1  0  0  0  0
 23 32  1  0  0  0  0
 47 49  1  0  0  0  0
 47 50  1  0  0  0  0
 47 51  1  0  0  0  0
 22 28  1  0  0  0  0
 22 29  1  0  0  0  0
 37 42  1  0  0  0  0
  8 13  1  0  0  0  0
 18 26  1  0  0  0  0
 21 27  1  0  0  0  0
 46 48  1  0  0  0  0
  7 12  1  0  0  0  0
 36 41  1  0  0  0  0
 17 25  1  0  0  0  0
M  END
$$$$

  -OEChem-05262214473D

 51 50  0     1  0  0  0  0  0999 V2000
    1.3524   -3.0009    1.4091 C   0  0  0  0  0  0  0  0  0  0  0  0
    1.8758   -1.9880    0.9598 O   0  0  0  0  0  0  0  0  0  0  0  0
    2.2030   -4.1782    1.7536 C   0  0  0  0  0  0  0  0  0  0  0  0
    2.3264   -4.8705    0.9053 H   0  0  0  0  0  0  0  0  0  0  0  0
    3.2257   -3.8876    2.0432 H   0  0  0  0  0  0  0  0  0  0  0  0
    1.8327   -4.8004    2.5839 H   0  0  0  0  0  0  0  0  0  0  0  0
    0.0005   -3.1873    1.6465 N   0  0  0  0  0  0  0  0  0  0  0  0
   -0.9949   -2.1807    1.3864 C   0  0  2  0  0  0  0  0  0  0  0  0
   -0.3083   -0.8216    1.4164 C   0  0  0  0  0  0  0  0  0  0  0  0
    0.7533   -0.6191    2.0022 O   0  0  0  0  0  0  0  0  0  0  0  0
   -2.1232   -2.2423    2.4042 C   0  0  0  0  0  0  0  0  0  0  0  0
   -0.3048   -4.0823    2.0245 H   0  0  0  0  0  0  0  0  0  0  0  0
   -1.3830   -2.3724    0.3801 H   0  0  0  0  0  0  0  0  0  0  0  0
   -1.7534   -2.0527    3.4185 H   0  0  0  0  0  0  0  0  0  0  0  0
   -2.8936   -1.4947    2.1882 H   0  0  0  0  0  0  0  0  0  0  0  0
   -2.5964   -3.2301    2.4022 H   0  0  0  0  0  0  0  0  0  0  0  0
   -1.0412    0.1517    0.7482 N   0  0  0  0  0  0  0  0  0  0  0  0
   -0.6079    1.5223    0.6467 C   0  0  2  0  0  0  0  0  0  0  0  0
   -1.8060    2.4237    0.9424 C   0  0  0  0  0  0  0  0  0  0  0  0
   -2.8277    2.0173    1.4923 O   0  0  0  0  0  0  0  0  0  0  0  0
    0.0563    1.8472   -0.7130 C   0  0  2  0  0  0  0  0  0  0  0  0
    1.3493    1.0332   -0.9412 C   0  0  0  0  0  0  0  0  0  0  0  0
    0.3094    3.3561   -0.8302 C   0  0  0  0  0  0  0  0  0  0  0  0
    1.8817    1.1263   -2.3655 C   0  0  0  0  0  0  0  0  0  0  0  0
   -1.9022   -0.1128    0.2753 H   0  0  0  0  0  0  0  0  0  0  0  0
    0.1182    1.6681    1.4567 H   0  0  0  0  0  0  0  0  0  0  0  0
   -0.6516    1.5781   -1.5083 H   0  0  0  0  0  0  0  0  0  0  0  0
    2.1352    1.3958   -0.2687 H   0  0  0  0  0  0  0  0  0  0  0  0
    1.1846   -0.0228   -0.6963 H   0  0  0  0  0  0  0  0  0  0  0  0
    1.0120    3.6939   -0.0609 H   0  0  0  0  0  0  0  0  0  0  0  0
    0.7496    3.6099   -1.7994 H   0  0  0  0  0  0  0  0  0  0  0  0
   -0.6173    3.9286   -0.7192 H   0  0  0  0  0  0  0  0  0  0  0  0
    1.1447    0.7782   -3.0947 H   0  0  0  0  0  0  0  0  0  0  0  0
    2.7726    0.4989   -2.4735 H   0  0  0  0  0  0  0  0  0  0  0  0
    2.1606    2.1548   -2.6148 H   0  0  0  0  0  0  0  0  0  0  0  0
   -1.5836    3.7359    0.5499 N   0  0  0  0  0  0  0  0  0  0  0  0
   -2.5508    4.7937    0.7351 C   0  0  2  0  0  0  0  0  0  0  0  0
   -1.7934    6.1112    0.8357 C   0  0  0  0  0  0  0  0  0  0  0  0
   -0.6104    6.1816    1.1621 O   0  0  0  0  0  0  0  0  0  0  0  0
   -3.3981    4.5577    1.9757 C   0  0  0  0  0  0  0  0  0  0  0  0
   -0.6968    3.9644    0.1106 H   0  0  0  0  0  0  0  0  0  0  0  0
   -3.1841    4.8031   -0.1587 H   0  0  0  0  0  0  0  0  0  0  0  0
   -2.7807    4.5450    2.8814 H   0  0  0  0  0  0  0  0  0  0  0  0
   -4.1492    5.3449    2.0988 H   0  0  0  0  0  0  0  0  0  0  0  0
   -3.9188    3.5960    1.9149 H   0  0  0  0  0  0  0  0  0  0  0  0
   -2.6055    7.2023    0.5599 N   0  0  0  0  0  0  0  0  0  0  0  0
   -2.1234    8.5632    0.6014 C   0  0  0  0  0  0  0  0  0  0  0  0
   -3.5696    7.0494    0.2793 H   0  0  0  0  0  0  0  0  0  0  0  0
   -2.3009    8.9852    1.6016 H   0  0  0  0  0  0  0  0  0  0  0  0
   -1.0452    8.5769    0.3839 H   0  0  0  0  0  0  0  0  0  0  0  0
   -2.6568    9.1640   -0.1499 H   0  0  0  0  0  0  0  0  0  0  0  0
  1  3  1  0  0  0  0
  1  7  1  0  0  0  0
  1  2  2  0  0  0  0
 37 38  1  0  0  0  0
 38 46  1  0  0  0  0
 38 39  2  0  0  0  0
  8  9  1  0  0  0  0
  9 17  1  0  0  0  0
  9 10  2  0  0  0  0
 18 19  1  0  0  0  0
 19 36  1  0  0  0  0
 19 20  2  0  0  0  0
 22 24  1  0  0  0  0
 37 40  1  0  0  0  0
  8 11  1  0  0  0  0
 21 23  1  0  0  0  0
 46 47  1  0  0  0  0
 21 22  1  0  0  0  0
 36 37  1  0  0  0  0
  7  8  1  0  0  0  0
 18 21  1  0  0  0  0
 17 18  1  0  0  0  0
  3  4  1  0  0  0  0
  3  5  1  0  0  0  0
  3  6  1  0  0  0  0
 24 33  1  0  0  0  0
 24 34  1  0  0  0  0
 24 35  1  0  0  0  0
 40 43  1  0  0  0  0
 40 44  1  0  0  0  0
 40 45  1  0  0  0  0
 11 14  1  0  0  0  0
 11 15  1  0  0  0  0
 11 16  1  0  0  0  0
 23 30  1  0  0  0  0
 23 31  1  0  0  0  0
 23 32  1  0  0  0  0
 47 49  1  0  0  0  0
 47 50  1  0  0  0  0
 47 51  1  0  0  0  0
 22 28  1  0  0  0  0
 22 29  1  0  0  0  0
 37 42  1  0  0  0  0
  8 13  1  0  0  0  0
 18 26  1  0  0  0  0
 21 27  1  0  0  0  0
 46 48  1  0  0  0  0
  7 12  1  0  0  0  0
 36 41  1  0  0  0  0
 17 25  1  0  0  0  0
M  END
$$$$

  -OEChem-05262214473D

 51 50  0     1  0  0  0  0  0999 V2000
    1.3524   -3.0009    1.4091 C   0  0  0  0  0  0  0  0  0  0  0  0
    1.8758   -1.9880    0.9598 O   0  0  0  0  0  0  0  0  0  0  0  0
    2.2030   -4.1782    1.7536 C   0  0  0  0  0  0  0  0  0  0  0  0
    2.3264   -4.8705    0.9053 H   0  0  0  0  0  0  0  0  0  0  0  0
    3.2257   -3.8876    2.0432 H   0  0  0  0  0  0  0  0  0  0  0  0
    1.8327   -4.8004    2.5839 H   0  0  0  0  0  0  0  0  0  0  0  0
    0.0005   -3.1873    1.6465 N   0  0  0  0  0  0  0  0  0  0  0  0
   -0.9949   -2.1807    1.3864 C   0  0  2  0  0  0  0  0  0  0  0  0
   -0.3083   -0.8216    1.4164 C   0  0  0  0  0  0  0  0  0  0  0  0
    0.7533   -0.6191    2.0022 O   0  0  0  0  0  0  0  0  0  0  0  0
   -2.1232   -2.2423    2.4042 C   0  0  0  0  0  0  0  0  0  0  0  0
   -0.3048   -4.0823    2.0245 H   0  0  0  0  0  0  0  0  0  0  0  0
   -1.3830   -2.3724    0.3801 H   0  0  0  0  0  0  0  0  0  0  0  0
   -1.7534   -2.0527    3.4185 H   0  0  0  0  0  0  0  0  0  0  0  0
   -2.8936   -1.4947    2.1882 H   0  0  0  0  0  0  0  0  0  0  0  0
   -2.5964   -3.2301    2.4022 H   0  0  0  0  0  0  0  0  0  0  0  0
   -1.0412    0.1517    0.7482 N   0  0  0  0  0  0  0  0  0  0  0  0
   -0.6079    1.5223    0.6467 C   0  0  2  0  0  0  0  0  0  0  0  0
   -1.8060    2.4237    0.9424 C   0  0  0  0  0  0  0  0  0  0  0  0
   -2.7064    2.1050    1.7164 O   0  0  0  0  0  0  0  0  0  0  0  0
    0.0563    1.8472   -0.7130 C   0  0  2  0  0  0  0  0  0  0  0  0
    1.3493    1.0332   -0.9412 C   0  0  0  0  0  0  0  0  0  0  0  0
    0.3094    3.3561   -0.8302 C   0  0  0  0  0  0  0  0  0  0  0  0
    1.8817    1.1263   -2.3655 C   0  0  0  0  0  0  0  0  0  0  0  0
   -1.9022   -0.1128    0.2753 H   0  0  0  0  0  0  0  0  0  0  0  0
    0.1182    1.6681    1.4567 H   0  0  0  0  0  0  0  0  0  0  0  0
   -0.6516    1.5781   -1.5083 H   0  0  0  0  0  0  0  0  0  0  0  0
    2.1352    1.3958   -0.2687 H   0  0  0  0  0  0  0  0  0  0  0  0
    1.1846   -0.0228   -0.6963 H   0  0  0  0  0  0  0  0  0  0  0  0
    1.0120    3.6939   -0.0609 H   0  0  0  0  0  0  0  0  0  0  0  0
    0.7496    3.6099   -1.7994 H   0  0  0  0  0  0  0  0  0  0  0  0
   -0.6173    3.9286   -0.7192 H   0  0  0  0  0  0  0  0  0  0  0  0
    1.1447    0.7782   -3.0947 H   0  0  0  0  0  0  0  0  0  0  0  0
    2.7726    0.4989   -2.4735 H   0  0  0  0  0  0  0  0  0  0  0  0
    2.1606    2.1548   -2.6148 H   0  0  0  0  0  0  0  0  0  0  0  0
   -1.7308    3.6332    0.2665 N   0  0  0  0  0  0  0  0  0  0  0  0
   -2.7276    4.6726    0.3878 C   0  0  2  0  0  0  0  0  0  0  0  0
   -2.0520    6.0076    0.1033 C   0  0  0  0  0  0  0  0  0  0  0  0
   -0.8410    6.1845    0.2183 O   0  0  0  0  0  0  0  0  0  0  0  0
   -3.3652    4.6694    1.7684 C   0  0  0  0  0  0  0  0  0  0  0  0
   -0.9355    3.7963   -0.3439 H   0  0  0  0  0  0  0  0  0  0  0  0
   -3.4850    4.4753   -0.3786 H   0  0  0  0  0  0  0  0  0  0  0  0
   -2.6216    4.8654    2.5494 H   0  0  0  0  0  0  0  0  0  0  0  0
   -4.1402    5.4387    1.8493 H   0  0  0  0  0  0  0  0  0  0  0  0
   -3.8248    3.6985    1.9831 H   0  0  0  0  0  0  0  0  0  0  0  0
   -2.9660    6.9896   -0.2524 N   0  0  0  0  0  0  0  0  0  0  0  0
   -2.5737    8.3454   -0.5592 C   0  0  0  0  0  0  0  0  0  0  0  0
   -3.9488    6.7490   -0.3412 H   0  0  0  0  0  0  0  0  0  0  0  0
   -2.6292    8.9588    0.3522 H   0  0  0  0  0  0  0  0  0  0  0  0
   -1.5427    8.3508   -0.9425 H   0  0  0  0  0  0  0  0  0  0  0  0
   -3.2504    8.7592   -1.3213 H   0  0  0  0  0  0  0  0  0  0  0  0
  1  3  1  0  0  0  0
  1  7  1  0  0  0  0
  1  2  2  0  0  0  0
 37 38  1  0  0  0  0
 38 46  1  0  0  0  0
 38 39  2  0  0  0  0
  8  9  1  0  0  0  0
  9 17  1  0  0  0  0
  9 10  2  0  0  0  0
 18 19  1  0  0  0  0
 19 36  1  0  0  0  0
 19 20  2  0  0  0  0
 22 24  1  0  0  0  0
 37 40  1  0  0  0  0
  8 11  1  0  0  0  0
 21 23  1  0  0  0  0
 46 47  1  0  0  0  0
 21 22  1  0  0  0  0
 36 37  1  0  0  0  0
  7  8  1  0  0  0  0
 18 21  1  0  0  0  0
 17 18  1  0  0  0  0
  3  4  1  0  0  0  0
  3  5  1  0  0  0  0
  3  6  1  0  0  0  0
 24 33  1  0  0  0  0
 24 34  1  0  0  0  0
 24 35  1  0  0  0  0
 40 43  1  0  0  0  0
 40 44  1  0  0  0  0
 40 45  1  0  0  0  0
 11 14  1  0  0  0  0
 11 15  1  0  0  0  0
 11 16  1  0  0  0  0
 23 30  1  0  0  0  0
 23 31  1  0  0  0  0
 23 32  1  0  0  0  0
 47 49  1  0  0  0  0
 47 50  1  0  0  0  0
 47 51  1  0  0  0  0
 22 28  1  0  0  0  0
 22 29  1  0  0  0  0
 37 42  1  0  0  0  0
  8 13  1  0  0  0  0
 18 26  1  0  0  0  0
 21 27  1  0  0  0  0
 46 48  1  0  0  0  0
  7 12  1  0  0  0  0
 36 41  1  0  0  0  0
 17 25  1  0  0  0  0
M  END
$$$$

  -OEChem-05262214473D

 51 50  0     1  0  0  0  0  0999 V2000
    1.3524   -3.0009    1.4091 C   0  0  0  0  0  0  0  0  0  0  0  0
    1.8758   -1.9880    0.9598 O   0  0  0  0  0  0  0  0  0  0  0  0
    2.2030   -4.1782    1.7536 C   0  0  0  0  0  0  0  0  0  0  0  0
    2.3264   -4.8705    0.9053 H   0  0  0  0  0  0  0  0  0  0  0  0
    3.2257   -3.8876    2.0432 H   0  0  0  0  0  0  0  0  0  0  0  0
    1.8327   -4.8004    2.5839 H   0  0  0  0  0  0  0  0  0  0  0  0
    0.0005   -3.1873    1.6465 N   0  0  0  0  0  0  0  0  0  0  0  0
   -0.9949   -2.1807    1.3864 C   0  0  2  0  0  0  0  0  0  0  0  0
   -0.3083   -0.8216    1.4164 C   0  0  0  0  0  0  0  0  0  0  0  0
    0.7533   -0.6191    2.0022 O   0  0  0  0  0  0  0  0  0  0  0  0
   -2.1232   -2.2423    2.4042 C   0  0  0  0  0  0  0  0  0  0  0  0
   -0.3048   -4.0823    2.0245 H   0  0  0  0  0  0  0  0  0  0  0  0
   -1.3830   -2.3724    0.3801 H   0  0  0  0  0  0  0  0  0  0  0  0
   -1.7534   -2.0527    3.4185 H   0  0  0  0  0  0  0  0  0  0  0  0
   -2.8936   -1.4947    2.1882 H   0  0  0  0  0  0  0  0  0  0  0  0
   -2.5964   -3.2301    2.4022 H   0  0  0  0  0  0  0  0  0  0  0  0
   -1.0412    0.1517    0.7482 N   0  0  0  0  0  0  0  0  0  0  0  0
   -0.6079    1.5223    0.6467 C   0  0  2  0  0  0  0  0  0  0  0  0
   -1.8060    2.4237    0.9424 C   0  0  0  0  0  0  0  0  0  0  0  0
   -2.5594    2.2413    1.8966 O   0  0  0  0  0  0  0  0  0  0  0  0
    0.0563    1.8472   -0.7130 C   0  0  2  0  0  0  0  0  0  0  0  0
    1.3493    1.0332   -0.9412 C   0  0  0  0  0  0  0  0  0  0  0  0
    0.3094    3.3561   -0.8302 C   0  0  0  0  0  0  0  0  0  0  0  0
    1.8817    1.1263   -2.3655 C   0  0  0  0  0  0  0  0  0  0  0  0
   -1.9022   -0.1128    0.2753 H   0  0  0  0  0  0  0  0  0  0  0  0
    0.1182    1.6681    1.4567 H   0  0  0  0  0  0  0  0  0  0  0  0
   -0.6516    1.5781   -1.5083 H   0  0  0  0  0  0  0  0  0  0  0  0
    2.1352    1.3958   -0.2687 H   0  0  0  0  0  0  0  0  0  0  0  0
    1.1846   -0.0228   -0.6963 H   0  0  0  0  0  0  0  0  0  0  0  0
    1.0120    3.6939   -0.0609 H   0  0  0  0  0  0  0  0  0  0  0  0
    0.7496    3.6099   -1.7994 H   0  0  0  0  0  0  0  0  0  0  0  0
   -0.6173    3.9286   -0.7192 H   0  0  0  0  0  0  0  0  0  0  0  0
    1.1447    0.7782   -3.0947 H   0  0  0  0  0  0  0  0  0  0  0  0
    2.7726    0.4989   -2.4735 H   0  0  0  0  0  0  0  0  0  0  0  0
    2.1606    2.1548   -2.6148 H   0  0  0  0  0  0  0  0  0  0  0  0
   -1.9111    3.4692    0.0361 N   0  0  0  0  0  0  0  0  0  0  0  0
   -2.9453    4.4763    0.1038 C   0  0  2  0  0  0  0  0  0  0  0  0
   -2.4085    5.7460   -0.5437 C   0  0  0  0  0  0  0  0  0  0  0  0
   -1.2081    5.9843   -0.6588 O   0  0  0  0  0  0  0  0  0  0  0  0
   -3.3708    4.7368    1.5404 C   0  0  0  0  0  0  0  0  0  0  0  0
   -1.2270    3.5296   -0.7122 H   0  0  0  0  0  0  0  0  0  0  0  0
   -3.7929    4.0989   -0.4786 H   0  0  0  0  0  0  0  0  0  0  0  0
   -2.5346    5.1155    2.1395 H   0  0  0  0  0  0  0  0  0  0  0  0
   -4.1743    5.4792    1.5879 H   0  0  0  0  0  0  0  0  0  0  0  0
   -3.7287    3.8162    2.0139 H   0  0  0  0  0  0  0  0  0  0  0  0
   -3.4275    6.6013   -0.9389 N   0  0  0  0  0  0  0  0  0  0  0  0
   -3.1749    7.8769   -1.5673 C   0  0  0  0  0  0  0  0  0  0  0  0
   -4.3947    6.3139   -0.8218 H   0  0  0  0  0  0  0  0  0  0  0  0
   -3.1356    8.6633   -0.7992 H   0  0  0  0  0  0  0  0  0  0  0  0
   -2.2143    7.8383   -2.1019 H   0  0  0  0  0  0  0  0  0  0  0  0
   -3.9824    8.1007   -2.2800 H   0  0  0  0  0  0  0  0  0  0  0  0
  1  3  1  0  0  0  0
  1  7  1  0  0  0  0
  1  2  2  0  0  0  0
 37 38  1  0  0  0  0
 38 46  1  0  0  0  0
 38 39  2  0  0  0  0
  8  9  1  0  0  0  0
  9 17  1  0  0  0  0
  9 10  2  0  0  0  0
 18 19  1  0  0  0  0
 19 36  1  0  0  0  0
 19 20  2  0  0  0  0
 22 24  1  0  0  0  0
 37 40  1  0  0  0  0
  8 11  1  0  0  0  0
 21 23  1  0  0  0  0
 46 47  1  0  0  0  0
 21 22  1  0  0  0  0
 36 37  1  0  0  0  0
  7  8  1  0  0  0  0
 18 21  1  0  0  0  0
 17 18  1  0  0  0  0
  3  4  1  0  0  0  0
  3  5  1  0  0  0  0
  3  6  1  0  0  0  0
 24 33  1  0  0  0  0
 24 34  1  0  0  0  0
 24 35  1  0  0  0  0
 40 43  1  0  0  0  0
 40 44  1  0  0  0  0
 40 45  1  0  0  0  0
 11 14  1  0  0  0  0
 11 15  1  0  0  0  0
 11 16  1  0  0  0  0
 23 30  1  0  0  0  0
 23 31  1  0  0  0  0
 23 32  1  0  0  0  0
 47 49  1  0  0  0  0
 47 50  1  0  0  0  0
 47 51  1  0  0  0  0
 22 28  1  0  0  0  0
 22 29  1  0  0  0  0
 37 42  1  0  0  0  0
  8 13  1  0  0  0  0
 18 26  1  0  0  0  0
 21 27  1  0  0  0  0
 46 48  1  0  0  0  0
  7 12  1  0  0  0  0
 36 41  1  0  0  0  0
 17 25  1  0  0  0  0
M  END
$$$$

  -OEChem-05262214473D

 51 50  0     1  0  0  0  0  0999 V2000
    1.3524   -3.0009    1.4091 C   0  0  0  0  0  0  0  0  0  0  0  0
    1.8758   -1.9880    0.9598 O   0  0  0  0  0  0  0  0  0  0  0  0
    2.2030   -4.1782    1.7536 C   0  0  0  0  0  0  0  0  0  0  0  0
    2.3264   -4.8705    0.9053 H   0  0  0  0  0  0  0  0  0  0  0  0
    3.2257   -3.8876    2.0432 H   0  0  0  0  0  0  0  0  0  0  0  0
    1.8327   -4.8004    2.5839 H   0  0  0  0  0  0  0  0  0  0  0  0
    0.0005   -3.1873    1.6465 N   0  0  0  0  0  0  0  0  0  0  0  0
   -0.9949   -2.1807    1.3864 C   0  0  2  0  0  0  0  0  0  0  0  0
   -0.3083   -0.8216    1.4164 C   0  0  0  0  0  0  0  0  0  0  0  0
    0.7533   -0.6191    2.0022 O   0  0  0  0  0  0  0  0  0  0  0  0
   -2.1232   -2.2423    2.4042 C   0  0  0  0  0  0  0  0  0  0  0  0
   -0.3048   -4.0823    2.0245 H   0  0  0  0  0  0  0  0  0  0  0  0
   -1.3830   -2.3724    0.3801 H   0  0  0  0  0  0  0  0  0  0  0  0
   -1.7534   -2.0527    3.4185 H   0  0  0  0  0  0  0  0  0  0  0  0
   -2.8936   -1.4947    2.1882 H   0  0  0  0  0  0  0  0  0  0  0  0
   -2.5964   -3.2301    2.4022 H   0  0  0  0  0  0  0  0  0  0  0  0
   -1.0412    0.1517    0.7482 N   0  0  0  0  0  0  0  0  0  0  0  0
   -0.6079    1.5223    0.6467 C   0  0  2  0  0  0  0  0  0  0  0  0
   -1.8060    2.4237    0.9424 C   0  0  0  0  0  0  0  0  0  0  0  0
   -2.3968    2.4168    2.0205 O   0  0  0  0  0  0  0  0  0  0  0  0
    0.0563    1.8472   -0.7130 C   0  0  2  0  0  0  0  0  0  0  0  0
    1.3493    1.0332   -0.9412 C   0  0  0  0  0  0  0  0  0  0  0  0
    0.3094    3.3561   -0.8302 C   0  0  0  0  0  0  0  0  0  0  0  0
    1.8817    1.1263   -2.3655 C   0  0  0  0  0  0  0  0  0  0  0  0
   -1.9022   -0.1128    0.2753 H   0  0  0  0  0  0  0  0  0  0  0  0
    0.1182    1.6681    1.4567 H   0  0  0  0  0  0  0  0  0  0  0  0
   -0.6516    1.5781   -1.5083 H   0  0  0  0  0  0  0  0  0  0  0  0
    2.1352    1.3958   -0.2687 H   0  0  0  0  0  0  0  0  0  0  0  0
    1.1846   -0.0228   -0.6963 H   0  0  0  0  0  0  0  0  0  0  0  0
    1.0120    3.6939   -0.0609 H   0  0  0  0  0  0  0  0  0  0  0  0
    0.7496    3.6099   -1.7994 H   0  0  0  0  0  0  0  0  0  0  0  0
   -0.6173    3.9286   -0.7192 H   0  0  0  0  0  0  0  0  0  0  0  0
    1.1447    0.7782   -3.0947 H   0  0  0  0  0  0  0  0  0  0  0  0
    2.7726    0.4989   -2.4735 H   0  0  0  0  0  0  0  0  0  0  0  0
    2.1606    2.1548   -2.6148 H   0  0  0  0  0  0  0  0  0  0  0  0
   -2.1122    3.2549   -0.1257 N   0  0  0  0  0  0  0  0  0  0  0  0
   -3.1892    4.2182   -0.0974 C   0  0  2  0  0  0  0  0  0  0  0  0
   -2.8385    5.3442   -1.0610 C   0  0  0  0  0  0  0  0  0  0  0  0
   -1.6865    5.5946   -1.4093 O   0  0  0  0  0  0  0  0  0  0  0  0
   -3.4143    4.7553    1.3074 C   0  0  0  0  0  0  0  0  0  0  0  0
   -1.5514    3.1827   -0.9695 H   0  0  0  0  0  0  0  0  0  0  0  0
   -4.0867    3.6996   -0.4518 H   0  0  0  0  0  0  0  0  0  0  0  0
   -2.5257    5.2782    1.6795 H   0  0  0  0  0  0  0  0  0  0  0  0
   -4.2491    5.4635    1.3324 H   0  0  0  0  0  0  0  0  0  0  0  0
   -3.6371    3.9408    2.0051 H   0  0  0  0  0  0  0  0  0  0  0  0
   -3.9587    6.0637   -1.4527 N   0  0  0  0  0  0  0  0  0  0  0  0
   -3.8861    7.1897   -2.3543 C   0  0  0  0  0  0  0  0  0  0  0  0
   -4.8770    5.7738   -1.1296 H   0  0  0  0  0  0  0  0  0  0  0  0
   -3.7858    8.1188   -1.7741 H   0  0  0  0  0  0  0  0  0  0  0  0
   -3.0144    7.0744   -3.0153 H   0  0  0  0  0  0  0  0  0  0  0  0
   -4.8028    7.2335   -2.9607 H   0  0  0  0  0  0  0  0  0  0  0  0
  1  3  1  0  0  0  0
  1  7  1  0  0  0  0
  1  2  2  0  0  0  0
 37 38  1  0  0  0  0
 38 46  1  0  0  0  0
 38 39  2  0  0  0  0
  8  9  1  0  0  0  0
  9 17  1  0  0  0  0
  9 10  2  0  0  0  0
 18 19  1  0  0  0  0
 19 36  1  0  0  0  0
 19 20  2  0  0  0  0
 22 24  1  0  0  0  0
 37 40  1  0  0  0  0
  8 11  1  0  0  0  0
 21 23  1  0  0  0  0
 46 47  1  0  0  0  0
 21 22  1  0  0  0  0
 36 37  1  0  0  0  0
  7  8  1  0  0  0  0
 18 21  1  0  0  0  0
 17 18  1  0  0  0  0
  3  4  1  0  0  0  0
  3  5  1  0  0  0  0
  3  6  1  0  0  0  0
 24 33  1  0  0  0  0
 24 34  1  0  0  0  0
 24 35  1  0  0  0  0
 40 43  1  0  0  0  0
 40 44  1  0  0  0  0
 40 45  1  0  0  0  0
 11 14  1  0  0  0  0
 11 15  1  0  0  0  0
 11 16  1  0  0  0  0
 23 30  1  0  0  0  0
 23 31  1  0  0  0  0
 23 32  1  0  0  0  0
 47 49  1  0  0  0  0
 47 50  1  0  0  0  0
 47 51  1  0  0  0  0
 22 28  1  0  0  0  0
 22 29  1  0  0  0  0
 37 42  1  0  0  0  0
  8 13  1  0  0  0  0
 18 26  1  0  0  0  0
 21 27  1  0  0  0  0
 46 48  1  0  0  0  0
  7 12  1  0  0  0  0
 36 41  1  0  0  0  0
 17 25  1  0  0  0  0
M  END
$$$$

  -OEChem-05262214473D

 51 50  0     1  0  0  0  0  0999 V2000
    1.3524   -3.0009    1.4091 C   0  0  0  0  0  0  0  0  0  0  0  0
    1.8758   -1.9880    0.9598 O   0  0  0  0  0  0  0  0  0  0  0  0
    2.2030   -4.1782    1.7536 C   0  0  0  0  0  0  0  0  0  0  0  0
    2.3264   -4.8705    0.9053 H   0  0  0  0  0  0  0  0  0  0  0  0
    3.2257   -3.8876    2.0432 H   0  0  0  0  0  0  0  0  0  0  0  0
    1.8327   -4.8004    2.5839 H   0  0  0  0  0  0  0  0  0  0  0  0
    0.0005   -3.1873    1.6465 N   0  0  0  0  0  0  0  0  0  0  0  0
   -0.9949   -2.1807    1.3864 C   0  0  2  0  0  0  0  0  0  0  0  0
   -0.3083   -0.8216    1.4164 C   0  0  0  0  0  0  0  0  0  0  0  0
    0.7533   -0.6191    2.0022 O   0  0  0  0  0  0  0  0  0  0  0  0
   -2.1232   -2.2423    2.4042 C   0  0  0  0  0  0  0  0  0  0  0  0
   -0.3048   -4.0823    2.0245 H   0  0  0  0  0  0  0  0  0  0  0  0
   -1.3830   -2.3724    0.3801 H   0  0  0  0  0  0  0  0  0  0  0  0
   -1.7534   -2.0527    3.4185 H   0  0  0  0  0  0  0  0  0  0  0  0
   -2.8936   -1.4947    2.1882 H   0  0  0  0  0  0  0  0  0  0  0  0
   -2.5964   -3.2301    2.4022 H   0  0  0  0  0  0  0  0  0  0  0  0
   -1.0412    0.1517    0.7482 N   0  0  0  0  0  0  0  0  0  0  0  0
   -0.6079    1.5223    0.6467 C   0  0  2  0  0  0  0  0  0  0  0  0
   -1.8060    2.4237    0.9424 C   0  0  0  0  0  0  0  0  0  0  0  0
   -2.2296    2.6197    2.0797 O   0  0  0  0  0  0  0  0  0  0  0  0
    0.0563    1.8472   -0.7130 C   0  0  2  0  0  0  0  0  0  0  0  0
    1.3493    1.0332   -0.9412 C   0  0  0  0  0  0  0  0  0  0  0  0
    0.3094    3.3561   -0.8302 C   0  0  0  0  0  0  0  0  0  0  0  0
    1.8817    1.1263   -2.3655 C   0  0  0  0  0  0  0  0  0  0  0  0
   -1.9022   -0.1128    0.2753 H   0  0  0  0  0  0  0  0  0  0  0  0
    0.1182    1.6681    1.4567 H   0  0  0  0  0  0  0  0  0  0  0  0
   -0.6516    1.5781   -1.5083 H   0  0  0  0  0  0  0  0  0  0  0  0
    2.1352    1.3958   -0.2687 H   0  0  0  0  0  0  0  0  0  0  0  0
    1.1846   -0.0228   -0.6963 H   0  0  0  0  0  0  0  0  0  0  0  0
    1.0120    3.6939   -0.0609 H   0  0  0  0  0  0  0  0  0  0  0  0
    0.7496    3.6099   -1.7994 H   0  0  0  0  0  0  0  0  0  0  0  0
   -0.6173    3.9286   -0.7192 H   0  0  0  0  0  0  0  0  0  0  0  0
    1.1447    0.7782   -3.0947 H   0  0  0  0  0  0  0  0  0  0  0  0
    2.7726    0.4989   -2.4735 H   0  0  0  0  0  0  0  0  0  0  0  0
    2.1606    2.1548   -2.6148 H   0  0  0  0  0  0  0  0  0  0  0  0
   -2.3204    3.0050   -0.2078 N   0  0  0  0  0  0  0  0  0  0  0  0
   -3.4425    3.9158   -0.2021 C   0  0  2  0  0  0  0  0  0  0  0  0
   -3.3127    4.8295   -1.4136 C   0  0  0  0  0  0  0  0  0  0  0  0
   -2.2437    5.0419   -1.9821 O   0  0  0  0  0  0  0  0  0  0  0  0
   -3.4928    4.7238    1.0852 C   0  0  0  0  0  0  0  0  0  0  0  0
   -1.8867    2.7792   -1.0980 H   0  0  0  0  0  0  0  0  0  0  0  0
   -4.3464    3.3047   -0.3001 H   0  0  0  0  0  0  0  0  0  0  0  0
   -2.5954    5.3425    1.2008 H   0  0  0  0  0  0  0  0  0  0  0  0
   -4.3596    5.3928    1.1001 H   0  0  0  0  0  0  0  0  0  0  0  0
   -3.5562    4.0641    1.9573 H   0  0  0  0  0  0  0  0  0  0  0  0
   -4.5234    5.4137   -1.7589 N   0  0  0  0  0  0  0  0  0  0  0  0
   -4.6588    6.3307   -2.8664 C   0  0  0  0  0  0  0  0  0  0  0  0
   -5.3628    5.1655   -1.2437 H   0  0  0  0  0  0  0  0  0  0  0  0
   -4.5354    7.3626   -2.5060 H   0  0  0  0  0  0  0  0  0  0  0  0
   -3.8885    6.1112   -3.6204 H   0  0  0  0  0  0  0  0  0  0  0  0
   -5.6558    6.2166   -3.3170 H   0  0  0  0  0  0  0  0  0  0  0  0
  1  3  1  0  0  0  0
  1  7  1  0  0  0  0
  1  2  2  0  0  0  0
 37 38  1  0  0  0  0
 38 46  1  0  0  0  0
 38 39  2  0  0  0  0
  8  9  1  0  0  0  0
  9 17  1  0  0  0  0
  9 10  2  0  0  0  0
 18 19  1  0  0  0  0
 19 36  1  0  0  0  0
 19 20  2  0  0  0  0
 22 24  1  0  0  0  0
 37 40  1  0  0  0  0
  8 11  1  0  0  0  0
 21 23  1  0  0  0  0
 46 47  1  0  0  0  0
 21 22  1  0  0  0  0
 36 37  1  0  0  0  0
  7  8  1  0  0  0  0
 18 21  1  0  0  0  0
 17 18  1  0  0  0  0
  3  4  1  0  0  0  0
  3  5  1  0  0  0  0
  3  6  1  0  0  0  0
 24 33  1  0  0  0  0
 24 34  1  0  0  0  0
 24 35  1  0  0  0  0
 40 43  1  0  0  0  0
 40 44  1  0  0  0  0
 40 45  1  0  0  0  0
 11 14  1  0  0  0  0
 11 15  1  0  0  0  0
 11 16  1  0  0  0  0
 23 30  1  0  0  0  0
 23 31  1  0  0  0  0
 23 32  1  0  0  0  0
 47 49  1  0  0  0  0
 47 50  1  0  0  0  0
 47 51  1  0  0  0  0
 22 28  1  0  0  0  0
 22 29  1  0  0  0  0
 37 42  1  0  0  0  0
  8 13  1  0  0  0  0
 18 26  1  0  0  0  0
 21 27  1  0  0  0  0
 46 48  1  0  0  0  0
  7 12  1  0  0  0  0
 36 41  1  0  0  0  0
 17 25  1  0  0  0  0
M  END
$$$$

  -OEChem-05262214473D

 51 50  0     1  0  0  0  0  0999 V2000
    1.3524   -3.0009    1.4091 C   0  0  0  0  0  0  0  0  0  0  0  0
    1.8758   -1.9880    0.9598 O   0  0  0  0  0  0  0  0  0  0  0  0
    2.2030   -4.1782    1.7536 C   0  0  0  0  0  0  0  0  0  0  0  0
    2.3264   -4.8705    0.9053 H   0  0  0  0  0  0  0  0  0  0  0  0
    3.2257   -3.8876    2.0432 H   0  0  0  0  0  0  0  0  0  0  0  0
    1.8327   -4.8004    2.5839 H   0  0  0  0  0  0  0  0  0  0  0  0
    0.0005   -3.1873    1.6465 N   0  0  0  0  0  0  0  0  0  0  0  0
   -0.9949   -2.1807    1.3864 C   0  0  2  0  0  0  0  0  0  0  0  0
   -0.3083   -0.8216    1.4164 C   0  0  0  0  0  0  0  0  0  0  0  0
    0.7533   -0.6191    2.0022 O   0  0  0  0  0  0  0  0  0  0  0  0
   -2.1232   -2.2423    2.4042 C   0  0  0  0  0  0  0  0  0  0  0  0
   -0.3048   -4.0823    2.0245 H   0  0  0  0  0  0  0  0  0  0  0  0
   -1.3830   -2.3724    0.3801 H   0  0  0  0  0  0  0  0  0  0  0  0
   -1.7534   -2.0527    3.4185 H   0  0  0  0  0  0  0  0  0  0  0  0
   -2.8936   -1.4947    2.1882 H   0  0  0  0  0  0  0  0  0  0  0  0
   -2.5964   -3.2301    2.4022 H   0  0  0  0  0  0  0  0  0  0  0  0
   -1.0412    0.1517    0.7482 N   0  0  0  0  0  0  0  0  0  0  0  0
   -0.6079    1.5223    0.6467 C   0  0  2  0  0  0  0  0  0  0  0  0
   -1.8060    2.4237    0.9424 C   0  0  0  0  0  0  0  0  0  0  0  0
   -2.0692    2.8360    2.0703 O   0  0  0  0  0  0  0  0  0  0  0  0
    0.0563    1.8472   -0.7130 C   0  0  2  0  0  0  0  0  0  0  0  0
    1.3493    1.0332   -0.9412 C   0  0  0  0  0  0  0  0  0  0  0  0
    0.3094    3.3561   -0.8302 C   0  0  0  0  0  0  0  0  0  0  0  0
    1.8817    1.1263   -2.3655 C   0  0  0  0  0  0  0  0  0  0  0  0
   -1.9022   -0.1128    0.2753 H   0  0  0  0  0  0  0  0  0  0  0  0
    0.1182    1.6681    1.4567 H   0  0  0  0  0  0  0  0  0  0  0  0
   -0.6516    1.5781   -1.5083 H   0  0  0  0  0  0  0  0  0  0  0  0
    2.1352    1.3958   -0.2687 H   0  0  0  0  0  0  0  0  0  0  0  0
    1.1846   -0.0228   -0.6963 H   0  0  0  0  0  0  0  0  0  0  0  0
    1.0120    3.6939   -0.0609 H   0  0  0  0  0  0  0  0  0  0  0  0
    0.7496    3.6099   -1.7994 H   0  0  0  0  0  0  0  0  0  0  0  0
   -0.6173    3.9286   -0.7192 H   0  0  0  0  0  0  0  0  0  0  0  0
    1.1447    0.7782   -3.0947 H   0  0  0  0  0  0  0  0  0  0  0  0
    2.7726    0.4989   -2.4735 H   0  0  0  0  0  0  0  0  0  0  0  0
    2.1606    2.1548   -2.6148 H   0  0  0  0  0  0  0  0  0  0  0  0
   -2.5216    2.7366   -0.2046 N   0  0  0  0  0  0  0  0  0  0  0  0
   -3.6881    3.5898   -0.2033 C   0  0  2  0  0  0  0  0  0  0  0  0
   -3.7988    4.2371   -1.5774 C   0  0  0  0  0  0  0  0  0  0  0  0
   -2.8416    4.3639   -2.3382 O   0  0  0  0  0  0  0  0  0  0  0  0
   -3.6010    4.6444    0.8890 C   0  0  0  0  0  0  0  0  0  0  0  0
   -2.2100    2.3466   -1.0891 H   0  0  0  0  0  0  0  0  0  0  0  0
   -4.5543    2.9410   -0.0337 H   0  0  0  0  0  0  0  0  0  0  0  0
   -2.7391    5.3040    0.7360 H   0  0  0  0  0  0  0  0  0  0  0  0
   -4.4983    5.2718    0.9071 H   0  0  0  0  0  0  0  0  0  0  0  0
   -3.4915    4.1774    1.8737 H   0  0  0  0  0  0  0  0  0  0  0  0
   -5.0829    4.6954   -1.8365 N   0  0  0  0  0  0  0  0  0  0  0  0
   -5.4403    5.3583   -3.0689 C   0  0  0  0  0  0  0  0  0  0  0  0
   -5.8191    4.5304   -1.1563 H   0  0  0  0  0  0  0  0  0  0  0  0
   -5.3333    6.4461   -2.9451 H   0  0  0  0  0  0  0  0  0  0  0  0
   -4.7768    5.0142   -3.8759 H   0  0  0  0  0  0  0  0  0  0  0  0
   -6.4832    5.1193   -3.3245 H   0  0  0  0  0  0  0  0  0  0  0  0
  1  3  1  0  0  0  0
  1  7  1  0  0  0  0
  1  2  2  0  0  0  0
 37 38  1  0  0  0  0
 38 46  1  0  0  0  0
 38 39  2  0  0  0  0
  8  9  1  0  0  0  0
  9 17  1  0  0  0  0
  9 10  2  0  0  0  0
 18 19  1  0  0  0  0
 19 36  1  0  0  0  0
 19 20  2  0  0  0  0
 22 24  1  0  0  0  0
 37 40  1  0  0  0  0
  8 11  1  0  0  0  0
 21 23  1  0  0  0  0
 46 47  1  0  0  0  0
 21 22  1  0  0  0  0
 36 37  1  0  0  0  0
  7  8  1  0  0  0  0
 18 21  1  0  0  0  0
 17 18  1  0  0  0  0
  3  4  1  0  0  0  0
  3  5  1  0  0  0  0
  3  6  1  0  0  0  0
 24 33  1  0  0  0  0
 24 34  1  0  0  0  0
 24 35  1  0  0  0  0
 40 43  1  0  0  0  0
 40 44  1  0  0  0  0
 40 45  1  0  0  0  0
 11 14  1  0  0  0  0
 11 15  1  0  0  0  0
 11 16  1  0  0  0  0
 23 30  1  0  0  0  0
 23 31  1  0  0  0  0
 23 32  1  0  0  0  0
 47 49  1  0  0  0  0
 47 50  1  0  0  0  0
 47 51  1  0  0  0  0
 22 28  1  0  0  0  0
 22 29  1  0  0  0  0
 37 42  1  0  0  0  0
  8 13  1  0  0  0  0
 18 26  1  0  0  0  0
 21 27  1  0  0  0  0
 46 48  1  0  0  0  0
  7 12  1  0  0  0  0
 36 41  1  0  0  0  0
 17 25  1  0  0  0  0
M  END
$$$$

  -OEChem-05262214473D

 51 50  0     1  0  0  0  0  0999 V2000
    1.3524   -3.0009    1.4091 C   0  0  0  0  0  0  0  0  0  0  0  0
    1.8758   -1.9880    0.9598 O   0  0  0  0  0  0  0  0  0  0  0  0
    2.2030   -4.1782    1.7536 C   0  0  0  0  0  0  0  0  0  0  0  0
    2.3264   -4.8705    0.9053 H   0  0  0  0  0  0  0  0  0  0  0  0
    3.2257   -3.8876    2.0432 H   0  0  0  0  0  0  0  0  0  0  0  0
    1.8327   -4.8004    2.5839 H   0  0  0  0  0  0  0  0  0  0  0  0
    0.0005   -3.1873    1.6465 N   0  0  0  0  0  0  0  0  0  0  0  0
   -0.9949   -2.1807    1.3864 C   0  0  2  0  0  0  0  0  0  0  0  0
   -0.3083   -0.8216    1.4164 C   0  0  0  0  0  0  0  0  0  0  0  0
    0.7533   -0.6191    2.0022 O   0  0  0  0  0  0  0  0  0  0  0  0
   -2.1232   -2.2423    2.4042 C   0  0  0  0  0  0  0  0  0  0  0  0
   -0.3048   -4.0823    2.0245 H   0  0  0  0  0  0  0  0  0  0  0  0
   -1.3830   -2.3724    0.3801 H   0  0  0  0  0  0  0  0  0  0  0  0
   -1.7534   -2.0527    3.4185 H   0  0  0  0  0  0  0  0  0  0  0  0
   -2.8936   -1.4947    2.1882 H   0  0  0  0  0  0  0  0  0  0  0  0
   -2.5964   -3.2301    2.4022 H   0  0  0  0  0  0  0  0  0  0  0  0
   -1.0412    0.1517    0.7482 N   0  0  0  0  0  0  0  0  0  0  0  0
   -0.6079    1.5223    0.6467 C   0  0  2  0  0  0  0  0  0  0  0  0
   -1.8060    2.4237    0.9424 C   0  0  0  0  0  0  0  0  0  0  0  0
   -1.9265    3.0510    1.9928 O   0  0  0  0  0  0  0  0  0  0  0  0
    0.0563    1.8472   -0.7130 C   0  0  2  0  0  0  0  0  0  0  0  0
    1.3493    1.0332   -0.9412 C   0  0  0  0  0  0  0  0  0  0  0  0
    0.3094    3.3561   -0.8302 C   0  0  0  0  0  0  0  0  0  0  0  0
    1.8817    1.1263   -2.3655 C   0  0  0  0  0  0  0  0  0  0  0  0
   -1.9022   -0.1128    0.2753 H   0  0  0  0  0  0  0  0  0  0  0  0
    0.1182    1.6681    1.4567 H   0  0  0  0  0  0  0  0  0  0  0  0
   -0.6516    1.5781   -1.5083 H   0  0  0  0  0  0  0  0  0  0  0  0
    2.1352    1.3958   -0.2687 H   0  0  0  0  0  0  0  0  0  0  0  0
    1.1846   -0.0228   -0.6963 H   0  0  0  0  0  0  0  0  0  0  0  0
    1.0120    3.6939   -0.0609 H   0  0  0  0  0  0  0  0  0  0  0  0
    0.7496    3.6099   -1.7994 H   0  0  0  0  0  0  0  0  0  0  0  0
   -0.6173    3.9286   -0.7192 H   0  0  0  0  0  0  0  0  0  0  0  0
    1.1447    0.7782   -3.0947 H   0  0  0  0  0  0  0  0  0  0  0  0
    2.7726    0.4989   -2.4735 H   0  0  0  0  0  0  0  0  0  0  0  0
    2.1606    2.1548   -2.6148 H   0  0  0  0  0  0  0  0  0  0  0  0
   -2.7019    2.4679   -0.1163 N   0  0  0  0  0  0  0  0  0  0  0  0
   -3.9091    3.2624   -0.1007 C   0  0  2  0  0  0  0  0  0  0  0  0
   -4.2636    3.6073   -1.5411 C   0  0  0  0  0  0  0  0  0  0  0  0
   -3.4396    3.6068   -2.4533 O   0  0  0  0  0  0  0  0  0  0  0  0
   -3.7315    4.5224    0.7321 C   0  0  0  0  0  0  0  0  0  0  0  0
   -2.4993    1.9143   -0.9434 H   0  0  0  0  0  0  0  0  0  0  0  0
   -4.6962    2.6333    0.3291 H   0  0  0  0  0  0  0  0  0  0  0  0
   -2.9469    5.1653    0.3167 H   0  0  0  0  0  0  0  0  0  0  0  0
   -4.6556    5.1088    0.7663 H   0  0  0  0  0  0  0  0  0  0  0  0
   -3.4475    4.2732    1.7602 H   0  0  0  0  0  0  0  0  0  0  0  0
   -5.5993    3.9577   -1.6803 N   0  0  0  0  0  0  0  0  0  0  0  0
   -6.1774    4.3388   -2.9478 C   0  0  0  0  0  0  0  0  0  0  0  0
   -6.2146    3.9119   -0.8734 H   0  0  0  0  0  0  0  0  0  0  0  0
   -6.1251    5.4317   -3.0614 H   0  0  0  0  0  0  0  0  0  0  0  0
   -5.6190    3.8582   -3.7646 H   0  0  0  0  0  0  0  0  0  0  0  0
   -7.2285    4.0165   -2.9829 H   0  0  0  0  0  0  0  0  0  0  0  0
  1  3  1  0  0  0  0
  1  7  1  0  0  0  0
  1  2  2  0  0  0  0
 37 38  1  0  0  0  0
 38 46  1  0  0  0  0
 38 39  2  0  0  0  0
  8  9  1  0  0  0  0
  9 17  1  0  0  0  0
  9 10  2  0  0  0  0
 18 19  1  0  0  0  0
 19 36  1  0  0  0  0
 19 20  2  0  0  0  0
 22 24  1  0  0  0  0
 37 40  1  0  0  0  0
  8 11  1  0  0  0  0
 21 23  1  0  0  0  0
 46 47  1  0  0  0  0
 21 22  1  0  0  0  0
 36 37  1  0  0  0  0
  7  8  1  0  0  0  0
 18 21  1  0  0  0  0
 17 18  1  0  0  0  0
  3  4  1  0  0  0  0
  3  5  1  0  0  0  0
  3  6  1  0  0  0  0
 24 33  1  0  0  0  0
 24 34  1  0  0  0  0
 24 35  1  0  0  0  0
 40 43  1  0  0  0  0
 40 44  1  0  0  0  0
 40 45  1  0  0  0  0
 11 14  1  0  0  0  0
 11 15  1  0  0  0  0
 11 16  1  0  0  0  0
 23 30  1  0  0  0  0
 23 31  1  0  0  0  0
 23 32  1  0  0  0  0
 47 49  1  0  0  0  0
 47 50  1  0  0  0  0
 47 51  1  0  0  0  0
 22 28  1  0  0  0  0
 22 29  1  0  0  0  0
 37 42  1  0  0  0  0
  8 13  1  0  0  0  0
 18 26  1  0  0  0  0
 21 27  1  0  0  0  0
 46 48  1  0  0  0  0
  7 12  1  0  0  0  0
 36 41  1  0  0  0  0
 17 25  1  0  0  0  0
M  END
$$$$

  -OEChem-05262214473D

 51 50  0     1  0  0  0  0  0999 V2000
    1.3524   -3.0009    1.4091 C   0  0  0  0  0  0  0  0  0  0  0  0
    1.8758   -1.9880    0.9598 O   0  0  0  0  0  0  0  0  0  0  0  0
    2.2030   -4.1782    1.7536 C   0  0  0  0  0  0  0  0  0  0  0  0
    2.3264   -4.8705    0.9053 H   0  0  0  0  0  0  0  0  0  0  0  0
    3.2257   -3.8876    2.0432 H   0  0  0  0  0  0  0  0  0  0  0  0
    1.8327   -4.8004    2.5839 H   0  0  0  0  0  0  0  0  0  0  0  0
    0.0005   -3.1873    1.6465 N   0  0  0  0  0  0  0  0  0  0  0  0
   -0.9949   -2.1807    1.3864 C   0  0  2  0  0  0  0  0  0  0  0  0
   -0.3083   -0.8216    1.4164 C   0  0  0  0  0  0  0  0  0  0  0  0
    0.7533   -0.6191    2.0022 O   0  0  0  0  0  0  0  0  0  0  0  0
   -2.1232   -2.2423    2.4042 C   0  0  0  0  0  0  0  0  0  0  0  0
   -0.3048   -4.0823    2.0245 H   0  0  0  0  0  0  0  0  0  0  0  0
   -1.3830   -2.3724    0.3801 H   0  0  0  0  0  0  0  0  0  0  0  0
   -1.7534   -2.0527    3.4185 H   0  0  0  0  0  0  0  0  0  0  0  0
   -2.8936   -1.4947    2.1882 H   0  0  0  0  0  0  0  0  0  0  0  0
   -2.5964   -3.2301    2.4022 H   0  0  0  0  0  0  0  0  0  0  0  0
   -1.0412    0.1517    0.7482 N   0  0  0  0  0  0  0  0  0  0  0  0
   -0.6079    1.5223    0.6467 C   0  0  2  0  0  0  0  0  0  0  0  0
   -1.8060    2.4237    0.9424 C   0  0  0  0  0  0  0  0  0  0  0  0
   -1.8113    3.2502    1.8525 O   0  0  0  0  0  0  0  0  0  0  0  0
    0.0563    1.8472   -0.7130 C   0  0  2  0  0  0  0  0  0  0  0  0
    1.3493    1.0332   -0.9412 C   0  0  0  0  0  0  0  0  0  0  0  0
    0.3094    3.3561   -0.8302 C   0  0  0  0  0  0  0  0  0  0  0  0
    1.8817    1.1263   -2.3655 C   0  0  0  0  0  0  0  0  0  0  0  0
   -1.9022   -0.1128    0.2753 H   0  0  0  0  0  0  0  0  0  0  0  0
    0.1182    1.6681    1.4567 H   0  0  0  0  0  0  0  0  0  0  0  0
   -0.6516    1.5781   -1.5083 H   0  0  0  0  0  0  0  0  0  0  0  0
    2.1352    1.3958   -0.2687 H   0  0  0  0  0  0  0  0  0  0  0  0
    1.1846   -0.0228   -0.6963 H   0  0  0  0  0  0  0  0  0  0  0  0
    1.0120    3.6939   -0.0609 H   0  0  0  0  0  0  0  0  0  0  0  0
    0.7496    3.6099   -1.7994 H   0  0  0  0  0  0  0  0  0  0  0  0
   -0.6173    3.9286   -0.7192 H   0  0  0  0  0  0  0  0  0  0  0  0
    1.1447    0.7782   -3.0947 H   0  0  0  0  0  0  0  0  0  0  0  0
    2.7726    0.4989   -2.4735 H   0  0  0  0  0  0  0  0  0  0  0  0
    2.1606    2.1548   -2.6148 H   0  0  0  0  0  0  0  0  0  0  0  0
   -2.8492    2.2172    0.0511 N   0  0  0  0  0  0  0  0  0  0  0  0
   -4.0905    2.9558    0.0985 C   0  0  2  0  0  0  0  0  0  0  0  0
   -4.6756    2.9831   -1.3074 C   0  0  0  0  0  0  0  0  0  0  0  0
   -3.9969    2.8222   -2.3196 O   0  0  0  0  0  0  0  0  0  0  0  0
   -3.8754    4.3662    0.6252 C   0  0  0  0  0  0  0  0  0  0  0  0
   -2.7348    1.5119   -0.6707 H   0  0  0  0  0  0  0  0  0  0  0  0
   -4.7625    2.4026    0.7637 H   0  0  0  0  0  0  0  0  0  0  0  0
   -3.2047    4.9358   -0.0283 H   0  0  0  0  0  0  0  0  0  0  0  0
   -4.8210    4.9150    0.6874 H   0  0  0  0  0  0  0  0  0  0  0  0
   -3.4271    4.3449    1.6243 H   0  0  0  0  0  0  0  0  0  0  0  0
   -6.0373    3.2511   -1.3009 N   0  0  0  0  0  0  0  0  0  0  0  0
   -6.8199    3.3418   -2.5114 C   0  0  0  0  0  0  0  0  0  0  0  0
   -6.5225    3.3520   -0.4142 H   0  0  0  0  0  0  0  0  0  0  0  0
   -6.8570    4.3886   -2.8471 H   0  0  0  0  0  0  0  0  0  0  0  0
   -6.3576    2.7221   -3.2939 H   0  0  0  0  0  0  0  0  0  0  0  0
   -7.8412    2.9833   -2.3153 H   0  0  0  0  0  0  0  0  0  0  0  0
  1  3  1  0  0  0  0
  1  7  1  0  0  0  0
  1  2  2  0  0  0  0
 37 38  1  0  0  0  0
 38 46  1  0  0  0  0
 38 39  2  0  0  0  0
  8  9  1  0  0  0  0
  9 17  1  0  0  0  0
  9 10  2  0  0  0  0
 18 19  1  0  0  0  0
 19 36  1  0  0  0  0
 19 20  2  0  0  0  0
 22 24  1  0  0  0  0
 37 40  1  0  0  0  0
  8 11  1  0  0  0  0
 21 23  1  0  0  0  0
 46 47  1  0  0  0  0
 21 22  1  0  0  0  0
 36 37  1  0  0  0  0
  7  8  1  0  0  0  0
 18 21  1  0  0  0  0
 17 18  1  0  0  0  0
  3  4  1  0  0  0  0
  3  5  1  0  0  0  0
  3  6  1  0  0  0  0
 24 33  1  0  0  0  0
 24 34  1  0  0  0  0
 24 35  1  0  0  0  0
 40 43  1  0  0  0  0
 40 44  1  0  0  0  0
 40 45  1  0  0  0  0
 11 14  1  0  0  0  0
 11 15  1  0  0  0  0
 11 16  1  0  0  0  0
 23 30  1  0  0  0  0
 23 31  1  0  0  0  0
 23 32  1  0  0  0  0
 47 49  1  0  0  0  0
 47 50  1  0  0  0  0
 47 51  1  0  0  0  0
 22 28  1  0  0  0  0
 22 29  1  0  0  0  0
 37 42  1  0  0  0  0
  8 13  1  0  0  0  0
 18 26  1  0  0  0  0
 21 27  1  0  0  0  0
 46 48  1  0  0  0  0
  7 12  1  0  0  0  0
 36 41  1  0  0  0  0
 17 25  1  0  0  0  0
M  END
$$$$

  -OEChem-05262214473D

 51 50  0     1  0  0  0  0  0999 V2000
    1.3524   -3.0009    1.4091 C   0  0  0  0  0  0  0  0  0  0  0  0
    1.8758   -1.9880    0.9598 O   0  0  0  0  0  0  0  0  0  0  0  0
    2.2030   -4.1782    1.7536 C   0  0  0  0  0  0  0  0  0  0  0  0
    2.3264   -4.8705    0.9053 H   0  0  0  0  0  0  0  0  0  0  0  0
    3.2257   -3.8876    2.0432 H   0  0  0  0  0  0  0  0  0  0  0  0
    1.8327   -4.8004    2.5839 H   0  0  0  0  0  0  0  0  0  0  0  0
    0.0005   -3.1873    1.6465 N   0  0  0  0  0  0  0  0  0  0  0  0
   -0.9949   -2.1807    1.3864 C   0  0  2  0  0  0  0  0  0  0  0  0
   -0.3083   -0.8216    1.4164 C   0  0  0  0  0  0  0  0  0  0  0  0
    0.7533   -0.6191    2.0022 O   0  0  0  0  0  0  0  0  0  0  0  0
   -2.1232   -2.2423    2.4042 C   0  0  0  0  0  0  0  0  0  0  0  0
   -0.3048   -4.0823    2.0245 H   0  0  0  0  0  0  0  0  0  0  0  0
   -1.3830   -2.3724    0.3801 H   0  0  0  0  0  0  0  0  0  0  0  0
   -1.7534   -2.0527    3.4185 H   0  0  0  0  0  0  0  0  0  0  0  0
   -2.8936   -1.4947    2.1882 H   0  0  0  0  0  0  0  0  0  0  0  0
   -2.5964   -3.2301    2.4022 H   0  0  0  0  0  0  0  0  0  0  0  0
   -1.0412    0.1517    0.7482 N   0  0  0  0  0  0  0  0  0  0  0  0
   -0.6079    1.5223    0.6467 C   0  0  2  0  0  0  0  0  0  0  0  0
   -1.8060    2.4237    0.9424 C   0  0  0  0  0  0  0  0  0  0  0  0
   -1.7314    3.4199    1.6590 O   0  0  0  0  0  0  0  0  0  0  0  0
    0.0563    1.8472   -0.7130 C   0  0  2  0  0  0  0  0  0  0  0  0
    1.3493    1.0332   -0.9412 C   0  0  0  0  0  0  0  0  0  0  0  0
    0.3094    3.3561   -0.8302 C   0  0  0  0  0  0  0  0  0  0  0  0
    1.8817    1.1263   -2.3655 C   0  0  0  0  0  0  0  0  0  0  0  0
   -1.9022   -0.1128    0.2753 H   0  0  0  0  0  0  0  0  0  0  0  0
    0.1182    1.6681    1.4567 H   0  0  0  0  0  0  0  0  0  0  0  0
   -0.6516    1.5781   -1.5083 H   0  0  0  0  0  0  0  0  0  0  0  0
    2.1352    1.3958   -0.2687 H   0  0  0  0  0  0  0  0  0  0  0  0
    1.1846   -0.0228   -0.6963 H   0  0  0  0  0  0  0  0  0  0  0  0
    1.0120    3.6939   -0.0609 H   0  0  0  0  0  0  0  0  0  0  0  0
    0.7496    3.6099   -1.7994 H   0  0  0  0  0  0  0  0  0  0  0  0
   -0.6173    3.9286   -0.7192 H   0  0  0  0  0  0  0  0  0  0  0  0
    1.1447    0.7782   -3.0947 H   0  0  0  0  0  0  0  0  0  0  0  0
    2.7726    0.4989   -2.4735 H   0  0  0  0  0  0  0  0  0  0  0  0
    2.1606    2.1548   -2.6148 H   0  0  0  0  0  0  0  0  0  0  0  0
   -2.9534    2.0017    0.2860 N   0  0  0  0  0  0  0  0  0  0  0  0
   -4.2200    2.6911    0.3808 C   0  0  2  0  0  0  0  0  0  0  0  0
   -5.0066    2.4069   -0.8920 C   0  0  0  0  0  0  0  0  0  0  0  0
   -4.4755    2.0636   -1.9461 O   0  0  0  0  0  0  0  0  0  0  0  0
   -4.0229    4.1864    0.5756 C   0  0  0  0  0  0  0  0  0  0  0  0
   -2.9005    1.1667   -0.2898 H   0  0  0  0  0  0  0  0  0  0  0  0
   -4.7487    2.2647    1.2403 H   0  0  0  0  0  0  0  0  0  0  0  0
   -3.4949    4.6313   -0.2757 H   0  0  0  0  0  0  0  0  0  0  0  0
   -4.9830    4.7034    0.6758 H   0  0  0  0  0  0  0  0  0  0  0  0
   -3.4317    4.3876    1.4754 H   0  0  0  0  0  0  0  0  0  0  0  0
   -6.3671    2.6236   -0.7241 N   0  0  0  0  0  0  0  0  0  0  0  0
   -7.3239    2.4351   -1.7895 C   0  0  0  0  0  0  0  0  0  0  0  0
   -6.7217    2.8890    0.1899 H   0  0  0  0  0  0  0  0  0  0  0  0
   -7.4789    3.3880   -2.3167 H   0  0  0  0  0  0  0  0  0  0  0  0
   -6.9423    1.6832   -2.4960 H   0  0  0  0  0  0  0  0  0  0  0  0
   -8.2792    2.0900   -1.3673 H   0  0  0  0  0  0  0  0  0  0  0  0
  1  3  1  0  0  0  0
  1  7  1  0  0  0  0
  1  2  2  0  0  0  0
 37 38  1  0  0  0  0
 38 46  1  0  0  0  0
 38 39  2  0  0  0  0
  8  9  1  0  0  0  0
  9 17  1  0  0  0  0
  9 10  2  0  0  0  0
 18 19  1  0  0  0  0
 19 36  1  0  0  0  0
 19 20  2  0  0  0  0
 22 24  1  0  0  0  0
 37 40  1  0  0  0  0
  8 11  1  0  0  0  0
 21 23  1  0  0  0  0
 46 47  1  0  0  0  0
 21 22  1  0  0  0  0
 36 37  1  0  0  0  0
  7  8  1  0  0  0  0
 18 21  1  0  0  0  0
 17 18  1  0  0  0  0
  3  4  1  0  0  0  0
  3  5  1  0  0  0  0
  3  6  1  0  0  0  0
 24 33  1  0  0  0  0
 24 34  1  0  0  0  0
 24 35  1  0  0  0  0
 40 43  1  0  0  0  0
 40 44  1  0  0  0  0
 40 45  1  0  0  0  0
 11 14  1  0  0  0  0
 11 15  1  0  0  0  0
 11 16  1  0  0  0  0
 23 30  1  0  0  0  0
 23 31  1  0  0  0  0
 23 32  1  0  0  0  0
 47 49  1  0  0  0  0
 47 50  1  0  0  0  0
 47 51  1  0  0  0  0
 22 28  1  0  0  0  0
 22 29  1  0  0  0  0
 37 42  1  0  0  0  0
  8 13  1  0  0  0  0
 18 26  1  0  0  0  0
 21 27  1  0  0  0  0
 46 48  1  0  0  0  0
  7 12  1  0  0  0  0
 36 41  1  0  0  0  0
 17 25  1  0  0  0  0
M  END
$$$$

  -OEChem-05262214473D

 51 50  0     1  0  0  0  0  0999 V2000
    1.3524   -3.0009    1.4091 C   0  0  0  0  0  0  0  0  0  0  0  0
    1.8758   -1.9880    0.9598 O   0  0  0  0  0  0  0  0  0  0  0  0
    2.2030   -4.1782    1.7536 C   0  0  0  0  0  0  0  0  0  0  0  0
    2.3264   -4.8705    0.9053 H   0  0  0  0  0  0  0  0  0  0  0  0
    3.2257   -3.8876    2.0432 H   0  0  0  0  0  0  0  0  0  0  0  0
    1.8327   -4.8004    2.5839 H   0  0  0  0  0  0  0  0  0  0  0  0
    0.0005   -3.1873    1.6465 N   0  0  0  0  0  0  0  0  0  0  0  0
   -0.9949   -2.1807    1.3864 C   0  0  2  0  0  0  0  0  0  0  0  0
   -0.3083   -0.8216    1.4164 C   0  0  0  0  0  0  0  0  0  0  0  0
    0.7533   -0.6191    2.0022 O   0  0  0  0  0  0  0  0  0  0  0  0
   -2.1232   -2.2423    2.4042 C   0  0  0  0  0  0  0  0  0  0  0  0
   -0.3048   -4.0823    2.0245 H   0  0  0  0  0  0  0  0  0  0  0  0
   -1.3830   -2.3724    0.3801 H   0  0  0  0  0  0  0  0  0  0  0  0
   -1.7534   -2.0527    3.4185 H   0  0  0  0  0  0  0  0  0  0  0  0
   -2.8936   -1.4947    2.1882 H   0  0  0  0  0  0  0  0  0  0  0  0
   -2.5964   -3.2301    2.4022 H   0  0  0  0  0  0  0  0  0  0  0  0
   -1.0412    0.1517    0.7482 N   0  0  0  0  0  0  0  0  0  0  0  0
   -0.6079    1.5223    0.6467 C   0  0  2  0  0  0  0  0  0  0  0  0
   -1.8060    2.4237    0.9424 C   0  0  0  0  0  0  0  0  0  0  0  0
   -1.6923    3.5485    1.4254 O   0  0  0  0  0  0  0  0  0  0  0  0
    0.0563    1.8472   -0.7130 C   0  0  2  0  0  0  0  0  0  0  0  0
    1.3493    1.0332   -0.9412 C   0  0  0  0  0  0  0  0  0  0  0  0
    0.3094    3.3561   -0.8302 C   0  0  0  0  0  0  0  0  0  0  0  0
    1.8817    1.1263   -2.3655 C   0  0  0  0  0  0  0  0  0  0  0  0
   -1.9022   -0.1128    0.2753 H   0  0  0  0  0  0  0  0  0  0  0  0
    0.1182    1.6681    1.4567 H   0  0  0  0  0  0  0  0  0  0  0  0
   -0.6516    1.5781   -1.5083 H   0  0  0  0  0  0  0  0  0  0  0  0
    2.1352    1.3958   -0.2687 H   0  0  0  0  0  0  0  0  0  0  0  0
    1.1846   -0.0228   -0.6963 H   0  0  0  0  0  0  0  0  0  0  0  0
    1.0120    3.6939   -0.0609 H   0  0  0  0  0  0  0  0  0  0  0  0
    0.7496    3.6099   -1.7994 H   0  0  0  0  0  0  0  0  0  0  0  0
   -0.6173    3.9286   -0.7192 H   0  0  0  0  0  0  0  0  0  0  0  0
    1.1447    0.7782   -3.0947 H   0  0  0  0  0  0  0  0  0  0  0  0
    2.7726    0.4989   -2.4735 H   0  0  0  0  0  0  0  0  0  0  0  0
    2.1606    2.1548   -2.6148 H   0  0  0  0  0  0  0  0  0  0  0  0
   -3.0074    1.8360    0.5726 N   0  0  0  0  0  0  0  0  0  0  0  0
   -4.2888    2.4862    0.7270 C   0  0  2  0  0  0  0  0  0  0  0  0
   -5.2340    1.9181   -0.3234 C   0  0  0  0  0  0  0  0  0  0  0  0
   -4.8428    1.3826   -1.3584 O   0  0  0  0  0  0  0  0  0  0  0  0
   -4.1640    3.9953    0.5867 C   0  0  0  0  0  0  0  0  0  0  0  0
   -2.9851    0.9022    0.1736 H   0  0  0  0  0  0  0  0  0  0  0  0
   -4.6556    2.2288    1.7267 H   0  0  0  0  0  0  0  0  0  0  0  0
   -3.7977    4.2724   -0.4086 H   0  0  0  0  0  0  0  0  0  0  0  0
   -5.1307    4.4886    0.7323 H   0  0  0  0  0  0  0  0  0  0  0  0
   -3.4610    4.3984    1.3236 H   0  0  0  0  0  0  0  0  0  0  0  0
   -6.5662    2.1180    0.0106 N   0  0  0  0  0  0  0  0  0  0  0  0
   -7.6551    1.6805   -0.8313 C   0  0  0  0  0  0  0  0  0  0  0  0
   -6.7988    2.5543    0.8979 H   0  0  0  0  0  0  0  0  0  0  0  0
   -7.9486    2.4979   -1.5063 H   0  0  0  0  0  0  0  0  0  0  0  0
   -7.3333    0.8123   -1.4251 H   0  0  0  0  0  0  0  0  0  0  0  0
   -8.5129    1.3976   -0.2035 H   0  0  0  0  0  0  0  0  0  0  0  0
  1  3  1  0  0  0  0
  1  7  1  0  0  0  0
  1  2  2  0  0  0  0
 37 38  1  0  0  0  0
 38 46  1  0  0  0  0
 38 39  2  0  0  0  0
  8  9  1  0  0  0  0
  9 17  1  0  0  0  0
  9 10  2  0  0  0  0
 18 19  1  0  0  0  0
 19 36  1  0  0  0  0
 19 20  2  0  0  0  0
 22 24  1  0  0  0  0
 37 40  1  0  0  0  0
  8 11  1  0  0  0  0
 21 23  1  0  0  0  0
 46 47  1  0  0  0  0
 21 22  1  0  0  0  0
 36 37  1  0  0  0  0
  7  8  1  0  0  0  0
 18 21  1  0  0  0  0
 17 18  1  0  0  0  0
  3  4  1  0  0  0  0
  3  5  1  0  0  0  0
  3  6  1  0  0  0  0
 24 33  1  0  0  0  0
 24 34  1  0  0  0  0
 24 35  1  0  0  0  0
 40 43  1  0  0  0  0
 40 44  1  0  0  0  0
 40 45  1  0  0  0  0
 11 14  1  0  0  0  0
 11 15  1  0  0  0  0
 11 16  1  0  0  0  0
 23 30  1  0  0  0  0
 23 31  1  0  0  0  0
 23 32  1  0  0  0  0
 47 49  1  0  0  0  0
 47 50  1  0  0  0  0
 47 51  1  0  0  0  0
 22 28  1  0  0  0  0
 22 29  1  0  0  0  0
 37 42  1  0  0  0  0
  8 13  1  0  0  0  0
 18 26  1  0  0  0  0
 21 27  1  0  0  0  0
 46 48  1  0  0  0  0
  7 12  1  0  0  0  0
 36 41  1  0  0  0  0
 17 25  1  0  0  0  0
M  END
$$$$

  -OEChem-05262214473D

 51 50  0     1  0  0  0  0  0999 V2000
    1.3524   -3.0009    1.4091 C   0  0  0  0  0  0  0  0  0  0  0  0
    1.8758   -1.9880    0.9598 O   0  0  0  0  0  0  0  0  0  0  0  0
    2.2030   -4.1782    1.7536 C   0  0  0  0  0  0  0  0  0  0  0  0
    2.3264   -4.8705    0.9053 H   0  0  0  0  0  0  0  0  0  0  0  0
    3.2257   -3.8876    2.0432 H   0  0  0  0  0  0  0  0  0  0  0  0
    1.8327   -4.8004    2.5839 H   0  0  0  0  0  0  0  0  0  0  0  0
    0.0005   -3.1873    1.6465 N   0  0  0  0  0  0  0  0  0  0  0  0
   -0.9949   -2.1807    1.3864 C   0  0  2  0  0  0  0  0  0  0  0  0
   -0.3083   -0.8216    1.4164 C   0  0  0  0  0  0  0  0  0  0  0  0
    0.7533   -0.6191    2.0022 O   0  0  0  0  0  0  0  0  0  0  0  0
   -2.1232   -2.2423    2.4042 C   0  0  0  0  0  0  0  0  0  0  0  0
   -0.3048   -4.0823    2.0245 H   0  0  0  0  0  0  0  0  0  0  0  0
   -1.3830   -2.3724    0.3801 H   0  0  0  0  0  0  0  0  0  0  0  0
   -1.7534   -2.0527    3.4185 H   0  0  0  0  0  0  0  0  0  0  0  0
   -2.8936   -1.4947    2.1882 H   0  0  0  0  0  0  0  0  0  0  0  0
   -2.5964   -3.2301    2.4022 H   0  0  0  0  0  0  0  0  0  0  0  0
   -1.0412    0.1517    0.7482 N   0  0  0  0  0  0  0  0  0  0  0  0
   -0.6079    1.5223    0.6467 C   0  0  2  0  0  0  0  0  0  0  0  0
   -1.8060    2.4237    0.9424 C   0  0  0  0  0  0  0  0  0  0  0  0
   -1.6966    3.6273    1.1678 O   0  0  0  0  0  0  0  0  0  0  0  0
    0.0563    1.8472   -0.7130 C   0  0  2  0  0  0  0  0  0  0  0  0
    1.3493    1.0332   -0.9412 C   0  0  0  0  0  0  0  0  0  0  0  0
    0.3094    3.3561   -0.8302 C   0  0  0  0  0  0  0  0  0  0  0  0
    1.8817    1.1263   -2.3655 C   0  0  0  0  0  0  0  0  0  0  0  0
   -1.9022   -0.1128    0.2753 H   0  0  0  0  0  0  0  0  0  0  0  0
    0.1182    1.6681    1.4567 H   0  0  0  0  0  0  0  0  0  0  0  0
   -0.6516    1.5781   -1.5083 H   0  0  0  0  0  0  0  0  0  0  0  0
    2.1352    1.3958   -0.2687 H   0  0  0  0  0  0  0  0  0  0  0  0
    1.1846   -0.0228   -0.6963 H   0  0  0  0  0  0  0  0  0  0  0  0
    1.0120    3.6939   -0.0609 H   0  0  0  0  0  0  0  0  0  0  0  0
    0.7496    3.6099   -1.7994 H   0  0  0  0  0  0  0  0  0  0  0  0
   -0.6173    3.9286   -0.7192 H   0  0  0  0  0  0  0  0  0  0  0  0
    1.1447    0.7782   -3.0947 H   0  0  0  0  0  0  0  0  0  0  0  0
    2.7726    0.4989   -2.4735 H   0  0  0  0  0  0  0  0  0  0  0  0
    2.1606    2.1548   -2.6148 H   0  0  0  0  0  0  0  0  0  0  0  0
   -3.0074    1.7313    0.8914 N   0  0  0  0  0  0  0  0  0  0  0  0
   -4.2920    2.3551    1.1135 C   0  0  2  0  0  0  0  0  0  0  0  0
   -5.3424    1.5499    0.3598 C   0  0  0  0  0  0  0  0  0  0  0  0
   -5.0737    0.8258   -0.5965 O   0  0  0  0  0  0  0  0  0  0  0  0
   -4.2889    3.8059    0.6577 C   0  0  0  0  0  0  0  0  0  0  0  0
   -2.9828    0.7366    0.6877 H   0  0  0  0  0  0  0  0  0  0  0  0
   -4.4897    2.2976    2.1895 H   0  0  0  0  0  0  0  0  0  0  0  0
   -4.0925    3.8836   -0.4178 H   0  0  0  0  0  0  0  0  0  0  0  0
   -5.2539    4.2852    0.8529 H   0  0  0  0  0  0  0  0  0  0  0  0
   -3.5130    4.3766    1.1793 H   0  0  0  0  0  0  0  0  0  0  0  0
   -6.6210    1.7687    0.8533 N   0  0  0  0  0  0  0  0  0  0  0  0
   -7.7910    1.1295    0.2980 C   0  0  0  0  0  0  0  0  0  0  0  0
   -6.7484    2.3709    1.6613 H   0  0  0  0  0  0  0  0  0  0  0  0
   -8.2340    1.7790   -0.4713 H   0  0  0  0  0  0  0  0  0  0  0  0
   -7.5038    0.1688   -0.1544 H   0  0  0  0  0  0  0  0  0  0  0  0
   -8.5263    0.9533    1.0969 H   0  0  0  0  0  0  0  0  0  0  0  0
  1  3  1  0  0  0  0
  1  7  1  0  0  0  0
  1  2  2  0  0  0  0
 37 38  1  0  0  0  0
 38 46  1  0  0  0  0
 38 39  2  0  0  0  0
  8  9  1  0  0  0  0
  9 17  1  0  0  0  0
  9 10  2  0  0  0  0
 18 19  1  0  0  0  0
 19 36  1  0  0  0  0
 19 20  2  0  0  0  0
 22 24  1  0  0  0  0
 37 40  1  0  0  0  0
  8 11  1  0  0  0  0
 21 23  1  0  0  0  0
 46 47  1  0  0  0  0
 21 22  1  0  0  0  0
 36 37  1  0  0  0  0
  7  8  1  0  0  0  0
 18 21  1  0  0  0  0
 17 18  1  0  0  0  0
  3  4  1  0  0  0  0
  3  5  1  0  0  0  0
  3  6  1  0  0  0  0
 24 33  1  0  0  0  0
 24 34  1  0  0  0  0
 24 35  1  0  0  0  0
 40 43  1  0  0  0  0
 40 44  1  0  0  0  0
 40 45  1  0  0  0  0
 11 14  1  0  0  0  0
 11 15  1  0  0  0  0
 11 16  1  0  0  0  0
 23 30  1  0  0  0  0
 23 31  1  0  0  0  0
 23 32  1  0  0  0  0
 47 49  1  0  0  0  0
 47 50  1  0  0  0  0
 47 51  1  0  0  0  0
 22 28  1  0  0  0  0
 22 29  1  0  0  0  0
 37 42  1  0  0  0  0
  8 13  1  0  0  0  0
 18 26  1  0  0  0  0
 21 27  1  0  0  0  0
 46 48  1  0  0  0  0
  7 12  1  0  0  0  0
 36 41  1  0  0  0  0
 17 25  1  0  0  0  0
M  END
$$$$

  -OEChem-05262214473D

 51 50  0     1  0  0  0  0  0999 V2000
    1.3524   -3.0009    1.4091 C   0  0  0  0  0  0  0  0  0  0  0  0
    1.8758   -1.9880    0.9598 O   0  0  0  0  0  0  0  0  0  0  0  0
    2.2030   -4.1782    1.7536 C   0  0  0  0  0  0  0  0  0  0  0  0
    2.3264   -4.8705    0.9053 H   0  0  0  0  0  0  0  0  0  0  0  0
    3.2257   -3.8876    2.0432 H   0  0  0  0  0  0  0  0  0  0  0  0
    1.8327   -4.8004    2.5839 H   0  0  0  0  0  0  0  0  0  0  0  0
    0.0005   -3.1873    1.6465 N   0  0  0  0  0  0  0  0  0  0  0  0
   -0.9949   -2.1807    1.3864 C   0  0  2  0  0  0  0  0  0  0  0  0
   -0.3083   -0.8216    1.4164 C   0  0  0  0  0  0  0  0  0  0  0  0
    0.7533   -0.6191    2.0022 O   0  0  0  0  0  0  0  0  0  0  0  0
   -2.1232   -2.2423    2.4042 C   0  0  0  0  0  0  0  0  0  0  0  0
   -0.3048   -4.0823    2.0245 H   0  0  0  0  0  0  0  0  0  0  0  0
   -1.3830   -2.3724    0.3801 H   0  0  0  0  0  0  0  0  0  0  0  0
   -1.7534   -2.0527    3.4185 H   0  0  0  0  0  0  0  0  0  0  0  0
   -2.8936   -1.4947    2.1882 H   0  0  0  0  0  0  0  0  0  0  0  0
   -2.5964   -3.2301    2.4022 H   0  0  0  0  0  0  0  0  0  0  0  0
   -1.0412    0.1517    0.7482 N   0  0  0  0  0  0  0  0  0  0  0  0
   -0.6079    1.5223    0.6467 C   0  0  2  0  0  0  0  0  0  0  0  0
   -1.8060    2.4237    0.9424 C   0  0  0  0  0  0  0  0  0  0  0  0
   -1.7440    3.6509    0.9036 O   0  0  0  0  0  0  0  0  0  0  0  0
    0.0563    1.8472   -0.7130 C   0  0  2  0  0  0  0  0  0  0  0  0
    1.3493    1.0332   -0.9412 C   0  0  0  0  0  0  0  0  0  0  0  0
    0.3094    3.3561   -0.8302 C   0  0  0  0  0  0  0  0  0  0  0  0
    1.8817    1.1263   -2.3655 C   0  0  0  0  0  0  0  0  0  0  0  0
   -1.9022   -0.1128    0.2753 H   0  0  0  0  0  0  0  0  0  0  0  0
    0.1182    1.6681    1.4567 H   0  0  0  0  0  0  0  0  0  0  0  0
   -0.6516    1.5781   -1.5083 H   0  0  0  0  0  0  0  0  0  0  0  0
    2.1352    1.3958   -0.2687 H   0  0  0  0  0  0  0  0  0  0  0  0
    1.1846   -0.0228   -0.6963 H   0  0  0  0  0  0  0  0  0  0  0  0
    1.0120    3.6939   -0.0609 H   0  0  0  0  0  0  0  0  0  0  0  0
    0.7496    3.6099   -1.7994 H   0  0  0  0  0  0  0  0  0  0  0  0
   -0.6173    3.9286   -0.7192 H   0  0  0  0  0  0  0  0  0  0  0  0
    1.1447    0.7782   -3.0947 H   0  0  0  0  0  0  0  0  0  0  0  0
    2.7726    0.4989   -2.4735 H   0  0  0  0  0  0  0  0  0  0  0  0
    2.1606    2.1548   -2.6148 H   0  0  0  0  0  0  0  0  0  0  0  0
   -2.9536    1.6949    1.2205 N   0  0  0  0  0  0  0  0  0  0  0  0
   -4.2296    2.3067    1.5139 C   0  0  2  0  0  0  0  0  0  0  0  0
   -5.3244    1.3275    1.1110 C   0  0  0  0  0  0  0  0  0  0  0  0
   -5.1526    0.4309    0.2878 O   0  0  0  0  0  0  0  0  0  0  0  0
   -4.3893    3.6311    0.7838 C   0  0  0  0  0  0  0  0  0  0  0  0
   -2.8939    0.6810    1.2176 H   0  0  0  0  0  0  0  0  0  0  0  0
   -4.2622    2.4662    2.5972 H   0  0  0  0  0  0  0  0  0  0  0  0
   -4.3592    3.4914   -0.3029 H   0  0  0  0  0  0  0  0  0  0  0  0
   -5.3444    4.1070    1.0295 H   0  0  0  0  0  0  0  0  0  0  0  0
   -3.5842    4.3236    1.0523 H   0  0  0  0  0  0  0  0  0  0  0  0
   -6.5278    1.5996    1.7465 N   0  0  0  0  0  0  0  0  0  0  0  0
   -7.7222    0.8196    1.5213 C   0  0  0  0  0  0  0  0  0  0  0  0
   -6.5740    2.3511    2.4283 H   0  0  0  0  0  0  0  0  0  0  0  0
   -8.3157    1.2804    0.7179 H   0  0  0  0  0  0  0  0  0  0  0  0
   -7.4423   -0.2035    1.2296 H   0  0  0  0  0  0  0  0  0  0  0  0
   -8.3185    0.7873    2.4451 H   0  0  0  0  0  0  0  0  0  0  0  0
  1  3  1  0  0  0  0
  1  7  1  0  0  0  0
  1  2  2  0  0  0  0
 37 38  1  0  0  0  0
 38 46  1  0  0  0  0
 38 39  2  0  0  0  0
  8  9  1  0  0  0  0
  9 17  1  0  0  0  0
  9 10  2  0  0  0  0
 18 19  1  0  0  0  0
 19 36  1  0  0  0  0
 19 20  2  0  0  0  0
 22 24  1  0  0  0  0
 37 40  1  0  0  0  0
  8 11  1  0  0  0  0
 21 23  1  0  0  0  0
 46 47  1  0  0  0  0
 21 22  1  0  0  0  0
 36 37  1  0  0  0  0
  7  8  1  0  0  0  0
 18 21  1  0  0  0  0
 17 18  1  0  0  0  0
  3  4  1  0  0  0  0
  3  5  1  0  0  0  0
  3  6  1  0  0  0  0
 24 33  1  0  0  0  0
 24 34  1  0  0  0  0
 24 35  1  0  0  0  0
 40 43  1  0  0  0  0
 40 44  1  0  0  0  0
 40 45  1  0  0  0  0
 11 14  1  0  0  0  0
 11 15  1  0  0  0  0
 11 16  1  0  0  0  0
 23 30  1  0  0  0  0
 23 31  1  0  0  0  0
 23 32  1  0  0  0  0
 47 49  1  0  0  0  0
 47 50  1  0  0  0  0
 47 51  1  0  0  0  0
 22 28  1  0  0  0  0
 22 29  1  0  0  0  0
 37 42  1  0  0  0  0
  8 13  1  0  0  0  0
 18 26  1  0  0  0  0
 21 27  1  0  0  0  0
 46 48  1  0  0  0  0
  7 12  1  0  0  0  0
 36 41  1  0  0  0  0
 17 25  1  0  0  0  0
M  END
$$$$

  -OEChem-05262214473D

 51 50  0     1  0  0  0  0  0999 V2000
    1.3524   -3.0009    1.4091 C   0  0  0  0  0  0  0  0  0  0  0  0
    1.8758   -1.9880    0.9598 O   0  0  0  0  0  0  0  0  0  0  0  0
    2.2030   -4.1782    1.7536 C   0  0  0  0  0  0  0  0  0  0  0  0
    2.3264   -4.8705    0.9053 H   0  0  0  0  0  0  0  0  0  0  0  0
    3.2257   -3.8876    2.0432 H   0  0  0  0  0  0  0  0  0  0  0  0
    1.8327   -4.8004    2.5839 H   0  0  0  0  0  0  0  0  0  0  0  0
    0.0005   -3.1873    1.6465 N   0  0  0  0  0  0  0  0  0  0  0  0
   -0.9949   -2.1807    1.3864 C   0  0  2  0  0  0  0  0  0  0  0  0
   -0.3083   -0.8216    1.4164 C   0  0  0  0  0  0  0  0  0  0  0  0
    0.7533   -0.6191    2.0022 O   0  0  0  0  0  0  0  0  0  0  0  0
   -2.1232   -2.2423    2.4042 C   0  0  0  0  0  0  0  0  0  0  0  0
   -0.3048   -4.0823    2.0245 H   0  0  0  0  0  0  0  0  0  0  0  0
   -1.3830   -2.3724    0.3801 H   0  0  0  0  0  0  0  0  0  0  0  0
   -1.7534   -2.0527    3.4185 H   0  0  0  0  0  0  0  0  0  0  0  0
   -2.8936   -1.4947    2.1882 H   0  0  0  0  0  0  0  0  0  0  0  0
   -2.5964   -3.2301    2.4022 H   0  0  0  0  0  0  0  0  0  0  0  0
   -1.0412    0.1517    0.7482 N   0  0  0  0  0  0  0  0  0  0  0  0
   -0.6079    1.5223    0.6467 C   0  0  2  0  0  0  0  0  0  0  0  0
   -1.8060    2.4237    0.9424 C   0  0  0  0  0  0  0  0  0  0  0  0
   -1.8313    3.6177    0.6508 O   0  0  0  0  0  0  0  0  0  0  0  0
    0.0563    1.8472   -0.7130 C   0  0  2  0  0  0  0  0  0  0  0  0
    1.3493    1.0332   -0.9412 C   0  0  0  0  0  0  0  0  0  0  0  0
    0.3094    3.3561   -0.8302 C   0  0  0  0  0  0  0  0  0  0  0  0
    1.8817    1.1263   -2.3655 C   0  0  0  0  0  0  0  0  0  0  0  0
   -1.9022   -0.1128    0.2753 H   0  0  0  0  0  0  0  0  0  0  0  0
    0.1182    1.6681    1.4567 H   0  0  0  0  0  0  0  0  0  0  0  0
   -0.6516    1.5781   -1.5083 H   0  0  0  0  0  0  0  0  0  0  0  0
    2.1352    1.3958   -0.2687 H   0  0  0  0  0  0  0  0  0  0  0  0
    1.1846   -0.0228   -0.6963 H   0  0  0  0  0  0  0  0  0  0  0  0
    1.0120    3.6939   -0.0609 H   0  0  0  0  0  0  0  0  0  0  0  0
    0.7496    3.6099   -1.7994 H   0  0  0  0  0  0  0  0  0  0  0  0
   -0.6173    3.9286   -0.7192 H   0  0  0  0  0  0  0  0  0  0  0  0
    1.1447    0.7782   -3.0947 H   0  0  0  0  0  0  0  0  0  0  0  0
    2.7726    0.4989   -2.4735 H   0  0  0  0  0  0  0  0  0  0  0  0
    2.1606    2.1548   -2.6148 H   0  0  0  0  0  0  0  0  0  0  0  0
   -2.8496    1.7292    1.5375 N   0  0  0  0  0  0  0  0  0  0  0  0
   -4.1058    2.3443    1.9010 C   0  0  2  0  0  0  0  0  0  0  0  0
   -5.1811    1.2660    1.8789 C   0  0  0  0  0  0  0  0  0  0  0  0
   -5.0740    0.2249    1.2341 O   0  0  0  0  0  0  0  0  0  0  0  0
   -4.4583    3.4828    0.9565 C   0  0  0  0  0  0  0  0  0  0  0  0
   -2.7243    0.7393    1.7271 H   0  0  0  0  0  0  0  0  0  0  0  0
   -3.9887    2.7232    2.9222 H   0  0  0  0  0  0  0  0  0  0  0  0
   -4.5796    3.1225   -0.0716 H   0  0  0  0  0  0  0  0  0  0  0  0
   -5.3959    3.9662    1.2501 H   0  0  0  0  0  0  0  0  0  0  0  0
   -3.6697    4.2431    0.9512 H   0  0  0  0  0  0  0  0  0  0  0  0
   -6.2929    1.6222    2.6294 N   0  0  0  0  0  0  0  0  0  0  0  0
   -7.4536    0.7719    2.7553 C   0  0  0  0  0  0  0  0  0  0  0  0
   -6.2875    2.4964    3.1466 H   0  0  0  0  0  0  0  0  0  0  0  0
   -8.1881    1.0360    1.9802 H   0  0  0  0  0  0  0  0  0  0  0  0
   -7.1530   -0.2791    2.6327 H   0  0  0  0  0  0  0  0  0  0  0  0
   -7.9037    0.9109    3.7494 H   0  0  0  0  0  0  0  0  0  0  0  0
  1  3  1  0  0  0  0
  1  7  1  0  0  0  0
  1  2  2  0  0  0  0
 37 38  1  0  0  0  0
 38 46  1  0  0  0  0
 38 39  2  0  0  0  0
  8  9  1  0  0  0  0
  9 17  1  0  0  0  0
  9 10  2  0  0  0  0
 18 19  1  0  0  0  0
 19 36  1  0  0  0  0
 19 20  2  0  0  0  0
 22 24  1  0  0  0  0
 37 40  1  0  0  0  0
  8 11  1  0  0  0  0
 21 23  1  0  0  0  0
 46 47  1  0  0  0  0
 21 22  1  0  0  0  0
 36 37  1  0  0  0  0
  7  8  1  0  0  0  0
 18 21  1  0  0  0  0
 17 18  1  0  0  0  0
  3  4  1  0  0  0  0
  3  5  1  0  0  0  0
  3  6  1  0  0  0  0
 24 33  1  0  0  0  0
 24 34  1  0  0  0  0
 24 35  1  0  0  0  0
 40 43  1  0  0  0  0
 40 44  1  0  0  0  0
 40 45  1  0  0  0  0
 11 14  1  0  0  0  0
 11 15  1  0  0  0  0
 11 16  1  0  0  0  0
 23 30  1  0  0  0  0
 23 31  1  0  0  0  0
 23 32  1  0  0  0  0
 47 49  1  0  0  0  0
 47 50  1  0  0  0  0
 47 51  1  0  0  0  0
 22 28  1  0  0  0  0
 22 29  1  0  0  0  0
 37 42  1  0  0  0  0
  8 13  1  0  0  0  0
 18 26  1  0  0  0  0
 21 27  1  0  0  0  0
 46 48  1  0  0  0  0
  7 12  1  0  0  0  0
 36 41  1  0  0  0  0
 17 25  1  0  0  0  0
M  END
$$$$

  -OEChem-05262214473D

 51 50  0     1  0  0  0  0  0999 V2000
    1.3524   -3.0009    1.4091 C   0  0  0  0  0  0  0  0  0  0  0  0
    1.8758   -1.9880    0.9598 O   0  0  0  0  0  0  0  0  0  0  0  0
    2.2030   -4.1782    1.7536 C   0  0  0  0  0  0  0  0  0  0  0  0
    2.3264   -4.8705    0.9053 H   0  0  0  0  0  0  0  0  0  0  0  0
    3.2257   -3.8876    2.0432 H   0  0  0  0  0  0  0  0  0  0  0  0
    1.8327   -4.8004    2.5839 H   0  0  0  0  0  0  0  0  0  0  0  0
    0.0005   -3.1873    1.6465 N   0  0  0  0  0  0  0  0  0  0  0  0
   -0.9949   -2.1807    1.3864 C   0  0  2  0  0  0  0  0  0  0  0  0
   -0.3083   -0.8216    1.4164 C   0  0  0  0  0  0  0  0  0  0  0  0
    0.7533   -0.6191    2.0022 O   0  0  0  0  0  0  0  0  0  0  0  0
   -2.1232   -2.2423    2.4042 C   0  0  0  0  0  0  0  0  0  0  0  0
   -0.3048   -4.0823    2.0245 H   0  0  0  0  0  0  0  0  0  0  0  0
   -1.3830   -2.3724    0.3801 H   0  0  0  0  0  0  0  0  0  0  0  0
   -1.7534   -2.0527    3.4185 H   0  0  0  0  0  0  0  0  0  0  0  0
   -2.8936   -1.4947    2.1882 H   0  0  0  0  0  0  0  0  0  0  0  0
   -2.5964   -3.2301    2.4022 H   0  0  0  0  0  0  0  0  0  0  0  0
   -1.0412    0.1517    0.7482 N   0  0  0  0  0  0  0  0  0  0  0  0
   -0.6079    1.5223    0.6467 C   0  0  2  0  0  0  0  0  0  0  0  0
   -1.8060    2.4237    0.9424 C   0  0  0  0  0  0  0  0  0  0  0  0
   -1.9526    3.5300    0.4267 O   0  0  0  0  0  0  0  0  0  0  0  0
    0.0563    1.8472   -0.7130 C   0  0  2  0  0  0  0  0  0  0  0  0
    1.3493    1.0332   -0.9412 C   0  0  0  0  0  0  0  0  0  0  0  0
    0.3094    3.3561   -0.8302 C   0  0  0  0  0  0  0  0  0  0  0  0
    1.8817    1.1263   -2.3655 C   0  0  0  0  0  0  0  0  0  0  0  0
   -1.9022   -0.1128    0.2753 H   0  0  0  0  0  0  0  0  0  0  0  0
    0.1182    1.6681    1.4567 H   0  0  0  0  0  0  0  0  0  0  0  0
   -0.6516    1.5781   -1.5083 H   0  0  0  0  0  0  0  0  0  0  0  0
    2.1352    1.3958   -0.2687 H   0  0  0  0  0  0  0  0  0  0  0  0
    1.1846   -0.0228   -0.6963 H   0  0  0  0  0  0  0  0  0  0  0  0
    1.0120    3.6939   -0.0609 H   0  0  0  0  0  0  0  0  0  0  0  0
    0.7496    3.6099   -1.7994 H   0  0  0  0  0  0  0  0  0  0  0  0
   -0.6173    3.9286   -0.7192 H   0  0  0  0  0  0  0  0  0  0  0  0
    1.1447    0.7782   -3.0947 H   0  0  0  0  0  0  0  0  0  0  0  0
    2.7726    0.4989   -2.4735 H   0  0  0  0  0  0  0  0  0  0  0  0
    2.1606    2.1548   -2.6148 H   0  0  0  0  0  0  0  0  0  0  0  0
   -2.7024    1.8319    1.8209 N   0  0  0  0  0  0  0  0  0  0  0  0
   -3.9290    2.4654    2.2484 C   0  0  2  0  0  0  0  0  0  0  0  0
   -4.9225    1.3696    2.6113 C   0  0  0  0  0  0  0  0  0  0  0  0
   -4.8433    0.2220    2.1779 O   0  0  0  0  0  0  0  0  0  0  0  0
   -4.4911    3.3712    1.1638 C   0  0  0  0  0  0  0  0  0  0  0  0
   -2.4856    0.9075    2.1815 H   0  0  0  0  0  0  0  0  0  0  0  0
   -3.6877    3.0510    3.1421 H   0  0  0  0  0  0  0  0  0  0  0  0
   -4.7388    2.8021    0.2604 H   0  0  0  0  0  0  0  0  0  0  0  0
   -5.4049    3.8723    1.4996 H   0  0  0  0  0  0  0  0  0  0  0  0
   -3.7638    4.1406    0.8830 H   0  0  0  0  0  0  0  0  0  0  0  0
   -5.9324    1.8349    3.4417 N   0  0  0  0  0  0  0  0  0  0  0  0
   -7.0033    0.9897    3.9160 C   0  0  0  0  0  0  0  0  0  0  0  0
   -5.9083    2.7968    3.7671 H   0  0  0  0  0  0  0  0  0  0  0  0
   -7.8598    1.0624    3.2297 H   0  0  0  0  0  0  0  0  0  0  0  0
   -6.6556   -0.0530    3.9591 H   0  0  0  0  0  0  0  0  0  0  0  0
   -7.3100    1.3158    4.9208 H   0  0  0  0  0  0  0  0  0  0  0  0
  1  3  1  0  0  0  0
  1  7  1  0  0  0  0
  1  2  2  0  0  0  0
 37 38  1  0  0  0  0
 38 46  1  0  0  0  0
 38 39  2  0  0  0  0
  8  9  1  0  0  0  0
  9 17  1  0  0  0  0
  9 10  2  0  0  0  0
 18 19  1  0  0  0  0
 19 36  1  0  0  0  0
 19 20  2  0  0  0  0
 22 24  1  0  0  0  0
 37 40  1  0  0  0  0
  8 11  1  0  0  0  0
 21 23  1  0  0  0  0
 46 47  1  0  0  0  0
 21 22  1  0  0  0  0
 36 37  1  0  0  0  0
  7  8  1  0  0  0  0
 18 21  1  0  0  0  0
 17 18  1  0  0  0  0
  3  4  1  0  0  0  0
  3  5  1  0  0  0  0
  3  6  1  0  0  0  0
 24 33  1  0  0  0  0
 24 34  1  0  0  0  0
 24 35  1  0  0  0  0
 40 43  1  0  0  0  0
 40 44  1  0  0  0  0
 40 45  1  0  0  0  0
 11 14  1  0  0  0  0
 11 15  1  0  0  0  0
 11 16  1  0  0  0  0
 23 30  1  0  0  0  0
 23 31  1  0  0  0  0
 23 32  1  0  0  0  0
 47 49  1  0  0  0  0
 47 50  1  0  0  0  0
 47 51  1  0  0  0  0
 22 28  1  0  0  0  0
 22 29  1  0  0  0  0
 37 42  1  0  0  0  0
  8 13  1  0  0  0  0
 18 26  1  0  0  0  0
 21 27  1  0  0  0  0
 46 48  1  0  0  0  0
  7 12  1  0  0  0  0
 36 41  1  0  0  0  0
 17 25  1  0  0  0  0
M  END
$$$$

  -OEChem-05262214473D

 51 50  0     1  0  0  0  0  0999 V2000
    1.3524   -3.0009    1.4091 C   0  0  0  0  0  0  0  0  0  0  0  0
    1.8758   -1.9880    0.9598 O   0  0  0  0  0  0  0  0  0  0  0  0
    2.2030   -4.1782    1.7536 C   0  0  0  0  0  0  0  0  0  0  0  0
    2.3264   -4.8705    0.9053 H   0  0  0  0  0  0  0  0  0  0  0  0
    3.2257   -3.8876    2.0432 H   0  0  0  0  0  0  0  0  0  0  0  0
    1.8327   -4.8004    2.5839 H   0  0  0  0  0  0  0  0  0  0  0  0
    0.0005   -3.1873    1.6465 N   0  0  0  0  0  0  0  0  0  0  0  0
   -0.9949   -2.1807    1.3864 C   0  0  2  0  0  0  0  0  0  0  0  0
   -0.3083   -0.8216    1.4164 C   0  0  0  0  0  0  0  0  0  0  0  0
    0.7533   -0.6191    2.0022 O   0  0  0  0  0  0  0  0  0  0  0  0
   -2.1232   -2.2423    2.4042 C   0  0  0  0  0  0  0  0  0  0  0  0
   -0.3048   -4.0823    2.0245 H   0  0  0  0  0  0  0  0  0  0  0  0
   -1.3830   -2.3724    0.3801 H   0  0  0  0  0  0  0  0  0  0  0  0
   -1.7534   -2.0527    3.4185 H   0  0  0  0  0  0  0  0  0  0  0  0
   -2.8936   -1.4947    2.1882 H   0  0  0  0  0  0  0  0  0  0  0  0
   -2.5964   -3.2301    2.4022 H   0  0  0  0  0  0  0  0  0  0  0  0
   -1.0412    0.1517    0.7482 N   0  0  0  0  0  0  0  0  0  0  0  0
   -0.6079    1.5223    0.6467 C   0  0  2  0  0  0  0  0  0  0  0  0
   -1.8060    2.4237    0.9424 C   0  0  0  0  0  0  0  0  0  0  0  0
   -2.0996    3.3938    0.2466 O   0  0  0  0  0  0  0  0  0  0  0  0
    0.0563    1.8472   -0.7130 C   0  0  2  0  0  0  0  0  0  0  0  0
    1.3493    1.0332   -0.9412 C   0  0  0  0  0  0  0  0  0  0  0  0
    0.3094    3.3561   -0.8302 C   0  0  0  0  0  0  0  0  0  0  0  0
    1.8817    1.1263   -2.3655 C   0  0  0  0  0  0  0  0  0  0  0  0
   -1.9022   -0.1128    0.2753 H   0  0  0  0  0  0  0  0  0  0  0  0
    0.1182    1.6681    1.4567 H   0  0  0  0  0  0  0  0  0  0  0  0
   -0.6516    1.5781   -1.5083 H   0  0  0  0  0  0  0  0  0  0  0  0
    2.1352    1.3958   -0.2687 H   0  0  0  0  0  0  0  0  0  0  0  0
    1.1846   -0.0228   -0.6963 H   0  0  0  0  0  0  0  0  0  0  0  0
    1.0120    3.6939   -0.0609 H   0  0  0  0  0  0  0  0  0  0  0  0
    0.7496    3.6099   -1.7994 H   0  0  0  0  0  0  0  0  0  0  0  0
   -0.6173    3.9286   -0.7192 H   0  0  0  0  0  0  0  0  0  0  0  0
    1.1447    0.7782   -3.0947 H   0  0  0  0  0  0  0  0  0  0  0  0
    2.7726    0.4989   -2.4735 H   0  0  0  0  0  0  0  0  0  0  0  0
    2.1606    2.1548   -2.6148 H   0  0  0  0  0  0  0  0  0  0  0  0
   -2.5221    1.9960    2.0513 N   0  0  0  0  0  0  0  0  0  0  0  0
   -3.7113    2.6617    2.5323 C   0  0  2  0  0  0  0  0  0  0  0  0
   -4.5660    1.6312    3.2582 C   0  0  0  0  0  0  0  0  0  0  0  0
   -4.4763    0.4222    3.0550 O   0  0  0  0  0  0  0  0  0  0  0  0
   -4.4855    3.3038    1.3918 C   0  0  0  0  0  0  0  0  0  0  0  0
   -2.1941    1.1741    2.5499 H   0  0  0  0  0  0  0  0  0  0  0  0
   -3.3799    3.4274    3.2421 H   0  0  0  0  0  0  0  0  0  0  0  0
   -4.8258    2.5520    0.6703 H   0  0  0  0  0  0  0  0  0  0  0  0
   -5.3708    3.8319    1.7610 H   0  0  0  0  0  0  0  0  0  0  0  0
   -3.8598    4.0229    0.8522 H   0  0  0  0  0  0  0  0  0  0  0  0
   -5.4708    2.2233    4.1282 N   0  0  0  0  0  0  0  0  0  0  0  0
   -6.4021    1.4582    4.9241 C   0  0  0  0  0  0  0  0  0  0  0  0
   -5.4624    3.2319    4.2477 H   0  0  0  0  0  0  0  0  0  0  0  0
   -7.3534    1.3579    4.3810 H   0  0  0  0  0  0  0  0  0  0  0  0
   -5.9839    0.4595    5.1185 H   0  0  0  0  0  0  0  0  0  0  0  0
   -6.5780    1.9743    5.8795 H   0  0  0  0  0  0  0  0  0  0  0  0
  1  3  1  0  0  0  0
  1  7  1  0  0  0  0
  1  2  2  0  0  0  0
 37 38  1  0  0  0  0
 38 46  1  0  0  0  0
 38 39  2  0  0  0  0
  8  9  1  0  0  0  0
  9 17  1  0  0  0  0
  9 10  2  0  0  0  0
 18 19  1  0  0  0  0
 19 36  1  0  0  0  0
 19 20  2  0  0  0  0
 22 24  1  0  0  0  0
 37 40  1  0  0  0  0
  8 11  1  0  0  0  0
 21 23  1  0  0  0  0
 46 47  1  0  0  0  0
 21 22  1  0  0  0  0
 36 37  1  0  0  0  0
  7  8  1  0  0  0  0
 18 21  1  0  0  0  0
 17 18  1  0  0  0  0
  3  4  1  0  0  0  0
  3  5  1  0  0  0  0
  3  6  1  0  0  0  0
 24 33  1  0  0  0  0
 24 34  1  0  0  0  0
 24 35  1  0  0  0  0
 40 43  1  0  0  0  0
 40 44  1  0  0  0  0
 40 45  1  0  0  0  0
 11 14  1  0  0  0  0
 11 15  1  0  0  0  0
 11 16  1  0  0  0  0
 23 30  1  0  0  0  0
 23 31  1  0  0  0  0
 23 32  1  0  0  0  0
 47 49  1  0  0  0  0
 47 50  1  0  0  0  0
 47 51  1  0  0  0  0
 22 28  1  0  0  0  0
 22 29  1  0  0  0  0
 37 42  1  0  0  0  0
  8 13  1  0  0  0  0
 18 26  1  0  0  0  0
 21 27  1  0  0  0  0
 46 48  1  0  0  0  0
  7 12  1  0  0  0  0
 36 41  1  0  0  0  0
 17 25  1  0  0  0  0
M  END
$$$$

  -OEChem-05262214473D

 51 50  0     1  0  0  0  0  0999 V2000
    1.3524   -3.0009    1.4091 C   0  0  0  0  0  0  0  0  0  0  0  0
    1.8758   -1.9880    0.9598 O   0  0  0  0  0  0  0  0  0  0  0  0
    2.2030   -4.1782    1.7536 C   0  0  0  0  0  0  0  0  0  0  0  0
    2.3264   -4.8705    0.9053 H   0  0  0  0  0  0  0  0  0  0  0  0
    3.2257   -3.8876    2.0432 H   0  0  0  0  0  0  0  0  0  0  0  0
    1.8327   -4.8004    2.5839 H   0  0  0  0  0  0  0  0  0  0  0  0
    0.0005   -3.1873    1.6465 N   0  0  0  0  0  0  0  0  0  0  0  0
   -0.9949   -2.1807    1.3864 C   0  0  2  0  0  0  0  0  0  0  0  0
   -0.3083   -0.8216    1.4164 C   0  0  0  0  0  0  0  0  0  0  0  0
    0.7533   -0.6191    2.0022 O   0  0  0  0  0  0  0  0  0  0  0  0
   -2.1232   -2.2423    2.4042 C   0  0  0  0  0  0  0  0  0  0  0  0
   -0.3048   -4.0823    2.0245 H   0  0  0  0  0  0  0  0  0  0  0  0
   -1.3830   -2.3724    0.3801 H   0  0  0  0  0  0  0  0  0  0  0  0
   -1.7534   -2.0527    3.4185 H   0  0  0  0  0  0  0  0  0  0  0  0
   -2.8936   -1.4947    2.1882 H   0  0  0  0  0  0  0  0  0  0  0  0
   -2.5964   -3.2301    2.4022 H   0  0  0  0  0  0  0  0  0  0  0  0
   -1.0412    0.1517    0.7482 N   0  0  0  0  0  0  0  0  0  0  0  0
   -0.6079    1.5223    0.6467 C   0  0  2  0  0  0  0  0  0  0  0  0
   -1.8060    2.4237    0.9424 C   0  0  0  0  0  0  0  0  0  0  0  0
   -2.2622    3.2183    0.1227 O   0  0  0  0  0  0  0  0  0  0  0  0
    0.0563    1.8472   -0.7130 C   0  0  2  0  0  0  0  0  0  0  0  0
    1.3493    1.0332   -0.9412 C   0  0  0  0  0  0  0  0  0  0  0  0
    0.3094    3.3561   -0.8302 C   0  0  0  0  0  0  0  0  0  0  0  0
    1.8817    1.1263   -2.3655 C   0  0  0  0  0  0  0  0  0  0  0  0
   -1.9022   -0.1128    0.2753 H   0  0  0  0  0  0  0  0  0  0  0  0
    0.1182    1.6681    1.4567 H   0  0  0  0  0  0  0  0  0  0  0  0
   -0.6516    1.5781   -1.5083 H   0  0  0  0  0  0  0  0  0  0  0  0
    2.1352    1.3958   -0.2687 H   0  0  0  0  0  0  0  0  0  0  0  0
    1.1846   -0.0228   -0.6963 H   0  0  0  0  0  0  0  0  0  0  0  0
    1.0120    3.6939   -0.0609 H   0  0  0  0  0  0  0  0  0  0  0  0
    0.7496    3.6099   -1.7994 H   0  0  0  0  0  0  0  0  0  0  0  0
   -0.6173    3.9286   -0.7192 H   0  0  0  0  0  0  0  0  0  0  0  0
    1.1447    0.7782   -3.0947 H   0  0  0  0  0  0  0  0  0  0  0  0
    2.7726    0.4989   -2.4735 H   0  0  0  0  0  0  0  0  0  0  0  0
    2.1606    2.1548   -2.6148 H   0  0  0  0  0  0  0  0  0  0  0  0
   -2.3210    2.2103    2.2131 N   0  0  0  0  0  0  0  0  0  0  0  0
   -3.4674    2.9198    2.7335 C   0  0  2  0  0  0  0  0  0  0  0  0
   -4.1360    2.0330    3.7756 C   0  0  0  0  0  0  0  0  0  0  0  0
   -3.9979    0.8119    3.8055 O   0  0  0  0  0  0  0  0  0  0  0  0
   -4.4420    3.2852    1.6248 C   0  0  0  0  0  0  0  0  0  0  0  0
   -1.8696    1.5210    2.8071 H   0  0  0  0  0  0  0  0  0  0  0  0
   -3.0861    3.8267    3.2153 H   0  0  0  0  0  0  0  0  0  0  0  0
   -4.8347    2.3892    1.1303 H   0  0  0  0  0  0  0  0  0  0  0  0
   -5.2960    3.8476    2.0166 H   0  0  0  0  0  0  0  0  0  0  0  0
   -3.9515    3.8983    0.8610 H   0  0  0  0  0  0  0  0  0  0  0  0
   -4.9396    2.7608    4.6420 N   0  0  0  0  0  0  0  0  0  0  0  0
   -5.6909    2.1454    5.7111 C   0  0  0  0  0  0  0  0  0  0  0  0
   -4.9801    3.7720    4.5555 H   0  0  0  0  0  0  0  0  0  0  0  0
   -6.7032    1.9024    5.3559 H   0  0  0  0  0  0  0  0  0  0  0  0
   -5.1838    1.2234    6.0318 H   0  0  0  0  0  0  0  0  0  0  0  0
   -5.7576    2.8415    6.5602 H   0  0  0  0  0  0  0  0  0  0  0  0
  1  3  1  0  0  0  0
  1  7  1  0  0  0  0
  1  2  2  0  0  0  0
 37 38  1  0  0  0  0
 38 46  1  0  0  0  0
 38 39  2  0  0  0  0
  8  9  1  0  0  0  0
  9 17  1  0  0  0  0
  9 10  2  0  0  0  0
 18 19  1  0  0  0  0
 19 36  1  0  0  0  0
 19 20  2  0  0  0  0
 22 24  1  0  0  0  0
 37 40  1  0  0  0  0
  8 11  1  0  0  0  0
 21 23  1  0  0  0  0
 46 47  1  0  0  0  0
 21 22  1  0  0  0  0
 36 37  1  0  0  0  0
  7  8  1  0  0  0  0
 18 21  1  0  0  0  0
 17 18  1  0  0  0  0
  3  4  1  0  0  0  0
  3  5  1  0  0  0  0
  3  6  1  0  0  0  0
 24 33  1  0  0  0  0
 24 34  1  0  0  0  0
 24 35  1  0  0  0  0
 40 43  1  0  0  0  0
 40 44  1  0  0  0  0
 40 45  1  0  0  0  0
 11 14  1  0  0  0  0
 11 15  1  0  0  0  0
 11 16  1  0  0  0  0
 23 30  1  0  0  0  0
 23 31  1  0  0  0  0
 23 32  1  0  0  0  0
 47 49  1  0  0  0  0
 47 50  1  0  0  0  0
 47 51  1  0  0  0  0
 22 28  1  0  0  0  0
 22 29  1  0  0  0  0
 37 42  1  0  0  0  0
  8 13  1  0  0  0  0
 18 26  1  0  0  0  0
 21 27  1  0  0  0  0
 46 48  1  0  0  0  0
  7 12  1  0  0  0  0
 36 41  1  0  0  0  0
 17 25  1  0  0  0  0
M  END
$$$$

  -OEChem-05262214473D

 51 50  0     1  0  0  0  0  0999 V2000
    1.3524   -3.0009    1.4091 C   0  0  0  0  0  0  0  0  0  0  0  0
    1.8758   -1.9880    0.9598 O   0  0  0  0  0  0  0  0  0  0  0  0
    2.2030   -4.1782    1.7536 C   0  0  0  0  0  0  0  0  0  0  0  0
    2.3264   -4.8705    0.9053 H   0  0  0  0  0  0  0  0  0  0  0  0
    3.2257   -3.8876    2.0432 H   0  0  0  0  0  0  0  0  0  0  0  0
    1.8327   -4.8004    2.5839 H   0  0  0  0  0  0  0  0  0  0  0  0
    0.0005   -3.1873    1.6465 N   0  0  0  0  0  0  0  0  0  0  0  0
   -0.9949   -2.1807    1.3864 C   0  0  2  0  0  0  0  0  0  0  0  0
   -0.3083   -0.8216    1.4164 C   0  0  0  0  0  0  0  0  0  0  0  0
    0.7533   -0.6191    2.0022 O   0  0  0  0  0  0  0  0  0  0  0  0
   -2.1232   -2.2423    2.4042 C   0  0  0  0  0  0  0  0  0  0  0  0
   -0.3048   -4.0823    2.0245 H   0  0  0  0  0  0  0  0  0  0  0  0
   -1.3830   -2.3724    0.3801 H   0  0  0  0  0  0  0  0  0  0  0  0
   -1.7534   -2.0527    3.4185 H   0  0  0  0  0  0  0  0  0  0  0  0
   -2.8936   -1.4947    2.1882 H   0  0  0  0  0  0  0  0  0  0  0  0
   -2.5964   -3.2301    2.4022 H   0  0  0  0  0  0  0  0  0  0  0  0
   -1.0412    0.1517    0.7482 N   0  0  0  0  0  0  0  0  0  0  0  0
   -0.6079    1.5223    0.6467 C   0  0  2  0  0  0  0  0  0  0  0  0
   -1.8060    2.4237    0.9424 C   0  0  0  0  0  0  0  0  0  0  0  0
   -2.4294    3.0154    0.0634 O   0  0  0  0  0  0  0  0  0  0  0  0
    0.0563    1.8472   -0.7130 C   0  0  2  0  0  0  0  0  0  0  0  0
    1.3493    1.0332   -0.9412 C   0  0  0  0  0  0  0  0  0  0  0  0
    0.3094    3.3561   -0.8302 C   0  0  0  0  0  0  0  0  0  0  0  0
    1.8817    1.1263   -2.3655 C   0  0  0  0  0  0  0  0  0  0  0  0
   -1.9022   -0.1128    0.2753 H   0  0  0  0  0  0  0  0  0  0  0  0
    0.1182    1.6681    1.4567 H   0  0  0  0  0  0  0  0  0  0  0  0
   -0.6516    1.5781   -1.5083 H   0  0  0  0  0  0  0  0  0  0  0  0
    2.1352    1.3958   -0.2687 H   0  0  0  0  0  0  0  0  0  0  0  0
    1.1846   -0.0228   -0.6963 H   0  0  0  0  0  0  0  0  0  0  0  0
    1.0120    3.6939   -0.0609 H   0  0  0  0  0  0  0  0  0  0  0  0
    0.7496    3.6099   -1.7994 H   0  0  0  0  0  0  0  0  0  0  0  0
   -0.6173    3.9286   -0.7192 H   0  0  0  0  0  0  0  0  0  0  0  0
    1.1447    0.7782   -3.0947 H   0  0  0  0  0  0  0  0  0  0  0  0
    2.7726    0.4989   -2.4735 H   0  0  0  0  0  0  0  0  0  0  0  0
    2.1606    2.1548   -2.6148 H   0  0  0  0  0  0  0  0  0  0  0  0
   -2.1127    2.4601    2.2952 N   0  0  0  0  0  0  0  0  0  0  0  0
   -3.2141    3.2222    2.8382 C   0  0  2  0  0  0  0  0  0  0  0  0
   -3.6619    2.5476    4.1282 C   0  0  0  0  0  0  0  0  0  0  0  0
   -3.4407    1.3646    4.3783 O   0  0  0  0  0  0  0  0  0  0  0  0
   -4.3635    3.3167    1.8470 C   0  0  0  0  0  0  0  0  0  0  0  0
   -1.5343    1.9245    2.9357 H   0  0  0  0  0  0  0  0  0  0  0  0
   -2.8264    4.2216    3.0636 H   0  0  0  0  0  0  0  0  0  0  0  0
   -4.7650    2.3249    1.6090 H   0  0  0  0  0  0  0  0  0  0  0  0
   -5.1855    3.9183    2.2488 H   0  0  0  0  0  0  0  0  0  0  0  0
   -4.0324    3.7750    0.9088 H   0  0  0  0  0  0  0  0  0  0  0  0
   -4.3750    3.4109    4.9482 N   0  0  0  0  0  0  0  0  0  0  0  0
   -4.9182    3.0044    6.2232 C   0  0  0  0  0  0  0  0  0  0  0  0
   -4.4943    4.3804    4.6696 H   0  0  0  0  0  0  0  0  0  0  0  0
   -5.9536    2.6586    6.0878 H   0  0  0  0  0  0  0  0  0  0  0  0
   -4.3098    2.1866    6.6369 H   0  0  0  0  0  0  0  0  0  0  0  0
   -4.9046    3.8584    6.9164 H   0  0  0  0  0  0  0  0  0  0  0  0
  1  3  1  0  0  0  0
  1  7  1  0  0  0  0
  1  2  2  0  0  0  0
 37 38  1  0  0  0  0
 38 46  1  0  0  0  0
 38 39  2  0  0  0  0
  8  9  1  0  0  0  0
  9 17  1  0  0  0  0
  9 10  2  0  0  0  0
 18 19  1  0  0  0  0
 19 36  1  0  0  0  0
 19 20  2  0  0  0  0
 22 24  1  0  0  0  0
 37 40  1  0  0  0  0
  8 11  1  0  0  0  0
 21 23  1  0  0  0  0
 46 47  1  0  0  0  0
 21 22  1  0  0  0  0
 36 37  1  0  0  0  0
  7  8  1  0  0  0  0
 18 21  1  0  0  0  0
 17 18  1  0  0  0  0
  3  4  1  0  0  0  0
  3  5  1  0  0  0  0
  3  6  1  0  0  0  0
 24 33  1  0  0  0  0
 24 34  1  0  0  0  0
 24 35  1  0  0  0  0
 40 43  1  0  0  0  0
 40 44  1  0  0  0  0
 40 45  1  0  0  0  0
 11 14  1  0  0  0  0
 11 15  1  0  0  0  0
 11 16  1  0  0  0  0
 23 30  1  0  0  0  0
 23 31  1  0  0  0  0
 23 32  1  0  0  0  0
 47 49  1  0  0  0  0
 47 50  1  0  0  0  0
 47 51  1  0  0  0  0
 22 28  1  0  0  0  0
 22 29  1  0  0  0  0
 37 42  1  0  0  0  0
  8 13  1  0  0  0  0
 18 26  1  0  0  0  0
 21 27  1  0  0  0  0
 46 48  1  0  0  0  0
  7 12  1  0  0  0  0
 36 41  1  0  0  0  0
 17 25  1  0  0  0  0
M  END
$$$$

  -OEChem-05262214473D

 51 50  0     1  0  0  0  0  0999 V2000
    1.3524   -3.0009    1.4091 C   0  0  0  0  0  0  0  0  0  0  0  0
    1.8758   -1.9880    0.9598 O   0  0  0  0  0  0  0  0  0  0  0  0
    2.2030   -4.1782    1.7536 C   0  0  0  0  0  0  0  0  0  0  0  0
    2.3264   -4.8705    0.9053 H   0  0  0  0  0  0  0  0  0  0  0  0
    3.2257   -3.8876    2.0432 H   0  0  0  0  0  0  0  0  0  0  0  0
    1.8327   -4.8004    2.5839 H   0  0  0  0  0  0  0  0  0  0  0  0
    0.0005   -3.1873    1.6465 N   0  0  0  0  0  0  0  0  0  0  0  0
   -0.9949   -2.1807    1.3864 C   0  0  2  0  0  0  0  0  0  0  0  0
   -0.3083   -0.8216    1.4164 C   0  0  0  0  0  0  0  0  0  0  0  0
    0.7533   -0.6191    2.0022 O   0  0  0  0  0  0  0  0  0  0  0  0
   -2.1232   -2.2423    2.4042 C   0  0  0  0  0  0  0  0  0  0  0  0
   -0.3048   -4.0823    2.0245 H   0  0  0  0  0  0  0  0  0  0  0  0
   -1.3830   -2.3724    0.3801 H   0  0  0  0  0  0  0  0  0  0  0  0
   -1.7534   -2.0527    3.4185 H   0  0  0  0  0  0  0  0  0  0  0  0
   -2.8936   -1.4947    2.1882 H   0  0  0  0  0  0  0  0  0  0  0  0
   -2.5964   -3.2301    2.4022 H   0  0  0  0  0  0  0  0  0  0  0  0
   -1.0412    0.1517    0.7482 N   0  0  0  0  0  0  0  0  0  0  0  0
   -0.6079    1.5223    0.6467 C   0  0  2  0  0  0  0  0  0  0  0  0
   -1.8060    2.4237    0.9424 C   0  0  0  0  0  0  0  0  0  0  0  0
   -2.5898    2.7991    0.0729 O   0  0  0  0  0  0  0  0  0  0  0  0
    0.0563    1.8472   -0.7130 C   0  0  2  0  0  0  0  0  0  0  0  0
    1.3493    1.0332   -0.9412 C   0  0  0  0  0  0  0  0  0  0  0  0
    0.3094    3.3561   -0.8302 C   0  0  0  0  0  0  0  0  0  0  0  0
    1.8817    1.1263   -2.3655 C   0  0  0  0  0  0  0  0  0  0  0  0
   -1.9022   -0.1128    0.2753 H   0  0  0  0  0  0  0  0  0  0  0  0
    0.1182    1.6681    1.4567 H   0  0  0  0  0  0  0  0  0  0  0  0
   -0.6516    1.5781   -1.5083 H   0  0  0  0  0  0  0  0  0  0  0  0
    2.1352    1.3958   -0.2687 H   0  0  0  0  0  0  0  0  0  0  0  0
    1.1846   -0.0228   -0.6963 H   0  0  0  0  0  0  0  0  0  0  0  0
    1.0120    3.6939   -0.0609 H   0  0  0  0  0  0  0  0  0  0  0  0
    0.7496    3.6099   -1.7994 H   0  0  0  0  0  0  0  0  0  0  0  0
   -0.6173    3.9286   -0.7192 H   0  0  0  0  0  0  0  0  0  0  0  0
    1.1447    0.7782   -3.0947 H   0  0  0  0  0  0  0  0  0  0  0  0
    2.7726    0.4989   -2.4735 H   0  0  0  0  0  0  0  0  0  0  0  0
    2.1606    2.1548   -2.6148 H   0  0  0  0  0  0  0  0  0  0  0  0
   -1.9116    2.7285    2.2920 N   0  0  0  0  0  0  0  0  0  0  0  0
   -2.9685    3.5482    2.8394 C   0  0  2  0  0  0  0  0  0  0  0  0
   -3.1758    3.1400    4.2919 C   0  0  0  0  0  0  0  0  0  0  0  0
   -2.8427    2.0426    4.7344 O   0  0  0  0  0  0  0  0  0  0  0  0
   -4.2553    3.3962    2.0432 C   0  0  0  0  0  0  0  0  0  0  0  0
   -1.2111    2.3571    2.9268 H   0  0  0  0  0  0  0  0  0  0  0  0
   -2.6185    4.5853    2.7972 H   0  0  0  0  0  0  0  0  0  0  0  0
   -4.6213    2.3634    2.0738 H   0  0  0  0  0  0  0  0  0  0  0  0
   -5.0468    4.0393    2.4418 H   0  0  0  0  0  0  0  0  0  0  0  0
   -4.0970    3.6617    0.9924 H   0  0  0  0  0  0  0  0  0  0  0  0
   -3.8154    4.1292    5.0258 N   0  0  0  0  0  0  0  0  0  0  0  0
   -4.1367    3.9768    6.4256 C   0  0  0  0  0  0  0  0  0  0  0  0
   -4.0380    5.0154    4.5822 H   0  0  0  0  0  0  0  0  0  0  0  0
   -5.1557    3.5752    6.5269 H   0  0  0  0  0  0  0  0  0  0  0  0
   -3.4214    3.2836    6.8925 H   0  0  0  0  0  0  0  0  0  0  0  0
   -4.0773    4.9556    6.9240 H   0  0  0  0  0  0  0  0  0  0  0  0
  1  3  1  0  0  0  0
  1  7  1  0  0  0  0
  1  2  2  0  0  0  0
 37 38  1  0  0  0  0
 38 46  1  0  0  0  0
 38 39  2  0  0  0  0
  8  9  1  0  0  0  0
  9 17  1  0  0  0  0
  9 10  2  0  0  0  0
 18 19  1  0  0  0  0
 19 36  1  0  0  0  0
 19 20  2  0  0  0  0
 22 24  1  0  0  0  0
 37 40  1  0  0  0  0
  8 11  1  0  0  0  0
 21 23  1  0  0  0  0
 46 47  1  0  0  0  0
 21 22  1  0  0  0  0
 36 37  1  0  0  0  0
  7  8  1  0  0  0  0
 18 21  1  0  0  0  0
 17 18  1  0  0  0  0
  3  4  1  0  0  0  0
  3  5  1  0  0  0  0
  3  6  1  0  0  0  0
 24 33  1  0  0  0  0
 24 34  1  0  0  0  0
 24 35  1  0  0  0  0
 40 43  1  0  0  0  0
 40 44  1  0  0  0  0
 40 45  1  0  0  0  0
 11 14  1  0  0  0  0
 11 15  1  0  0  0  0
 11 16  1  0  0  0  0
 23 30  1  0  0  0  0
 23 31  1  0  0  0  0
 23 32  1  0  0  0  0
 47 49  1  0  0  0  0
 47 50  1  0  0  0  0
 47 51  1  0  0  0  0
 22 28  1  0  0  0  0
 22 29  1  0  0  0  0
 37 42  1  0  0  0  0
  8 13  1  0  0  0  0
 18 26  1  0  0  0  0
 21 27  1  0  0  0  0
 46 48  1  0  0  0  0
  7 12  1  0  0  0  0
 36 41  1  0  0  0  0
 17 25  1  0  0  0  0
M  END
$$$$

  -OEChem-05262214473D

 51 50  0     1  0  0  0  0  0999 V2000
    1.3524   -3.0009    1.4091 C   0  0  0  0  0  0  0  0  0  0  0  0
    1.8758   -1.9880    0.9598 O   0  0  0  0  0  0  0  0  0  0  0  0
    2.2030   -4.1782    1.7536 C   0  0  0  0  0  0  0  0  0  0  0  0
    2.3264   -4.8705    0.9053 H   0  0  0  0  0  0  0  0  0  0  0  0
    3.2257   -3.8876    2.0432 H   0  0  0  0  0  0  0  0  0  0  0  0
    1.8327   -4.8004    2.5839 H   0  0  0  0  0  0  0  0  0  0  0  0
    0.0005   -3.1873    1.6465 N   0  0  0  0  0  0  0  0  0  0  0  0
   -0.9949   -2.1807    1.3864 C   0  0  2  0  0  0  0  0  0  0  0  0
   -0.3083   -0.8216    1.4164 C   0  0  0  0  0  0  0  0  0  0  0  0
    0.7533   -0.6191    2.0022 O   0  0  0  0  0  0  0  0  0  0  0  0
   -2.1232   -2.2423    2.4042 C   0  0  0  0  0  0  0  0  0  0  0  0
   -0.3048   -4.0823    2.0245 H   0  0  0  0  0  0  0  0  0  0  0  0
   -1.3830   -2.3724    0.3801 H   0  0  0  0  0  0  0  0  0  0  0  0
   -1.7534   -2.0527    3.4185 H   0  0  0  0  0  0  0  0  0  0  0  0
   -2.8936   -1.4947    2.1882 H   0  0  0  0  0  0  0  0  0  0  0  0
   -2.5964   -3.2301    2.4022 H   0  0  0  0  0  0  0  0  0  0  0  0
   -1.0412    0.1517    0.7482 N   0  0  0  0  0  0  0  0  0  0  0  0
   -0.6079    1.5223    0.6467 C   0  0  2  0  0  0  0  0  0  0  0  0
   -1.8060    2.4237    0.9424 C   0  0  0  0  0  0  0  0  0  0  0  0
   -2.7325    2.5840    0.1504 O   0  0  0  0  0  0  0  0  0  0  0  0
    0.0563    1.8472   -0.7130 C   0  0  2  0  0  0  0  0  0  0  0  0
    1.3493    1.0332   -0.9412 C   0  0  0  0  0  0  0  0  0  0  0  0
    0.3094    3.3561   -0.8302 C   0  0  0  0  0  0  0  0  0  0  0  0
    1.8817    1.1263   -2.3655 C   0  0  0  0  0  0  0  0  0  0  0  0
   -1.9022   -0.1128    0.2753 H   0  0  0  0  0  0  0  0  0  0  0  0
    0.1182    1.6681    1.4567 H   0  0  0  0  0  0  0  0  0  0  0  0
   -0.6516    1.5781   -1.5083 H   0  0  0  0  0  0  0  0  0  0  0  0
    2.1352    1.3958   -0.2687 H   0  0  0  0  0  0  0  0  0  0  0  0
    1.1846   -0.0228   -0.6963 H   0  0  0  0  0  0  0  0  0  0  0  0
    1.0120    3.6939   -0.0609 H   0  0  0  0  0  0  0  0  0  0  0  0
    0.7496    3.6099   -1.7994 H   0  0  0  0  0  0  0  0  0  0  0  0
   -0.6173    3.9286   -0.7192 H   0  0  0  0  0  0  0  0  0  0  0  0
    1.1447    0.7782   -3.0947 H   0  0  0  0  0  0  0  0  0  0  0  0
    2.7726    0.4989   -2.4735 H   0  0  0  0  0  0  0  0  0  0  0  0
    2.1606    2.1548   -2.6148 H   0  0  0  0  0  0  0  0  0  0  0  0
   -1.7312    2.9972    2.2037 N   0  0  0  0  0  0  0  0  0  0  0  0
   -2.7475    3.8756    2.7368 C   0  0  2  0  0  0  0  0  0  0  0  0
   -2.7109    3.7698    4.2557 C   0  0  0  0  0  0  0  0  0  0  0  0
   -2.2447    2.7997    4.8495 O   0  0  0  0  0  0  0  0  0  0  0  0
   -4.1248    3.5182    2.2001 C   0  0  0  0  0  0  0  0  0  0  0  0
   -0.9218    2.7894    2.7810 H   0  0  0  0  0  0  0  0  0  0  0  0
   -2.4766    4.8930    2.4344 H   0  0  0  0  0  0  0  0  0  0  0  0
   -4.4135    2.5021    2.4930 H   0  0  0  0  0  0  0  0  0  0  0  0
   -4.8895    4.2023    2.5826 H   0  0  0  0  0  0  0  0  0  0  0  0
   -4.1411    3.5659    1.1059 H   0  0  0  0  0  0  0  0  0  0  0  0
   -3.2991    4.8668    4.8696 N   0  0  0  0  0  0  0  0  0  0  0  0
   -3.3996    4.9963    6.3045 C   0  0  0  0  0  0  0  0  0  0  0  0
   -3.6425    5.6340    4.2993 H   0  0  0  0  0  0  0  0  0  0  0  0
   -4.3639    4.5895    6.6433 H   0  0  0  0  0  0  0  0  0  0  0  0
   -2.5792    4.4396    6.7811 H   0  0  0  0  0  0  0  0  0  0  0  0
   -3.3319    6.0584    6.5824 H   0  0  0  0  0  0  0  0  0  0  0  0
  1  3  1  0  0  0  0
  1  7  1  0  0  0  0
  1  2  2  0  0  0  0
 37 38  1  0  0  0  0
 38 46  1  0  0  0  0
 38 39  2  0  0  0  0
  8  9  1  0  0  0  0
  9 17  1  0  0  0  0
  9 10  2  0  0  0  0
 18 19  1  0  0  0  0
 19 36  1  0  0  0  0
 19 20  2  0  0  0  0
 22 24  1  0  0  0  0
 37 40  1  0  0  0  0
  8 11  1  0  0  0  0
 21 23  1  0  0  0  0
 46 47  1  0  0  0  0
 21 22  1  0  0  0  0
 36 37  1  0  0  0  0
  7  8  1  0  0  0  0
 18 21  1  0  0  0  0
 17 18  1  0  0  0  0
  3  4  1  0  0  0  0
  3  5  1  0  0  0  0
  3  6  1  0  0  0  0
 24 33  1  0  0  0  0
 24 34  1  0  0  0  0
 24 35  1  0  0  0  0
 40 43  1  0  0  0  0
 40 44  1  0  0  0  0
 40 45  1  0  0  0  0
 11 14  1  0  0  0  0
 11 15  1  0  0  0  0
 11 16  1  0  0  0  0
 23 30  1  0  0  0  0
 23 31  1  0  0  0  0
 23 32  1  0  0  0  0
 47 49  1  0  0  0  0
 47 50  1  0  0  0  0
 47 51  1  0  0  0  0
 22 28  1  0  0  0  0
 22 29  1  0  0  0  0
 37 42  1  0  0  0  0
  8 13  1  0  0  0  0
 18 26  1  0  0  0  0
 21 27  1  0  0  0  0
 46 48  1  0  0  0  0
  7 12  1  0  0  0  0
 36 41  1  0  0  0  0
 17 25  1  0  0  0  0
M  END
$$$$

  -OEChem-05262214473D

 51 50  0     1  0  0  0  0  0999 V2000
    1.3524   -3.0009    1.4091 C   0  0  0  0  0  0  0  0  0  0  0  0
    1.8758   -1.9880    0.9598 O   0  0  0  0  0  0  0  0  0  0  0  0
    2.2030   -4.1782    1.7536 C   0  0  0  0  0  0  0  0  0  0  0  0
    2.3264   -4.8705    0.9053 H   0  0  0  0  0  0  0  0  0  0  0  0
    3.2257   -3.8876    2.0432 H   0  0  0  0  0  0  0  0  0  0  0  0
    1.8327   -4.8004    2.5839 H   0  0  0  0  0  0  0  0  0  0  0  0
    0.0005   -3.1873    1.6465 N   0  0  0  0  0  0  0  0  0  0  0  0
   -0.9949   -2.1807    1.3864 C   0  0  2  0  0  0  0  0  0  0  0  0
   -0.3083   -0.8216    1.4164 C   0  0  0  0  0  0  0  0  0  0  0  0
    0.7533   -0.6191    2.0022 O   0  0  0  0  0  0  0  0  0  0  0  0
   -2.1232   -2.2423    2.4042 C   0  0  0  0  0  0  0  0  0  0  0  0
   -0.3048   -4.0823    2.0245 H   0  0  0  0  0  0  0  0  0  0  0  0
   -1.3830   -2.3724    0.3801 H   0  0  0  0  0  0  0  0  0  0  0  0
   -1.7534   -2.0527    3.4185 H   0  0  0  0  0  0  0  0  0  0  0  0
   -2.8936   -1.4947    2.1882 H   0  0  0  0  0  0  0  0  0  0  0  0
   -2.5964   -3.2301    2.4022 H   0  0  0  0  0  0  0  0  0  0  0  0
   -1.0412    0.1517    0.7482 N   0  0  0  0  0  0  0  0  0  0  0  0
   -0.6079    1.5223    0.6467 C   0  0  2  0  0  0  0  0  0  0  0  0
   -1.8060    2.4237    0.9424 C   0  0  0  0  0  0  0  0  0  0  0  0
   -2.8477    2.3849    0.2907 O   0  0  0  0  0  0  0  0  0  0  0  0
    0.0563    1.8472   -0.7130 C   0  0  2  0  0  0  0  0  0  0  0  0
    1.3493    1.0332   -0.9412 C   0  0  0  0  0  0  0  0  0  0  0  0
    0.3094    3.3561   -0.8302 C   0  0  0  0  0  0  0  0  0  0  0  0
    1.8817    1.1263   -2.3655 C   0  0  0  0  0  0  0  0  0  0  0  0
   -1.9022   -0.1128    0.2753 H   0  0  0  0  0  0  0  0  0  0  0  0
    0.1182    1.6681    1.4567 H   0  0  0  0  0  0  0  0  0  0  0  0
   -0.6516    1.5781   -1.5083 H   0  0  0  0  0  0  0  0  0  0  0  0
    2.1352    1.3958   -0.2687 H   0  0  0  0  0  0  0  0  0  0  0  0
    1.1846   -0.0228   -0.6963 H   0  0  0  0  0  0  0  0  0  0  0  0
    1.0120    3.6939   -0.0609 H   0  0  0  0  0  0  0  0  0  0  0  0
    0.7496    3.6099   -1.7994 H   0  0  0  0  0  0  0  0  0  0  0  0
   -0.6173    3.9286   -0.7192 H   0  0  0  0  0  0  0  0  0  0  0  0
    1.1447    0.7782   -3.0947 H   0  0  0  0  0  0  0  0  0  0  0  0
    2.7726    0.4989   -2.4735 H   0  0  0  0  0  0  0  0  0  0  0  0
    2.1606    2.1548   -2.6148 H   0  0  0  0  0  0  0  0  0  0  0  0
   -1.5839    3.2479    2.0364 N   0  0  0  0  0  0  0  0  0  0  0  0
   -2.5661    4.1821    2.5376 C   0  0  2  0  0  0  0  0  0  0  0  0
   -2.2989    4.3940    4.0219 C   0  0  0  0  0  0  0  0  0  0  0  0
   -1.6875    3.5843    4.7158 O   0  0  0  0  0  0  0  0  0  0  0  0
   -3.9809    3.6744    2.3070 C   0  0  0  0  0  0  0  0  0  0  0  0
   -0.6863    3.1919    2.5084 H   0  0  0  0  0  0  0  0  0  0  0  0
   -2.4103    5.1237    1.9998 H   0  0  0  0  0  0  0  0  0  0  0  0
   -4.1557    2.7316    2.8381 H   0  0  0  0  0  0  0  0  0  0  0  0
   -4.7241    4.3961    2.6615 H   0  0  0  0  0  0  0  0  0  0  0  0
   -4.1615    3.4942    1.2418 H   0  0  0  0  0  0  0  0  0  0  0  0
   -2.8611    5.5734    4.4902 N   0  0  0  0  0  0  0  0  0  0  0  0
   -2.7571    5.9933    5.8682 C   0  0  0  0  0  0  0  0  0  0  0  0
   -3.3346    6.1938    3.8401 H   0  0  0  0  0  0  0  0  0  0  0  0
   -3.6320    5.6326    6.4289 H   0  0  0  0  0  0  0  0  0  0  0  0
   -1.8406    5.5757    6.3105 H   0  0  0  0  0  0  0  0  0  0  0  0
   -2.7193    7.0917    5.9148 H   0  0  0  0  0  0  0  0  0  0  0  0
  1  3  1  0  0  0  0
  1  7  1  0  0  0  0
  1  2  2  0  0  0  0
 37 38  1  0  0  0  0
 38 46  1  0  0  0  0
 38 39  2  0  0  0  0
  8  9  1  0  0  0  0
  9 17  1  0  0  0  0
  9 10  2  0  0  0  0
 18 19  1  0  0  0  0
 19 36  1  0  0  0  0
 19 20  2  0  0  0  0
 22 24  1  0  0  0  0
 37 40  1  0  0  0  0
  8 11  1  0  0  0  0
 21 23  1  0  0  0  0
 46 47  1  0  0  0  0
 21 22  1  0  0  0  0
 36 37  1  0  0  0  0
  7  8  1  0  0  0  0
 18 21  1  0  0  0  0
 17 18  1  0  0  0  0
  3  4  1  0  0  0  0
  3  5  1  0  0  0  0
  3  6  1  0  0  0  0
 24 33  1  0  0  0  0
 24 34  1  0  0  0  0
 24 35  1  0  0  0  0
 40 43  1  0  0  0  0
 40 44  1  0  0  0  0
 40 45  1  0  0  0  0
 11 14  1  0  0  0  0
 11 15  1  0  0  0  0
 11 16  1  0  0  0  0
 23 30  1  0  0  0  0
 23 31  1  0  0  0  0
 23 32  1  0  0  0  0
 47 49  1  0  0  0  0
 47 50  1  0  0  0  0
 47 51  1  0  0  0  0
 22 28  1  0  0  0  0
 22 29  1  0  0  0  0
 37 42  1  0  0  0  0
  8 13  1  0  0  0  0
 18 26  1  0  0  0  0
 21 27  1  0  0  0  0
 46 48  1  0  0  0  0
  7 12  1  0  0  0  0
 36 41  1  0  0  0  0
 17 25  1  0  0  0  0
M  END
$$$$

  -OEChem-05262214473D

 51 50  0     1  0  0  0  0  0999 V2000
    1.3524   -3.0009    1.4091 C   0  0  0  0  0  0  0  0  0  0  0  0
    1.8758   -1.9880    0.9598 O   0  0  0  0  0  0  0  0  0  0  0  0
    2.2030   -4.1782    1.7536 C   0  0  0  0  0  0  0  0  0  0  0  0
    2.3264   -4.8705    0.9053 H   0  0  0  0  0  0  0  0  0  0  0  0
    3.2257   -3.8876    2.0432 H   0  0  0  0  0  0  0  0  0  0  0  0
    1.8327   -4.8004    2.5839 H   0  0  0  0  0  0  0  0  0  0  0  0
    0.0005   -3.1873    1.6465 N   0  0  0  0  0  0  0  0  0  0  0  0
   -0.9949   -2.1807    1.3864 C   0  0  2  0  0  0  0  0  0  0  0  0
   -0.3083   -0.8216    1.4164 C   0  0  0  0  0  0  0  0  0  0  0  0
    0.7533   -0.6191    2.0022 O   0  0  0  0  0  0  0  0  0  0  0  0
   -2.1232   -2.2423    2.4042 C   0  0  0  0  0  0  0  0  0  0  0  0
   -0.3048   -4.0823    2.0245 H   0  0  0  0  0  0  0  0  0  0  0  0
   -1.3830   -2.3724    0.3801 H   0  0  0  0  0  0  0  0  0  0  0  0
   -1.7534   -2.0527    3.4185 H   0  0  0  0  0  0  0  0  0  0  0  0
   -2.8936   -1.4947    2.1882 H   0  0  0  0  0  0  0  0  0  0  0  0
   -2.5964   -3.2301    2.4022 H   0  0  0  0  0  0  0  0  0  0  0  0
   -1.0412    0.1517    0.7482 N   0  0  0  0  0  0  0  0  0  0  0  0
   -0.6079    1.5223    0.6467 C   0  0  2  0  0  0  0  0  0  0  0  0
   -1.8060    2.4237    0.9424 C   0  0  0  0  0  0  0  0  0  0  0  0
   -2.9276    2.2152    0.4842 O   0  0  0  0  0  0  0  0  0  0  0  0
    0.0563    1.8472   -0.7130 C   0  0  2  0  0  0  0  0  0  0  0  0
    1.3493    1.0332   -0.9412 C   0  0  0  0  0  0  0  0  0  0  0  0
    0.3094    3.3561   -0.8302 C   0  0  0  0  0  0  0  0  0  0  0  0
    1.8817    1.1263   -2.3655 C   0  0  0  0  0  0  0  0  0  0  0  0
   -1.9022   -0.1128    0.2753 H   0  0  0  0  0  0  0  0  0  0  0  0
    0.1182    1.6681    1.4567 H   0  0  0  0  0  0  0  0  0  0  0  0
   -0.6516    1.5781   -1.5083 H   0  0  0  0  0  0  0  0  0  0  0  0
    2.1352    1.3958   -0.2687 H   0  0  0  0  0  0  0  0  0  0  0  0
    1.1846   -0.0228   -0.6963 H   0  0  0  0  0  0  0  0  0  0  0  0
    1.0120    3.6939   -0.0609 H   0  0  0  0  0  0  0  0  0  0  0  0
    0.7496    3.6099   -1.7994 H   0  0  0  0  0  0  0  0  0  0  0  0
   -0.6173    3.9286   -0.7192 H   0  0  0  0  0  0  0  0  0  0  0  0
    1.1447    0.7782   -3.0947 H   0  0  0  0  0  0  0  0  0  0  0  0
    2.7726    0.4989   -2.4735 H   0  0  0  0  0  0  0  0  0  0  0  0
    2.1606    2.1548   -2.6148 H   0  0  0  0  0  0  0  0  0  0  0  0
   -1.4797    3.4635    1.8014 N   0  0  0  0  0  0  0  0  0  0  0  0
   -2.4365    4.4469    2.2553 C   0  0  2  0  0  0  0  0  0  0  0  0
   -1.9680    4.9702    3.6066 C   0  0  0  0  0  0  0  0  0  0  0  0
   -1.2089    4.3429    4.3423 O   0  0  0  0  0  0  0  0  0  0  0  0
   -3.8334    3.8542    2.3566 C   0  0  0  0  0  0  0  0  0  0  0  0
   -0.5206    3.5371    2.1274 H   0  0  0  0  0  0  0  0  0  0  0  0
   -2.4241    5.2616    1.5232 H   0  0  0  0  0  0  0  0  0  0  0  0
   -3.8655    3.0362    3.0855 H   0  0  0  0  0  0  0  0  0  0  0  0
   -4.5621    4.6077    2.6731 H   0  0  0  0  0  0  0  0  0  0  0  0
   -4.1569    3.4515    1.3907 H   0  0  0  0  0  0  0  0  0  0  0  0
   -2.5313    6.2009    3.9135 N   0  0  0  0  0  0  0  0  0  0  0  0
   -2.2531    6.9000    5.1463 C   0  0  0  0  0  0  0  0  0  0  0  0
   -3.1354    6.6568    3.2360 H   0  0  0  0  0  0  0  0  0  0  0  0
   -3.0101    6.6333    5.8985 H   0  0  0  0  0  0  0  0  0  0  0  0
   -1.2559    6.6146    5.5125 H   0  0  0  0  0  0  0  0  0  0  0  0
   -2.2812    7.9849    4.9668 H   0  0  0  0  0  0  0  0  0  0  0  0
  1  3  1  0  0  0  0
  1  7  1  0  0  0  0
  1  2  2  0  0  0  0
 37 38  1  0  0  0  0
 38 46  1  0  0  0  0
 38 39  2  0  0  0  0
  8  9  1  0  0  0  0
  9 17  1  0  0  0  0
  9 10  2  0  0  0  0
 18 19  1  0  0  0  0
 19 36  1  0  0  0  0
 19 20  2  0  0  0  0
 22 24  1  0  0  0  0
 37 40  1  0  0  0  0
  8 11  1  0  0  0  0
 21 23  1  0  0  0  0
 46 47  1  0  0  0  0
 21 22  1  0  0  0  0
 36 37  1  0  0  0  0
  7  8  1  0  0  0  0
 18 21  1  0  0  0  0
 17 18  1  0  0  0  0
  3  4  1  0  0  0  0
  3  5  1  0  0  0  0
  3  6  1  0  0  0  0
 24 33  1  0  0  0  0
 24 34  1  0  0  0  0
 24 35  1  0  0  0  0
 40 43  1  0  0  0  0
 40 44  1  0  0  0  0
 40 45  1  0  0  0  0
 11 14  1  0  0  0  0
 11 15  1  0  0  0  0
 11 16  1  0  0  0  0
 23 30  1  0  0  0  0
 23 31  1  0  0  0  0
 23 32  1  0  0  0  0
 47 49  1  0  0  0  0
 47 50  1  0  0  0  0
 47 51  1  0  0  0  0
 22 28  1  0  0  0  0
 22 29  1  0  0  0  0
 37 42  1  0  0  0  0
  8 13  1  0  0  0  0
 18 26  1  0  0  0  0
 21 27  1  0  0  0  0
 46 48  1  0  0  0  0
  7 12  1  0  0  0  0
 36 41  1  0  0  0  0
 17 25  1  0  0  0  0
M  END
$$$$

  -OEChem-05262214473D

 51 50  0     1  0  0  0  0  0999 V2000
    1.3524   -3.0009    1.4091 C   0  0  0  0  0  0  0  0  0  0  0  0
    1.8758   -1.9880    0.9598 O   0  0  0  0  0  0  0  0  0  0  0  0
    2.2030   -4.1782    1.7536 C   0  0  0  0  0  0  0  0  0  0  0  0
    2.3264   -4.8705    0.9053 H   0  0  0  0  0  0  0  0  0  0  0  0
    3.2257   -3.8876    2.0432 H   0  0  0  0  0  0  0  0  0  0  0  0
    1.8327   -4.8004    2.5839 H   0  0  0  0  0  0  0  0  0  0  0  0
    0.0005   -3.1873    1.6465 N   0  0  0  0  0  0  0  0  0  0  0  0
   -0.9949   -2.1807    1.3864 C   0  0  2  0  0  0  0  0  0  0  0  0
   -0.3083   -0.8216    1.4164 C   0  0  0  0  0  0  0  0  0  0  0  0
    0.7533   -0.6191    2.0022 O   0  0  0  0  0  0  0  0  0  0  0  0
   -2.1232   -2.2423    2.4042 C   0  0  0  0  0  0  0  0  0  0  0  0
   -0.3048   -4.0823    2.0245 H   0  0  0  0  0  0  0  0  0  0  0  0
   -1.3830   -2.3724    0.3801 H   0  0  0  0  0  0  0  0  0  0  0  0
   -1.7534   -2.0527    3.4185 H   0  0  0  0  0  0  0  0  0  0  0  0
   -2.8936   -1.4947    2.1882 H   0  0  0  0  0  0  0  0  0  0  0  0
   -2.5964   -3.2301    2.4022 H   0  0  0  0  0  0  0  0  0  0  0  0
   -1.0412    0.1517    0.7482 N   0  0  0  0  0  0  0  0  0  0  0  0
   -0.6079    1.5223    0.6467 C   0  0  2  0  0  0  0  0  0  0  0  0
   -1.8060    2.4237    0.9424 C   0  0  0  0  0  0  0  0  0  0  0  0
   -2.9667    2.0866    0.7177 O   0  0  0  0  0  0  0  0  0  0  0  0
    0.0563    1.8472   -0.7130 C   0  0  2  0  0  0  0  0  0  0  0  0
    1.3493    1.0332   -0.9412 C   0  0  0  0  0  0  0  0  0  0  0  0
    0.3094    3.3561   -0.8302 C   0  0  0  0  0  0  0  0  0  0  0  0
    1.8817    1.1263   -2.3655 C   0  0  0  0  0  0  0  0  0  0  0  0
   -1.9022   -0.1128    0.2753 H   0  0  0  0  0  0  0  0  0  0  0  0
    0.1182    1.6681    1.4567 H   0  0  0  0  0  0  0  0  0  0  0  0
   -0.6516    1.5781   -1.5083 H   0  0  0  0  0  0  0  0  0  0  0  0
    2.1352    1.3958   -0.2687 H   0  0  0  0  0  0  0  0  0  0  0  0
    1.1846   -0.0228   -0.6963 H   0  0  0  0  0  0  0  0  0  0  0  0
    1.0120    3.6939   -0.0609 H   0  0  0  0  0  0  0  0  0  0  0  0
    0.7496    3.6099   -1.7994 H   0  0  0  0  0  0  0  0  0  0  0  0
   -0.6173    3.9286   -0.7192 H   0  0  0  0  0  0  0  0  0  0  0  0
    1.1447    0.7782   -3.0947 H   0  0  0  0  0  0  0  0  0  0  0  0
    2.7726    0.4989   -2.4735 H   0  0  0  0  0  0  0  0  0  0  0  0
    2.1606    2.1548   -2.6148 H   0  0  0  0  0  0  0  0  0  0  0  0
   -1.4258    3.6292    1.5148 N   0  0  0  0  0  0  0  0  0  0  0  0
   -2.3678    4.6518    1.9091 C   0  0  2  0  0  0  0  0  0  0  0  0
   -1.7405    5.4590    3.0379 C   0  0  0  0  0  0  0  0  0  0  0  0
   -0.8416    5.0239    3.7546 O   0  0  0  0  0  0  0  0  0  0  0  0
   -3.6924    4.0453    2.3455 C   0  0  0  0  0  0  0  0  0  0  0  0
   -0.4360    3.8015    1.6641 H   0  0  0  0  0  0  0  0  0  0  0  0
   -2.5172    5.2975    1.0368 H   0  0  0  0  0  0  0  0  0  0  0  0
   -3.5627    3.3951    3.2184 H   0  0  0  0  0  0  0  0  0  0  0  0
   -4.4144    4.8225    2.6167 H   0  0  0  0  0  0  0  0  0  0  0  0
   -4.1276    3.4407    1.5424 H   0  0  0  0  0  0  0  0  0  0  0  0
   -2.3322    6.7065    3.1787 N   0  0  0  0  0  0  0  0  0  0  0  0
   -1.9219    7.6546    4.1881 C   0  0  0  0  0  0  0  0  0  0  0  0
   -3.0583    6.9915    2.5280 H   0  0  0  0  0  0  0  0  0  0  0  0
   -2.5404    7.5234    5.0882 H   0  0  0  0  0  0  0  0  0  0  0  0
   -0.8650    7.4855    4.4417 H   0  0  0  0  0  0  0  0  0  0  0  0
   -2.0475    8.6773    3.8030 H   0  0  0  0  0  0  0  0  0  0  0  0
  1  3  1  0  0  0  0
  1  7  1  0  0  0  0
  1  2  2  0  0  0  0
 37 38  1  0  0  0  0
 38 46  1  0  0  0  0
 38 39  2  0  0  0  0
  8  9  1  0  0  0  0
  9 17  1  0  0  0  0
  9 10  2  0  0  0  0
 18 19  1  0  0  0  0
 19 36  1  0  0  0  0
 19 20  2  0  0  0  0
 22 24  1  0  0  0  0
 37 40  1  0  0  0  0
  8 11  1  0  0  0  0
 21 23  1  0  0  0  0
 46 47  1  0  0  0  0
 21 22  1  0  0  0  0
 36 37  1  0  0  0  0
  7  8  1  0  0  0  0
 18 21  1  0  0  0  0
 17 18  1  0  0  0  0
  3  4  1  0  0  0  0
  3  5  1  0  0  0  0
  3  6  1  0  0  0  0
 24 33  1  0  0  0  0
 24 34  1  0  0  0  0
 24 35  1  0  0  0  0
 40 43  1  0  0  0  0
 40 44  1  0  0  0  0
 40 45  1  0  0  0  0
 11 14  1  0  0  0  0
 11 15  1  0  0  0  0
 11 16  1  0  0  0  0
 23 30  1  0  0  0  0
 23 31  1  0  0  0  0
 23 32  1  0  0  0  0
 47 49  1  0  0  0  0
 47 50  1  0  0  0  0
 47 51  1  0  0  0  0
 22 28  1  0  0  0  0
 22 29  1  0  0  0  0
 37 42  1  0  0  0  0
  8 13  1  0  0  0  0
 18 26  1  0  0  0  0
 21 27  1  0  0  0  0
 46 48  1  0  0  0  0
  7 12  1  0  0  0  0
 36 41  1  0  0  0  0
 17 25  1  0  0  0  0
M  END
$$$$

  -OEChem-05262214473D

 51 50  0     1  0  0  0  0  0999 V2000
    1.3524   -3.0009    1.4091 C   0  0  0  0  0  0  0  0  0  0  0  0
    1.8758   -1.9880    0.9598 O   0  0  0  0  0  0  0  0  0  0  0  0
    2.2030   -4.1782    1.7536 C   0  0  0  0  0  0  0  0  0  0  0  0
    2.3264   -4.8705    0.9053 H   0  0  0  0  0  0  0  0  0  0  0  0
    3.2257   -3.8876    2.0432 H   0  0  0  0  0  0  0  0  0  0  0  0
    1.8327   -4.8004    2.5839 H   0  0  0  0  0  0  0  0  0  0  0  0
    0.0005   -3.1873    1.6465 N   0  0  0  0  0  0  0  0  0  0  0  0
   -0.9949   -2.1807    1.3864 C   0  0  2  0  0  0  0  0  0  0  0  0
   -0.3083   -0.8216    1.4164 C   0  0  0  0  0  0  0  0  0  0  0  0
    0.7533   -0.6191    2.0022 O   0  0  0  0  0  0  0  0  0  0  0  0
   -2.1232   -2.2423    2.4042 C   0  0  0  0  0  0  0  0  0  0  0  0
   -0.3048   -4.0823    2.0245 H   0  0  0  0  0  0  0  0  0  0  0  0
   -1.3830   -2.3724    0.3801 H   0  0  0  0  0  0  0  0  0  0  0  0
   -1.7534   -2.0527    3.4185 H   0  0  0  0  0  0  0  0  0  0  0  0
   -2.8936   -1.4947    2.1882 H   0  0  0  0  0  0  0  0  0  0  0  0
   -2.5964   -3.2301    2.4022 H   0  0  0  0  0  0  0  0  0  0  0  0
   -1.0412    0.1517    0.7482 N   0  0  0  0  0  0  0  0  0  0  0  0
   -0.6079    1.5223    0.6467 C   0  0  2  0  0  0  0  0  0  0  0  0
   -1.8060    2.4237    0.9424 C   0  0  0  0  0  0  0  0  0  0  0  0
   -2.9624    2.0078    0.9754 O   0  0  0  0  0  0  0  0  0  0  0  0
    0.0563    1.8472   -0.7130 C   0  0  2  0  0  0  0  0  0  0  0  0
    1.3493    1.0332   -0.9412 C   0  0  0  0  0  0  0  0  0  0  0  0
    0.3094    3.3561   -0.8302 C   0  0  0  0  0  0  0  0  0  0  0  0
    1.8817    1.1263   -2.3655 C   0  0  0  0  0  0  0  0  0  0  0  0
   -1.9022   -0.1128    0.2753 H   0  0  0  0  0  0  0  0  0  0  0  0
    0.1182    1.6681    1.4567 H   0  0  0  0  0  0  0  0  0  0  0  0
   -0.6516    1.5781   -1.5083 H   0  0  0  0  0  0  0  0  0  0  0  0
    2.1352    1.3958   -0.2687 H   0  0  0  0  0  0  0  0  0  0  0  0
    1.1846   -0.0228   -0.6963 H   0  0  0  0  0  0  0  0  0  0  0  0
    1.0120    3.6939   -0.0609 H   0  0  0  0  0  0  0  0  0  0  0  0
    0.7496    3.6099   -1.7994 H   0  0  0  0  0  0  0  0  0  0  0  0
   -0.6173    3.9286   -0.7192 H   0  0  0  0  0  0  0  0  0  0  0  0
    1.1447    0.7782   -3.0947 H   0  0  0  0  0  0  0  0  0  0  0  0
    2.7726    0.4989   -2.4735 H   0  0  0  0  0  0  0  0  0  0  0  0
    2.1606    2.1548   -2.6148 H   0  0  0  0  0  0  0  0  0  0  0  0
   -1.4257    3.7338    1.1961 N   0  0  0  0  0  0  0  0  0  0  0  0
   -2.3645    4.7829    1.5226 C   0  0  2  0  0  0  0  0  0  0  0  0
   -1.6321    5.8272    2.3548 C   0  0  0  0  0  0  0  0  0  0  0  0
   -0.6106    5.5808    2.9926 O   0  0  0  0  0  0  0  0  0  0  0  0
   -3.5674    4.2347    2.2744 C   0  0  0  0  0  0  0  0  0  0  0  0
   -0.4382    3.9672    1.1500 H   0  0  0  0  0  0  0  0  0  0  0  0
   -2.6831    5.2287    0.5740 H   0  0  0  0  0  0  0  0  0  0  0  0
   -3.2679    3.7839    3.2276 H   0  0  0  0  0  0  0  0  0  0  0  0
   -4.2912    5.0259    2.4960 H   0  0  0  0  0  0  0  0  0  0  0  0
   -4.0755    3.4625    1.6868 H   0  0  0  0  0  0  0  0  0  0  0  0
   -2.2774    7.0558    2.3360 N   0  0  0  0  0  0  0  0  0  0  0  0
   -1.7860    8.2056    3.0588 C   0  0  0  0  0  0  0  0  0  0  0  0
   -3.1087    7.1749    1.7646 H   0  0  0  0  0  0  0  0  0  0  0  0
   -2.2550    8.2422    4.0532 H   0  0  0  0  0  0  0  0  0  0  0  0
   -0.6944    8.1290    3.1710 H   0  0  0  0  0  0  0  0  0  0  0  0
   -2.0341    9.1217    2.5026 H   0  0  0  0  0  0  0  0  0  0  0  0
  1  3  1  0  0  0  0
  1  7  1  0  0  0  0
  1  2  2  0  0  0  0
 37 38  1  0  0  0  0
 38 46  1  0  0  0  0
 38 39  2  0  0  0  0
  8  9  1  0  0  0  0
  9 17  1  0  0  0  0
  9 10  2  0  0  0  0
 18 19  1  0  0  0  0
 19 36  1  0  0  0  0
 19 20  2  0  0  0  0
 22 24  1  0  0  0  0
 37 40  1  0  0  0  0
  8 11  1  0  0  0  0
 21 23  1  0  0  0  0
 46 47  1  0  0  0  0
 21 22  1  0  0  0  0
 36 37  1  0  0  0  0
  7  8  1  0  0  0  0
 18 21  1  0  0  0  0
 17 18  1  0  0  0  0
  3  4  1  0  0  0  0
  3  5  1  0  0  0  0
  3  6  1  0  0  0  0
 24 33  1  0  0  0  0
 24 34  1  0  0  0  0
 24 35  1  0  0  0  0
 40 43  1  0  0  0  0
 40 44  1  0  0  0  0
 40 45  1  0  0  0  0
 11 14  1  0  0  0  0
 11 15  1  0  0  0  0
 11 16  1  0  0  0  0
 23 30  1  0  0  0  0
 23 31  1  0  0  0  0
 23 32  1  0  0  0  0
 47 49  1  0  0  0  0
 47 50  1  0  0  0  0
 47 51  1  0  0  0  0
 22 28  1  0  0  0  0
 22 29  1  0  0  0  0
 37 42  1  0  0  0  0
  8 13  1  0  0  0  0
 18 26  1  0  0  0  0
 21 27  1  0  0  0  0
 46 48  1  0  0  0  0
  7 12  1  0  0  0  0
 36 41  1  0  0  0  0
 17 25  1  0  0  0  0
M  END
$$$$

  -OEChem-05262214473D

 51 50  0     1  0  0  0  0  0999 V2000
    1.3524   -3.0009    1.4091 C   0  0  0  0  0  0  0  0  0  0  0  0
    1.8758   -1.9880    0.9598 O   0  0  0  0  0  0  0  0  0  0  0  0
    2.2030   -4.1782    1.7536 C   0  0  0  0  0  0  0  0  0  0  0  0
    2.3264   -4.8705    0.9053 H   0  0  0  0  0  0  0  0  0  0  0  0
    3.2257   -3.8876    2.0432 H   0  0  0  0  0  0  0  0  0  0  0  0
    1.8327   -4.8004    2.5839 H   0  0  0  0  0  0  0  0  0  0  0  0
    0.0005   -3.1873    1.6465 N   0  0  0  0  0  0  0  0  0  0  0  0
   -0.9949   -2.1807    1.3864 C   0  0  2  0  0  0  0  0  0  0  0  0
   -0.3083   -0.8216    1.4164 C   0  0  0  0  0  0  0  0  0  0  0  0
    0.7533   -0.6191    2.0022 O   0  0  0  0  0  0  0  0  0  0  0  0
   -2.1232   -2.2423    2.4042 C   0  0  0  0  0  0  0  0  0  0  0  0
   -0.3048   -4.0823    2.0245 H   0  0  0  0  0  0  0  0  0  0  0  0
   -1.3830   -2.3724    0.3801 H   0  0  0  0  0  0  0  0  0  0  0  0
   -1.7534   -2.0527    3.4185 H   0  0  0  0  0  0  0  0  0  0  0  0
   -2.8936   -1.4947    2.1882 H   0  0  0  0  0  0  0  0  0  0  0  0
   -2.5964   -3.2301    2.4022 H   0  0  0  0  0  0  0  0  0  0  0  0
   -1.0412    0.1517    0.7482 N   0  0  0  0  0  0  0  0  0  0  0  0
   -0.6079    1.5223    0.6467 C   0  0  2  0  0  0  0  0  0  0  0  0
   -1.6711    2.4072    1.2962 C   0  0  0  0  0  0  0  0  0  0  0  0
   -2.6851    1.9547    1.8240 O   0  0  0  0  0  0  0  0  0  0  0  0
   -0.2889    1.9494   -0.8063 C   0  0  2  0  0  0  0  0  0  0  0  0
    0.8852    1.1454   -1.4075 C   0  0  0  0  0  0  0  0  0  0  0  0
   -0.0303    3.4607   -0.8681 C   0  0  0  0  0  0  0  0  0  0  0  0
    1.0542    1.3478   -2.9079 C   0  0  0  0  0  0  0  0  0  0  0  0
   -1.9022   -0.1128    0.2753 H   0  0  0  0  0  0  0  0  0  0  0  0
    0.2985    1.5966    1.2610 H   0  0  0  0  0  0  0  0  0  0  0  0
   -1.1776    1.7509   -1.4202 H   0  0  0  0  0  0  0  0  0  0  0  0
    1.8219    1.4463   -0.9244 H   0  0  0  0  0  0  0  0  0  0  0  0
    0.7562    0.0746   -1.2100 H   0  0  0  0  0  0  0  0  0  0  0  0
    0.8489    3.7298   -0.2728 H   0  0  0  0  0  0  0  0  0  0  0  0
    0.1655    3.7875   -1.8939 H   0  0  0  0  0  0  0  0  0  0  0  0
   -0.8850    4.0303   -0.4888 H   0  0  0  0  0  0  0  0  0  0  0  0
    0.1513    1.0655   -3.4568 H   0  0  0  0  0  0  0  0  0  0  0  0
    1.8734    0.7235   -3.2797 H   0  0  0  0  0  0  0  0  0  0  0  0
    1.2920    2.3906   -3.1400 H   0  0  0  0  0  0  0  0  0  0  0  0
   -1.3356    3.7527    1.2445 N   0  0  0  0  0  0  0  0  0  0  0  0
   -2.1613    4.7979    1.8051 C   0  0  2  0  0  0  0  0  0  0  0  0
   -1.2564    5.9671    2.1705 C   0  0  0  0  0  0  0  0  0  0  0  0
   -0.0508    5.8434    2.3764 O   0  0  0  0  0  0  0  0  0  0  0  0
   -2.9291    4.3040    3.0214 C   0  0  0  0  0  0  0  0  0  0  0  0
   -0.4663    4.0161    0.7899 H   0  0  0  0  0  0  0  0  0  0  0  0
   -2.8582    5.1066    1.0183 H   0  0  0  0  0  0  0  0  0  0  0  0
   -2.2475    3.9902    3.8204 H   0  0  0  0  0  0  0  0  0  0  0  0
   -3.5758    5.0886    3.4278 H   0  0  0  0  0  0  0  0  0  0  0  0
   -3.5569    3.4443    2.7633 H   0  0  0  0  0  0  0  0  0  0  0  0
   -1.9611    7.1575    2.2818 N   0  0  0  0  0  0  0  0  0  0  0  0
   -1.3288    8.4081    2.6313 C   0  0  0  0  0  0  0  0  0  0  0  0
   -2.9554    7.1708    2.0747 H   0  0  0  0  0  0  0  0  0  0  0  0
   -1.3787    8.5530    3.7206 H   0  0  0  0  0  0  0  0  0  0  0  0
   -0.2763    8.3885    2.3120 H   0  0  0  0  0  0  0  0  0  0  0  0
   -1.8495    9.2356    2.1272 H   0  0  0  0  0  0  0  0  0  0  0  0
  1  3  1  0  0  0  0
  1  7  1  0  0  0  0
  1  2  2  0  0  0  0
 37 38  1  0  0  0  0
 38 46  1  0  0  0  0
 38 39  2  0  0  0  0
  8  9  1  0  0  0  0
  9 17  1  0  0  0  0
  9 10  2  0  0  0  0
 18 19  1  0  0  0  0
 19 36  1  0  0  0  0
 19 20  2  0  0  0  0
 22 24  1  0  0  0  0
 37 40  1  0  0  0  0
  8 11  1  0  0  0  0
 21 23  1  0  0  0  0
 46 47  1  0  0  0  0
 21 22  1  0  0  0  0
 36 37  1  0  0  0  0
  7  8  1  0  0  0  0
 18 21  1  0  0  0  0
 17 18  1  0  0  0  0
  3  4  1  0  0  0  0
  3  5  1  0  0  0  0
  3  6  1  0  0  0  0
 24 33  1  0  0  0  0
 24 34  1  0  0  0  0
 24 35  1  0  0  0  0
 40 43  1  0  0  0  0
 40 44  1  0  0  0  0
 40 45  1  0  0  0  0
 11 14  1  0  0  0  0
 11 15  1  0  0  0  0
 11 16  1  0  0  0  0
 23 30  1  0  0  0  0
 23 31  1  0  0  0  0
 23 32  1  0  0  0  0
 47 49  1  0  0  0  0
 47 50  1  0  0  0  0
 47 51  1  0  0  0  0
 22 28  1  0  0  0  0
 22 29  1  0  0  0  0
 37 42  1  0  0  0  0
  8 13  1  0  0  0  0
 18 26  1  0  0  0  0
 21 27  1  0  0  0  0
 46 48  1  0  0  0  0
  7 12  1  0  0  0  0
 36 41  1  0  0  0  0
 17 25  1  0  0  0  0
M  END
$$$$

  -OEChem-05262214473D

 51 50  0     1  0  0  0  0  0999 V2000
    1.3524   -3.0009    1.4091 C   0  0  0  0  0  0  0  0  0  0  0  0
    1.8758   -1.9880    0.9598 O   0  0  0  0  0  0  0  0  0  0  0  0
    2.2030   -4.1782    1.7536 C   0  0  0  0  0  0  0  0  0  0  0  0
    2.3264   -4.8705    0.9053 H   0  0  0  0  0  0  0  0  0  0  0  0
    3.2257   -3.8876    2.0432 H   0  0  0  0  0  0  0  0  0  0  0  0
    1.8327   -4.8004    2.5839 H   0  0  0  0  0  0  0  0  0  0  0  0
    0.0005   -3.1873    1.6465 N   0  0  0  0  0  0  0  0  0  0  0  0
   -0.9949   -2.1807    1.3864 C   0  0  2  0  0  0  0  0  0  0  0  0
   -0.3083   -0.8216    1.4164 C   0  0  0  0  0  0  0  0  0  0  0  0
    0.7533   -0.6191    2.0022 O   0  0  0  0  0  0  0  0  0  0  0  0
   -2.1232   -2.2423    2.4042 C   0  0  0  0  0  0  0  0  0  0  0  0
   -0.3048   -4.0823    2.0245 H   0  0  0  0  0  0  0  0  0  0  0  0
   -1.3830   -2.3724    0.3801 H   0  0  0  0  0  0  0  0  0  0  0  0
   -1.7534   -2.0527    3.4185 H   0  0  0  0  0  0  0  0  0  0  0  0
   -2.8936   -1.4947    2.1882 H   0  0  0  0  0  0  0  0  0  0  0  0
   -2.5964   -3.2301    2.4022 H   0  0  0  0  0  0  0  0  0  0  0  0
   -1.0412    0.1517    0.7482 N   0  0  0  0  0  0  0  0  0  0  0  0
   -0.6079    1.5223    0.6467 C   0  0  2  0  0  0  0  0  0  0  0  0
   -1.6711    2.4072    1.2962 C   0  0  0  0  0  0  0  0  0  0  0  0
   -2.5375    1.9668    2.0491 O   0  0  0  0  0  0  0  0  0  0  0  0
   -0.2889    1.9494   -0.8063 C   0  0  2  0  0  0  0  0  0  0  0  0
    0.8852    1.1454   -1.4075 C   0  0  0  0  0  0  0  0  0  0  0  0
   -0.0303    3.4607   -0.8681 C   0  0  0  0  0  0  0  0  0  0  0  0
    1.0542    1.3478   -2.9079 C   0  0  0  0  0  0  0  0  0  0  0  0
   -1.9022   -0.1128    0.2753 H   0  0  0  0  0  0  0  0  0  0  0  0
    0.2985    1.5966    1.2610 H   0  0  0  0  0  0  0  0  0  0  0  0
   -1.1776    1.7509   -1.4202 H   0  0  0  0  0  0  0  0  0  0  0  0
    1.8219    1.4463   -0.9244 H   0  0  0  0  0  0  0  0  0  0  0  0
    0.7562    0.0746   -1.2100 H   0  0  0  0  0  0  0  0  0  0  0  0
    0.8489    3.7298   -0.2728 H   0  0  0  0  0  0  0  0  0  0  0  0
    0.1655    3.7875   -1.8939 H   0  0  0  0  0  0  0  0  0  0  0  0
   -0.8850    4.0303   -0.4888 H   0  0  0  0  0  0  0  0  0  0  0  0
    0.1513    1.0655   -3.4568 H   0  0  0  0  0  0  0  0  0  0  0  0
    1.8734    0.7235   -3.2797 H   0  0  0  0  0  0  0  0  0  0  0  0
    1.2920    2.3906   -3.1400 H   0  0  0  0  0  0  0  0  0  0  0  0
   -1.5152    3.7448    0.9613 N   0  0  0  0  0  0  0  0  0  0  0  0
   -2.3774    4.7924    1.4589 C   0  0  2  0  0  0  0  0  0  0  0  0
   -1.5819    6.0912    1.4686 C   0  0  0  0  0  0  0  0  0  0  0  0
   -0.3535    6.1252    1.4972 O   0  0  0  0  0  0  0  0  0  0  0  0
   -2.9005    4.4650    2.8488 C   0  0  0  0  0  0  0  0  0  0  0  0
   -0.7573    4.0002    0.3352 H   0  0  0  0  0  0  0  0  0  0  0  0
   -3.2102    4.8788    0.7525 H   0  0  0  0  0  0  0  0  0  0  0  0
   -2.0804    4.3746    3.5704 H   0  0  0  0  0  0  0  0  0  0  0  0
   -3.5761    5.2462    3.2126 H   0  0  0  0  0  0  0  0  0  0  0  0
   -3.4469    3.5157    2.8460 H   0  0  0  0  0  0  0  0  0  0  0  0
   -2.4060    7.2078    1.4851 N   0  0  0  0  0  0  0  0  0  0  0  0
   -1.8907    8.5568    1.5090 C   0  0  0  0  0  0  0  0  0  0  0  0
   -3.4135    7.0860    1.4405 H   0  0  0  0  0  0  0  0  0  0  0  0
   -1.8054    8.8989    2.5510 H   0  0  0  0  0  0  0  0  0  0  0  0
   -0.8989    8.5787    1.0337 H   0  0  0  0  0  0  0  0  0  0  0  0
   -2.5751    9.2204    0.9602 H   0  0  0  0  0  0  0  0  0  0  0  0
  1  3  1  0  0  0  0
  1  7  1  0  0  0  0
  1  2  2  0  0  0  0
 37 38  1  0  0  0  0
 38 46  1  0  0  0  0
 38 39  2  0  0  0  0
  8  9  1  0  0  0  0
  9 17  1  0  0  0  0
  9 10  2  0  0  0  0
 18 19  1  0  0  0  0
 19 36  1  0  0  0  0
 19 20  2  0  0  0  0
 22 24  1  0  0  0  0
 37 40  1  0  0  0  0
  8 11  1  0  0  0  0
 21 23  1  0  0  0  0
 46 47  1  0  0  0  0
 21 22  1  0  0  0  0
 36 37  1  0  0  0  0
  7  8  1  0  0  0  0
 18 21  1  0  0  0  0
 17 18  1  0  0  0  0
  3  4  1  0  0  0  0
  3  5  1  0  0  0  0
  3  6  1  0  0  0  0
 24 33  1  0  0  0  0
 24 34  1  0  0  0  0
 24 35  1  0  0  0  0
 40 43  1  0  0  0  0
 40 44  1  0  0  0  0
 40 45  1  0  0  0  0
 11 14  1  0  0  0  0
 11 15  1  0  0  0  0
 11 16  1  0  0  0  0
 23 30  1  0  0  0  0
 23 31  1  0  0  0  0
 23 32  1  0  0  0  0
 47 49  1  0  0  0  0
 47 50  1  0  0  0  0
 47 51  1  0  0  0  0
 22 28  1  0  0  0  0
 22 29  1  0  0  0  0
 37 42  1  0  0  0  0
  8 13  1  0  0  0  0
 18 26  1  0  0  0  0
 21 27  1  0  0  0  0
 46 48  1  0  0  0  0
  7 12  1  0  0  0  0
 36 41  1  0  0  0  0
 17 25  1  0  0  0  0
M  END
$$$$

  -OEChem-05262214473D

 51 50  0     1  0  0  0  0  0999 V2000
    1.3524   -3.0009    1.4091 C   0  0  0  0  0  0  0  0  0  0  0  0
    1.8758   -1.9880    0.9598 O   0  0  0  0  0  0  0  0  0  0  0  0
    2.2030   -4.1782    1.7536 C   0  0  0  0  0  0  0  0  0  0  0  0
    2.3264   -4.8705    0.9053 H   0  0  0  0  0  0  0  0  0  0  0  0
    3.2257   -3.8876    2.0432 H   0  0  0  0  0  0  0  0  0  0  0  0
    1.8327   -4.8004    2.5839 H   0  0  0  0  0  0  0  0  0  0  0  0
    0.0005   -3.1873    1.6465 N   0  0  0  0  0  0  0  0  0  0  0  0
   -0.9949   -2.1807    1.3864 C   0  0  2  0  0  0  0  0  0  0  0  0
   -0.3083   -0.8216    1.4164 C   0  0  0  0  0  0  0  0  0  0  0  0
    0.7533   -0.6191    2.0022 O   0  0  0  0  0  0  0  0  0  0  0  0
   -2.1232   -2.2423    2.4042 C   0  0  0  0  0  0  0  0  0  0  0  0
   -0.3048   -4.0823    2.0245 H   0  0  0  0  0  0  0  0  0  0  0  0
   -1.3830   -2.3724    0.3801 H   0  0  0  0  0  0  0  0  0  0  0  0
   -1.7534   -2.0527    3.4185 H   0  0  0  0  0  0  0  0  0  0  0  0
   -2.8936   -1.4947    2.1882 H   0  0  0  0  0  0  0  0  0  0  0  0
   -2.5964   -3.2301    2.4022 H   0  0  0  0  0  0  0  0  0  0  0  0
   -1.0412    0.1517    0.7482 N   0  0  0  0  0  0  0  0  0  0  0  0
   -0.6079    1.5223    0.6467 C   0  0  2  0  0  0  0  0  0  0  0  0
   -1.6711    2.4072    1.2962 C   0  0  0  0  0  0  0  0  0  0  0  0
   -2.3625    2.0352    2.2423 O   0  0  0  0  0  0  0  0  0  0  0  0
   -0.2889    1.9494   -0.8063 C   0  0  2  0  0  0  0  0  0  0  0  0
    0.8852    1.1454   -1.4075 C   0  0  0  0  0  0  0  0  0  0  0  0
   -0.0303    3.4607   -0.8681 C   0  0  0  0  0  0  0  0  0  0  0  0
    1.0542    1.3478   -2.9079 C   0  0  0  0  0  0  0  0  0  0  0  0
   -1.9022   -0.1128    0.2753 H   0  0  0  0  0  0  0  0  0  0  0  0
    0.2985    1.5966    1.2610 H   0  0  0  0  0  0  0  0  0  0  0  0
   -1.1776    1.7509   -1.4202 H   0  0  0  0  0  0  0  0  0  0  0  0
    1.8219    1.4463   -0.9244 H   0  0  0  0  0  0  0  0  0  0  0  0
    0.7562    0.0746   -1.2100 H   0  0  0  0  0  0  0  0  0  0  0  0
    0.8489    3.7298   -0.2728 H   0  0  0  0  0  0  0  0  0  0  0  0
    0.1655    3.7875   -1.8939 H   0  0  0  0  0  0  0  0  0  0  0  0
   -0.8850    4.0303   -0.4888 H   0  0  0  0  0  0  0  0  0  0  0  0
    0.1513    1.0655   -3.4568 H   0  0  0  0  0  0  0  0  0  0  0  0
    1.8734    0.7235   -3.2797 H   0  0  0  0  0  0  0  0  0  0  0  0
    1.2920    2.3906   -3.1400 H   0  0  0  0  0  0  0  0  0  0  0  0
   -1.7303    3.6663    0.7161 N   0  0  0  0  0  0  0  0  0  0  0  0
   -2.6373    4.7011    1.1578 C   0  0  2  0  0  0  0  0  0  0  0  0
   -2.0152    6.0488    0.8171 C   0  0  0  0  0  0  0  0  0  0  0  0
   -0.8086    6.2057    0.6426 O   0  0  0  0  0  0  0  0  0  0  0  0
   -2.9165    4.5927    2.6488 C   0  0  0  0  0  0  0  0  0  0  0  0
   -1.1049    3.8710   -0.0576 H   0  0  0  0  0  0  0  0  0  0  0  0
   -3.5650    4.5722    0.5896 H   0  0  0  0  0  0  0  0  0  0  0  0
   -1.9987    4.7192    3.2346 H   0  0  0  0  0  0  0  0  0  0  0  0
   -3.6260    5.3596    2.9764 H   0  0  0  0  0  0  0  0  0  0  0  0
   -3.3362    3.6117    2.8964 H   0  0  0  0  0  0  0  0  0  0  0  0
   -2.9607    7.0639    0.7733 N   0  0  0  0  0  0  0  0  0  0  0  0
   -2.6180    8.4364    0.4825 C   0  0  0  0  0  0  0  0  0  0  0  0
   -3.9416    6.8394    0.9120 H   0  0  0  0  0  0  0  0  0  0  0  0
   -2.4309    8.9754    1.4230 H   0  0  0  0  0  0  0  0  0  0  0  0
   -1.7128    8.4638   -0.1420 H   0  0  0  0  0  0  0  0  0  0  0  0
   -3.4492    8.9157   -0.0555 H   0  0  0  0  0  0  0  0  0  0  0  0
  1  3  1  0  0  0  0
  1  7  1  0  0  0  0
  1  2  2  0  0  0  0
 37 38  1  0  0  0  0
 38 46  1  0  0  0  0
 38 39  2  0  0  0  0
  8  9  1  0  0  0  0
  9 17  1  0  0  0  0
  9 10  2  0  0  0  0
 18 19  1  0  0  0  0
 19 36  1  0  0  0  0
 19 20  2  0  0  0  0
 22 24  1  0  0  0  0
 37 40  1  0  0  0  0
  8 11  1  0  0  0  0
 21 23  1  0  0  0  0
 46 47  1  0  0  0  0
 21 22  1  0  0  0  0
 36 37  1  0  0  0  0
  7  8  1  0  0  0  0
 18 21  1  0  0  0  0
 17 18  1  0  0  0  0
  3  4  1  0  0  0  0
  3  5  1  0  0  0  0
  3  6  1  0  0  0  0
 24 33  1  0  0  0  0
 24 34  1  0  0  0  0
 24 35  1  0  0  0  0
 40 43  1  0  0  0  0
 40 44  1  0  0  0  0
 40 45  1  0  0  0  0
 11 14  1  0  0  0  0
 11 15  1  0  0  0  0
 11 16  1  0  0  0  0
 23 30  1  0  0  0  0
 23 31  1  0  0  0  0
 23 32  1  0  0  0  0
 47 49  1  0  0  0  0
 47 50  1  0  0  0  0
 47 51  1  0  0  0  0
 22 28  1  0  0  0  0
 22 29  1  0  0  0  0
 37 42  1  0  0  0  0
  8 13  1  0  0  0  0
 18 26  1  0  0  0  0
 21 27  1  0  0  0  0
 46 48  1  0  0  0  0
  7 12  1  0  0  0  0
 36 41  1  0  0  0  0
 17 25  1  0  0  0  0
M  END
$$$$

  -OEChem-05262214473D

 51 50  0     1  0  0  0  0  0999 V2000
    1.3524   -3.0009    1.4091 C   0  0  0  0  0  0  0  0  0  0  0  0
    1.8758   -1.9880    0.9598 O   0  0  0  0  0  0  0  0  0  0  0  0
    2.2030   -4.1782    1.7536 C   0  0  0  0  0  0  0  0  0  0  0  0
    2.3264   -4.8705    0.9053 H   0  0  0  0  0  0  0  0  0  0  0  0
    3.2257   -3.8876    2.0432 H   0  0  0  0  0  0  0  0  0  0  0  0
    1.8327   -4.8004    2.5839 H   0  0  0  0  0  0  0  0  0  0  0  0
    0.0005   -3.1873    1.6465 N   0  0  0  0  0  0  0  0  0  0  0  0
   -0.9949   -2.1807    1.3864 C   0  0  2  0  0  0  0  0  0  0  0  0
   -0.3083   -0.8216    1.4164 C   0  0  0  0  0  0  0  0  0  0  0  0
    0.7533   -0.6191    2.0022 O   0  0  0  0  0  0  0  0  0  0  0  0
   -2.1232   -2.2423    2.4042 C   0  0  0  0  0  0  0  0  0  0  0  0
   -0.3048   -4.0823    2.0245 H   0  0  0  0  0  0  0  0  0  0  0  0
   -1.3830   -2.3724    0.3801 H   0  0  0  0  0  0  0  0  0  0  0  0
   -1.7534   -2.0527    3.4185 H   0  0  0  0  0  0  0  0  0  0  0  0
   -2.8936   -1.4947    2.1882 H   0  0  0  0  0  0  0  0  0  0  0  0
   -2.5964   -3.2301    2.4022 H   0  0  0  0  0  0  0  0  0  0  0  0
   -1.0412    0.1517    0.7482 N   0  0  0  0  0  0  0  0  0  0  0  0
   -0.6079    1.5223    0.6467 C   0  0  2  0  0  0  0  0  0  0  0  0
   -1.6711    2.4072    1.2962 C   0  0  0  0  0  0  0  0  0  0  0  0
   -2.1721    2.1554    2.3903 O   0  0  0  0  0  0  0  0  0  0  0  0
   -0.2889    1.9494   -0.8063 C   0  0  2  0  0  0  0  0  0  0  0  0
    0.8852    1.1454   -1.4075 C   0  0  0  0  0  0  0  0  0  0  0  0
   -0.0303    3.4607   -0.8681 C   0  0  0  0  0  0  0  0  0  0  0  0
    1.0542    1.3478   -2.9079 C   0  0  0  0  0  0  0  0  0  0  0  0
   -1.9022   -0.1128    0.2753 H   0  0  0  0  0  0  0  0  0  0  0  0
    0.2985    1.5966    1.2610 H   0  0  0  0  0  0  0  0  0  0  0  0
   -1.1776    1.7509   -1.4202 H   0  0  0  0  0  0  0  0  0  0  0  0
    1.8219    1.4463   -0.9244 H   0  0  0  0  0  0  0  0  0  0  0  0
    0.7562    0.0746   -1.2100 H   0  0  0  0  0  0  0  0  0  0  0  0
    0.8489    3.7298   -0.2728 H   0  0  0  0  0  0  0  0  0  0  0  0
    0.1655    3.7875   -1.8939 H   0  0  0  0  0  0  0  0  0  0  0  0
   -0.8850    4.0303   -0.4888 H   0  0  0  0  0  0  0  0  0  0  0  0
    0.1513    1.0655   -3.4568 H   0  0  0  0  0  0  0  0  0  0  0  0
    1.8734    0.7235   -3.2797 H   0  0  0  0  0  0  0  0  0  0  0  0
    1.2920    2.3906   -3.1400 H   0  0  0  0  0  0  0  0  0  0  0  0
   -1.9661    3.5228    0.5256 N   0  0  0  0  0  0  0  0  0  0  0  0
   -2.9235    4.5300    0.9224 C   0  0  2  0  0  0  0  0  0  0  0  0
   -2.5268    5.8429    0.2603 C   0  0  0  0  0  0  0  0  0  0  0  0
   -1.3851    6.0795   -0.1293 O   0  0  0  0  0  0  0  0  0  0  0  0
   -2.9759    4.6782    2.4351 C   0  0  0  0  0  0  0  0  0  0  0  0
   -1.4852    3.6372   -0.3617 H   0  0  0  0  0  0  0  0  0  0  0  0
   -3.8983    4.2076    0.5405 H   0  0  0  0  0  0  0  0  0  0  0  0
   -2.0080    5.0005    2.8360 H   0  0  0  0  0  0  0  0  0  0  0  0
   -3.7221    5.4212    2.7354 H   0  0  0  0  0  0  0  0  0  0  0  0
   -3.2323    3.7257    2.9113 H   0  0  0  0  0  0  0  0  0  0  0  0
   -3.5873    6.7357    0.1947 N   0  0  0  0  0  0  0  0  0  0  0  0
   -3.4611    8.0554   -0.3785 C   0  0  0  0  0  0  0  0  0  0  0  0
   -4.5038    6.4480    0.5249 H   0  0  0  0  0  0  0  0  0  0  0  0
   -3.2125    8.7773    0.4133 H   0  0  0  0  0  0  0  0  0  0  0  0
   -2.6626    8.0516   -1.1350 H   0  0  0  0  0  0  0  0  0  0  0  0
   -4.4122    8.3424   -0.8507 H   0  0  0  0  0  0  0  0  0  0  0  0
  1  3  1  0  0  0  0
  1  7  1  0  0  0  0
  1  2  2  0  0  0  0
 37 38  1  0  0  0  0
 38 46  1  0  0  0  0
 38 39  2  0  0  0  0
  8  9  1  0  0  0  0
  9 17  1  0  0  0  0
  9 10  2  0  0  0  0
 18 19  1  0  0  0  0
 19 36  1  0  0  0  0
 19 20  2  0  0  0  0
 22 24  1  0  0  0  0
 37 40  1  0  0  0  0
  8 11  1  0  0  0  0
 21 23  1  0  0  0  0
 46 47  1  0  0  0  0
 21 22  1  0  0  0  0
 36 37  1  0  0  0  0
  7  8  1  0  0  0  0
 18 21  1  0  0  0  0
 17 18  1  0  0  0  0
  3  4  1  0  0  0  0
  3  5  1  0  0  0  0
  3  6  1  0  0  0  0
 24 33  1  0  0  0  0
 24 34  1  0  0  0  0
 24 35  1  0  0  0  0
 40 43  1  0  0  0  0
 40 44  1  0  0  0  0
 40 45  1  0  0  0  0
 11 14  1  0  0  0  0
 11 15  1  0  0  0  0
 11 16  1  0  0  0  0
 23 30  1  0  0  0  0
 23 31  1  0  0  0  0
 23 32  1  0  0  0  0
 47 49  1  0  0  0  0
 47 50  1  0  0  0  0
 47 51  1  0  0  0  0
 22 28  1  0  0  0  0
 22 29  1  0  0  0  0
 37 42  1  0  0  0  0
  8 13  1  0  0  0  0
 18 26  1  0  0  0  0
 21 27  1  0  0  0  0
 46 48  1  0  0  0  0
  7 12  1  0  0  0  0
 36 41  1  0  0  0  0
 17 25  1  0  0  0  0
M  END
$$$$

  -OEChem-05262214473D

 51 50  0     1  0  0  0  0  0999 V2000
    1.3524   -3.0009    1.4091 C   0  0  0  0  0  0  0  0  0  0  0  0
    1.8758   -1.9880    0.9598 O   0  0  0  0  0  0  0  0  0  0  0  0
    2.2030   -4.1782    1.7536 C   0  0  0  0  0  0  0  0  0  0  0  0
    2.3264   -4.8705    0.9053 H   0  0  0  0  0  0  0  0  0  0  0  0
    3.2257   -3.8876    2.0432 H   0  0  0  0  0  0  0  0  0  0  0  0
    1.8327   -4.8004    2.5839 H   0  0  0  0  0  0  0  0  0  0  0  0
    0.0005   -3.1873    1.6465 N   0  0  0  0  0  0  0  0  0  0  0  0
   -0.9949   -2.1807    1.3864 C   0  0  2  0  0  0  0  0  0  0  0  0
   -0.3083   -0.8216    1.4164 C   0  0  0  0  0  0  0  0  0  0  0  0
    0.7533   -0.6191    2.0022 O   0  0  0  0  0  0  0  0  0  0  0  0
   -2.1232   -2.2423    2.4042 C   0  0  0  0  0  0  0  0  0  0  0  0
   -0.3048   -4.0823    2.0245 H   0  0  0  0  0  0  0  0  0  0  0  0
   -1.3830   -2.3724    0.3801 H   0  0  0  0  0  0  0  0  0  0  0  0
   -1.7534   -2.0527    3.4185 H   0  0  0  0  0  0  0  0  0  0  0  0
   -2.8936   -1.4947    2.1882 H   0  0  0  0  0  0  0  0  0  0  0  0
   -2.5964   -3.2301    2.4022 H   0  0  0  0  0  0  0  0  0  0  0  0
   -1.0412    0.1517    0.7482 N   0  0  0  0  0  0  0  0  0  0  0  0
   -0.6079    1.5223    0.6467 C   0  0  2  0  0  0  0  0  0  0  0  0
   -1.6711    2.4072    1.2962 C   0  0  0  0  0  0  0  0  0  0  0  0
   -1.9792    2.3190    2.4831 O   0  0  0  0  0  0  0  0  0  0  0  0
   -0.2889    1.9494   -0.8063 C   0  0  2  0  0  0  0  0  0  0  0  0
    0.8852    1.1454   -1.4075 C   0  0  0  0  0  0  0  0  0  0  0  0
   -0.0303    3.4607   -0.8681 C   0  0  0  0  0  0  0  0  0  0  0  0
    1.0542    1.3478   -2.9079 C   0  0  0  0  0  0  0  0  0  0  0  0
   -1.9022   -0.1128    0.2753 H   0  0  0  0  0  0  0  0  0  0  0  0
    0.2985    1.5966    1.2610 H   0  0  0  0  0  0  0  0  0  0  0  0
   -1.1776    1.7509   -1.4202 H   0  0  0  0  0  0  0  0  0  0  0  0
    1.8219    1.4463   -0.9244 H   0  0  0  0  0  0  0  0  0  0  0  0
    0.7562    0.0746   -1.2100 H   0  0  0  0  0  0  0  0  0  0  0  0
    0.8489    3.7298   -0.2728 H   0  0  0  0  0  0  0  0  0  0  0  0
    0.1655    3.7875   -1.8939 H   0  0  0  0  0  0  0  0  0  0  0  0
   -0.8850    4.0303   -0.4888 H   0  0  0  0  0  0  0  0  0  0  0  0
    0.1513    1.0655   -3.4568 H   0  0  0  0  0  0  0  0  0  0  0  0
    1.8734    0.7235   -3.2797 H   0  0  0  0  0  0  0  0  0  0  0  0
    1.2920    2.3906   -3.1400 H   0  0  0  0  0  0  0  0  0  0  0  0
   -2.2067    3.3239    0.4028 N   0  0  0  0  0  0  0  0  0  0  0  0
   -3.2164    4.2909    0.7688 C   0  0  2  0  0  0  0  0  0  0  0  0
   -3.0816    5.4874   -0.1637 C   0  0  0  0  0  0  0  0  0  0  0  0
   -2.0438    5.7552   -0.7657 O   0  0  0  0  0  0  0  0  0  0  0  0
   -3.0747    4.7157    2.2221 C   0  0  0  0  0  0  0  0  0  0  0  0
   -1.8724    3.3148   -0.5563 H   0  0  0  0  0  0  0  0  0  0  0  0
   -4.1876    3.8100    0.6088 H   0  0  0  0  0  0  0  0  0  0  0  0
   -2.1077    5.1995    2.4017 H   0  0  0  0  0  0  0  0  0  0  0  0
   -3.8578    5.4267    2.5058 H   0  0  0  0  0  0  0  0  0  0  0  0
   -3.1422    3.8498    2.8896 H   0  0  0  0  0  0  0  0  0  0  0  0
   -4.2432    6.2456   -0.2112 N   0  0  0  0  0  0  0  0  0  0  0  0
   -4.3626    7.4395   -1.0151 C   0  0  0  0  0  0  0  0  0  0  0  0
   -5.0618    5.9384    0.3058 H   0  0  0  0  0  0  0  0  0  0  0  0
   -4.0970    8.3183   -0.4091 H   0  0  0  0  0  0  0  0  0  0  0  0
   -3.6834    7.3701   -1.8775 H   0  0  0  0  0  0  0  0  0  0  0  0
   -5.3985    7.5394   -1.3713 H   0  0  0  0  0  0  0  0  0  0  0  0
  1  3  1  0  0  0  0
  1  7  1  0  0  0  0
  1  2  2  0  0  0  0
 37 38  1  0  0  0  0
 38 46  1  0  0  0  0
 38 39  2  0  0  0  0
  8  9  1  0  0  0  0
  9 17  1  0  0  0  0
  9 10  2  0  0  0  0
 18 19  1  0  0  0  0
 19 36  1  0  0  0  0
 19 20  2  0  0  0  0
 22 24  1  0  0  0  0
 37 40  1  0  0  0  0
  8 11  1  0  0  0  0
 21 23  1  0  0  0  0
 46 47  1  0  0  0  0
 21 22  1  0  0  0  0
 36 37  1  0  0  0  0
  7  8  1  0  0  0  0
 18 21  1  0  0  0  0
 17 18  1  0  0  0  0
  3  4  1  0  0  0  0
  3  5  1  0  0  0  0
  3  6  1  0  0  0  0
 24 33  1  0  0  0  0
 24 34  1  0  0  0  0
 24 35  1  0  0  0  0
 40 43  1  0  0  0  0
 40 44  1  0  0  0  0
 40 45  1  0  0  0  0
 11 14  1  0  0  0  0
 11 15  1  0  0  0  0
 11 16  1  0  0  0  0
 23 30  1  0  0  0  0
 23 31  1  0  0  0  0
 23 32  1  0  0  0  0
 47 49  1  0  0  0  0
 47 50  1  0  0  0  0
 47 51  1  0  0  0  0
 22 28  1  0  0  0  0
 22 29  1  0  0  0  0
 37 42  1  0  0  0  0
  8 13  1  0  0  0  0
 18 26  1  0  0  0  0
 21 27  1  0  0  0  0
 46 48  1  0  0  0  0
  7 12  1  0  0  0  0
 36 41  1  0  0  0  0
 17 25  1  0  0  0  0
M  END
$$$$

  -OEChem-05262214473D

 51 50  0     1  0  0  0  0  0999 V2000
    1.3524   -3.0009    1.4091 C   0  0  0  0  0  0  0  0  0  0  0  0
    1.8758   -1.9880    0.9598 O   0  0  0  0  0  0  0  0  0  0  0  0
    2.2030   -4.1782    1.7536 C   0  0  0  0  0  0  0  0  0  0  0  0
    2.3264   -4.8705    0.9053 H   0  0  0  0  0  0  0  0  0  0  0  0
    3.2257   -3.8876    2.0432 H   0  0  0  0  0  0  0  0  0  0  0  0
    1.8327   -4.8004    2.5839 H   0  0  0  0  0  0  0  0  0  0  0  0
    0.0005   -3.1873    1.6465 N   0  0  0  0  0  0  0  0  0  0  0  0
   -0.9949   -2.1807    1.3864 C   0  0  2  0  0  0  0  0  0  0  0  0
   -0.3083   -0.8216    1.4164 C   0  0  0  0  0  0  0  0  0  0  0  0
    0.7533   -0.6191    2.0022 O   0  0  0  0  0  0  0  0  0  0  0  0
   -2.1232   -2.2423    2.4042 C   0  0  0  0  0  0  0  0  0  0  0  0
   -0.3048   -4.0823    2.0245 H   0  0  0  0  0  0  0  0  0  0  0  0
   -1.3830   -2.3724    0.3801 H   0  0  0  0  0  0  0  0  0  0  0  0
   -1.7534   -2.0527    3.4185 H   0  0  0  0  0  0  0  0  0  0  0  0
   -2.8936   -1.4947    2.1882 H   0  0  0  0  0  0  0  0  0  0  0  0
   -2.5964   -3.2301    2.4022 H   0  0  0  0  0  0  0  0  0  0  0  0
   -1.0412    0.1517    0.7482 N   0  0  0  0  0  0  0  0  0  0  0  0
   -0.6079    1.5223    0.6467 C   0  0  2  0  0  0  0  0  0  0  0  0
   -1.6711    2.4072    1.2962 C   0  0  0  0  0  0  0  0  0  0  0  0
   -1.7969    2.5150    2.5144 O   0  0  0  0  0  0  0  0  0  0  0  0
   -0.2889    1.9494   -0.8063 C   0  0  2  0  0  0  0  0  0  0  0  0
    0.8852    1.1454   -1.4075 C   0  0  0  0  0  0  0  0  0  0  0  0
   -0.0303    3.4607   -0.8681 C   0  0  0  0  0  0  0  0  0  0  0  0
    1.0542    1.3478   -2.9079 C   0  0  0  0  0  0  0  0  0  0  0  0
   -1.9022   -0.1128    0.2753 H   0  0  0  0  0  0  0  0  0  0  0  0
    0.2985    1.5966    1.2610 H   0  0  0  0  0  0  0  0  0  0  0  0
   -1.1776    1.7509   -1.4202 H   0  0  0  0  0  0  0  0  0  0  0  0
    1.8219    1.4463   -0.9244 H   0  0  0  0  0  0  0  0  0  0  0  0
    0.7562    0.0746   -1.2100 H   0  0  0  0  0  0  0  0  0  0  0  0
    0.8489    3.7298   -0.2728 H   0  0  0  0  0  0  0  0  0  0  0  0
    0.1655    3.7875   -1.8939 H   0  0  0  0  0  0  0  0  0  0  0  0
   -0.8850    4.0303   -0.4888 H   0  0  0  0  0  0  0  0  0  0  0  0
    0.1513    1.0655   -3.4568 H   0  0  0  0  0  0  0  0  0  0  0  0
    1.8734    0.7235   -3.2797 H   0  0  0  0  0  0  0  0  0  0  0  0
    1.2920    2.3906   -3.1400 H   0  0  0  0  0  0  0  0  0  0  0  0
   -2.4356    3.0832    0.3560 N   0  0  0  0  0  0  0  0  0  0  0  0
   -3.4961    4.0000    0.7073 C   0  0  2  0  0  0  0  0  0  0  0  0
   -3.6421    5.0067   -0.4262 C   0  0  0  0  0  0  0  0  0  0  0  0
   -2.7398    5.2549   -1.2233 O   0  0  0  0  0  0  0  0  0  0  0  0
   -3.2063    4.7028    2.0245 C   0  0  0  0  0  0  0  0  0  0  0  0
   -2.2402    2.9257   -0.6282 H   0  0  0  0  0  0  0  0  0  0  0  0
   -4.4130    3.4064    0.7897 H   0  0  0  0  0  0  0  0  0  0  0  0
   -2.2910    5.3026    1.9613 H   0  0  0  0  0  0  0  0  0  0  0  0
   -4.0238    5.3757    2.3034 H   0  0  0  0  0  0  0  0  0  0  0  0
   -3.0721    3.9758    2.8327 H   0  0  0  0  0  0  0  0  0  0  0  0
   -4.8836    5.6269   -0.4167 N   0  0  0  0  0  0  0  0  0  0  0  0
   -5.2611    6.6308   -1.3840 C   0  0  0  0  0  0  0  0  0  0  0  0
   -5.5776    5.3454    0.2696 H   0  0  0  0  0  0  0  0  0  0  0  0
   -5.0242    7.6294   -0.9883 H   0  0  0  0  0  0  0  0  0  0  0  0
   -4.7058    6.4659   -2.3191 H   0  0  0  0  0  0  0  0  0  0  0  0
   -6.3409    6.5616   -1.5817 H   0  0  0  0  0  0  0  0  0  0  0  0
  1  3  1  0  0  0  0
  1  7  1  0  0  0  0
  1  2  2  0  0  0  0
 37 38  1  0  0  0  0
 38 46  1  0  0  0  0
 38 39  2  0  0  0  0
  8  9  1  0  0  0  0
  9 17  1  0  0  0  0
  9 10  2  0  0  0  0
 18 19  1  0  0  0  0
 19 36  1  0  0  0  0
 19 20  2  0  0  0  0
 22 24  1  0  0  0  0
 37 40  1  0  0  0  0
  8 11  1  0  0  0  0
 21 23  1  0  0  0  0
 46 47  1  0  0  0  0
 21 22  1  0  0  0  0
 36 37  1  0  0  0  0
  7  8  1  0  0  0  0
 18 21  1  0  0  0  0
 17 18  1  0  0  0  0
  3  4  1  0  0  0  0
  3  5  1  0  0  0  0
  3  6  1  0  0  0  0
 24 33  1  0  0  0  0
 24 34  1  0  0  0  0
 24 35  1  0  0  0  0
 40 43  1  0  0  0  0
 40 44  1  0  0  0  0
 40 45  1  0  0  0  0
 11 14  1  0  0  0  0
 11 15  1  0  0  0  0
 11 16  1  0  0  0  0
 23 30  1  0  0  0  0
 23 31  1  0  0  0  0
 23 32  1  0  0  0  0
 47 49  1  0  0  0  0
 47 50  1  0  0  0  0
 47 51  1  0  0  0  0
 22 28  1  0  0  0  0
 22 29  1  0  0  0  0
 37 42  1  0  0  0  0
  8 13  1  0  0  0  0
 18 26  1  0  0  0  0
 21 27  1  0  0  0  0
 46 48  1  0  0  0  0
  7 12  1  0  0  0  0
 36 41  1  0  0  0  0
 17 25  1  0  0  0  0
M  END
$$$$

  -OEChem-05262214473D

 51 50  0     1  0  0  0  0  0999 V2000
    1.3524   -3.0009    1.4091 C   0  0  0  0  0  0  0  0  0  0  0  0
    1.8758   -1.9880    0.9598 O   0  0  0  0  0  0  0  0  0  0  0  0
    2.2030   -4.1782    1.7536 C   0  0  0  0  0  0  0  0  0  0  0  0
    2.3264   -4.8705    0.9053 H   0  0  0  0  0  0  0  0  0  0  0  0
    3.2257   -3.8876    2.0432 H   0  0  0  0  0  0  0  0  0  0  0  0
    1.8327   -4.8004    2.5839 H   0  0  0  0  0  0  0  0  0  0  0  0
    0.0005   -3.1873    1.6465 N   0  0  0  0  0  0  0  0  0  0  0  0
   -0.9949   -2.1807    1.3864 C   0  0  2  0  0  0  0  0  0  0  0  0
   -0.3083   -0.8216    1.4164 C   0  0  0  0  0  0  0  0  0  0  0  0
    0.7533   -0.6191    2.0022 O   0  0  0  0  0  0  0  0  0  0  0  0
   -2.1232   -2.2423    2.4042 C   0  0  0  0  0  0  0  0  0  0  0  0
   -0.3048   -4.0823    2.0245 H   0  0  0  0  0  0  0  0  0  0  0  0
   -1.3830   -2.3724    0.3801 H   0  0  0  0  0  0  0  0  0  0  0  0
   -1.7534   -2.0527    3.4185 H   0  0  0  0  0  0  0  0  0  0  0  0
   -2.8936   -1.4947    2.1882 H   0  0  0  0  0  0  0  0  0  0  0  0
   -2.5964   -3.2301    2.4022 H   0  0  0  0  0  0  0  0  0  0  0  0
   -1.0412    0.1517    0.7482 N   0  0  0  0  0  0  0  0  0  0  0  0
   -0.6079    1.5223    0.6467 C   0  0  2  0  0  0  0  0  0  0  0  0
   -1.6711    2.4072    1.2962 C   0  0  0  0  0  0  0  0  0  0  0  0
   -1.6377    2.7301    2.4820 O   0  0  0  0  0  0  0  0  0  0  0  0
   -0.2889    1.9494   -0.8063 C   0  0  2  0  0  0  0  0  0  0  0  0
    0.8852    1.1454   -1.4075 C   0  0  0  0  0  0  0  0  0  0  0  0
   -0.0303    3.4607   -0.8681 C   0  0  0  0  0  0  0  0  0  0  0  0
    1.0542    1.3478   -2.9079 C   0  0  0  0  0  0  0  0  0  0  0  0
   -1.9022   -0.1128    0.2753 H   0  0  0  0  0  0  0  0  0  0  0  0
    0.2985    1.5966    1.2610 H   0  0  0  0  0  0  0  0  0  0  0  0
   -1.1776    1.7509   -1.4202 H   0  0  0  0  0  0  0  0  0  0  0  0
    1.8219    1.4463   -0.9244 H   0  0  0  0  0  0  0  0  0  0  0  0
    0.7562    0.0746   -1.2100 H   0  0  0  0  0  0  0  0  0  0  0  0
    0.8489    3.7298   -0.2728 H   0  0  0  0  0  0  0  0  0  0  0  0
    0.1655    3.7875   -1.8939 H   0  0  0  0  0  0  0  0  0  0  0  0
   -0.8850    4.0303   -0.4888 H   0  0  0  0  0  0  0  0  0  0  0  0
    0.1513    1.0655   -3.4568 H   0  0  0  0  0  0  0  0  0  0  0  0
    1.8734    0.7235   -3.2797 H   0  0  0  0  0  0  0  0  0  0  0  0
    1.2920    2.3906   -3.1400 H   0  0  0  0  0  0  0  0  0  0  0  0
   -2.6372    2.8171    0.3885 N   0  0  0  0  0  0  0  0  0  0  0  0
   -3.7434    3.6773    0.7422 C   0  0  2  0  0  0  0  0  0  0  0  0
   -4.1699    4.4335   -0.5091 C   0  0  0  0  0  0  0  0  0  0  0  0
   -3.4256    4.6127   -1.4709 O   0  0  0  0  0  0  0  0  0  0  0  0
   -3.3615    4.6402    1.8556 C   0  0  0  0  0  0  0  0  0  0  0  0
   -2.5634    2.4965   -0.5725 H   0  0  0  0  0  0  0  0  0  0  0  0
   -4.5593    3.0243    1.0708 H   0  0  0  0  0  0  0  0  0  0  0  0
   -2.5454    5.3026    1.5448 H   0  0  0  0  0  0  0  0  0  0  0  0
   -4.2090    5.2717    2.1420 H   0  0  0  0  0  0  0  0  0  0  0  0
   -3.0267    4.0950    2.7446 H   0  0  0  0  0  0  0  0  0  0  0  0
   -5.4650    4.9219   -0.4077 N   0  0  0  0  0  0  0  0  0  0  0  0
   -6.0952    5.6844   -1.4600 C   0  0  0  0  0  0  0  0  0  0  0  0
   -6.0160    4.7092    0.4187 H   0  0  0  0  0  0  0  0  0  0  0  0
   -5.9307    6.7578   -1.2847 H   0  0  0  0  0  0  0  0  0  0  0  0
   -5.6601    5.4005   -2.4295 H   0  0  0  0  0  0  0  0  0  0  0  0
   -7.1752    5.4756   -1.4676 H   0  0  0  0  0  0  0  0  0  0  0  0
  1  3  1  0  0  0  0
  1  7  1  0  0  0  0
  1  2  2  0  0  0  0
 37 38  1  0  0  0  0
 38 46  1  0  0  0  0
 38 39  2  0  0  0  0
  8  9  1  0  0  0  0
  9 17  1  0  0  0  0
  9 10  2  0  0  0  0
 18 19  1  0  0  0  0
 19 36  1  0  0  0  0
 19 20  2  0  0  0  0
 22 24  1  0  0  0  0
 37 40  1  0  0  0  0
  8 11  1  0  0  0  0
 21 23  1  0  0  0  0
 46 47  1  0  0  0  0
 21 22  1  0  0  0  0
 36 37  1  0  0  0  0
  7  8  1  0  0  0  0
 18 21  1  0  0  0  0
 17 18  1  0  0  0  0
  3  4  1  0  0  0  0
  3  5  1  0  0  0  0
  3  6  1  0  0  0  0
 24 33  1  0  0  0  0
 24 34  1  0  0  0  0
 24 35  1  0  0  0  0
 40 43  1  0  0  0  0
 40 44  1  0  0  0  0
 40 45  1  0  0  0  0
 11 14  1  0  0  0  0
 11 15  1  0  0  0  0
 11 16  1  0  0  0  0
 23 30  1  0  0  0  0
 23 31  1  0  0  0  0
 23 32  1  0  0  0  0
 47 49  1  0  0  0  0
 47 50  1  0  0  0  0
 47 51  1  0  0  0  0
 22 28  1  0  0  0  0
 22 29  1  0  0  0  0
 37 42  1  0  0  0  0
  8 13  1  0  0  0  0
 18 26  1  0  0  0  0
 21 27  1  0  0  0  0
 46 48  1  0  0  0  0
  7 12  1  0  0  0  0
 36 41  1  0  0  0  0
 17 25  1  0  0  0  0
M  END
$$$$

  -OEChem-05262214473D

 51 50  0     1  0  0  0  0  0999 V2000
    1.3524   -3.0009    1.4091 C   0  0  0  0  0  0  0  0  0  0  0  0
    1.8758   -1.9880    0.9598 O   0  0  0  0  0  0  0  0  0  0  0  0
    2.2030   -4.1782    1.7536 C   0  0  0  0  0  0  0  0  0  0  0  0
    2.3264   -4.8705    0.9053 H   0  0  0  0  0  0  0  0  0  0  0  0
    3.2257   -3.8876    2.0432 H   0  0  0  0  0  0  0  0  0  0  0  0
    1.8327   -4.8004    2.5839 H   0  0  0  0  0  0  0  0  0  0  0  0
    0.0005   -3.1873    1.6465 N   0  0  0  0  0  0  0  0  0  0  0  0
   -0.9949   -2.1807    1.3864 C   0  0  2  0  0  0  0  0  0  0  0  0
   -0.3083   -0.8216    1.4164 C   0  0  0  0  0  0  0  0  0  0  0  0
    0.7533   -0.6191    2.0022 O   0  0  0  0  0  0  0  0  0  0  0  0
   -2.1232   -2.2423    2.4042 C   0  0  0  0  0  0  0  0  0  0  0  0
   -0.3048   -4.0823    2.0245 H   0  0  0  0  0  0  0  0  0  0  0  0
   -1.3830   -2.3724    0.3801 H   0  0  0  0  0  0  0  0  0  0  0  0
   -1.7534   -2.0527    3.4185 H   0  0  0  0  0  0  0  0  0  0  0  0
   -2.8936   -1.4947    2.1882 H   0  0  0  0  0  0  0  0  0  0  0  0
   -2.5964   -3.2301    2.4022 H   0  0  0  0  0  0  0  0  0  0  0  0
   -1.0412    0.1517    0.7482 N   0  0  0  0  0  0  0  0  0  0  0  0
   -0.6079    1.5223    0.6467 C   0  0  2  0  0  0  0  0  0  0  0  0
   -1.6711    2.4072    1.2962 C   0  0  0  0  0  0  0  0  0  0  0  0
   -1.5125    2.9494    2.3882 O   0  0  0  0  0  0  0  0  0  0  0  0
   -0.2889    1.9494   -0.8063 C   0  0  2  0  0  0  0  0  0  0  0  0
    0.8852    1.1454   -1.4075 C   0  0  0  0  0  0  0  0  0  0  0  0
   -0.0303    3.4607   -0.8681 C   0  0  0  0  0  0  0  0  0  0  0  0
    1.0542    1.3478   -2.9079 C   0  0  0  0  0  0  0  0  0  0  0  0
   -1.9022   -0.1128    0.2753 H   0  0  0  0  0  0  0  0  0  0  0  0
    0.2985    1.5966    1.2610 H   0  0  0  0  0  0  0  0  0  0  0  0
   -1.1776    1.7509   -1.4202 H   0  0  0  0  0  0  0  0  0  0  0  0
    1.8219    1.4463   -0.9244 H   0  0  0  0  0  0  0  0  0  0  0  0
    0.7562    0.0746   -1.2100 H   0  0  0  0  0  0  0  0  0  0  0  0
    0.8489    3.7298   -0.2728 H   0  0  0  0  0  0  0  0  0  0  0  0
    0.1655    3.7875   -1.8939 H   0  0  0  0  0  0  0  0  0  0  0  0
   -0.8850    4.0303   -0.4888 H   0  0  0  0  0  0  0  0  0  0  0  0
    0.1513    1.0655   -3.4568 H   0  0  0  0  0  0  0  0  0  0  0  0
    1.8734    0.7235   -3.2797 H   0  0  0  0  0  0  0  0  0  0  0  0
    1.2920    2.3906   -3.1400 H   0  0  0  0  0  0  0  0  0  0  0  0
   -2.7979    2.5437    0.4980 N   0  0  0  0  0  0  0  0  0  0  0  0
   -3.9416    3.3446    0.8711 C   0  0  2  0  0  0  0  0  0  0  0  0
   -4.6290    3.8068   -0.4069 C   0  0  0  0  0  0  0  0  0  0  0  0
   -4.0545    3.8724   -1.4916 O   0  0  0  0  0  0  0  0  0  0  0  0
   -3.5299    4.5323    1.7270 C   0  0  0  0  0  0  0  0  0  0  0  0
   -2.8200    2.0565   -0.3929 H   0  0  0  0  0  0  0  0  0  0  0  0
   -4.6164    2.6898    1.4332 H   0  0  0  0  0  0  0  0  0  0  0  0
   -2.8535    5.1997    1.1806 H   0  0  0  0  0  0  0  0  0  0  0  0
   -4.4005    5.1219    2.0325 H   0  0  0  0  0  0  0  0  0  0  0  0
   -3.0092    4.1992    2.6313 H   0  0  0  0  0  0  0  0  0  0  0  0
   -5.9477    4.1785   -0.1851 N   0  0  0  0  0  0  0  0  0  0  0  0
   -6.8083    4.6648   -1.2381 C   0  0  0  0  0  0  0  0  0  0  0  0
   -6.3471    4.0734    0.7429 H   0  0  0  0  0  0  0  0  0  0  0  0
   -6.7550    5.7628   -1.2782 H   0  0  0  0  0  0  0  0  0  0  0  0
   -6.4811    4.2465   -2.2014 H   0  0  0  0  0  0  0  0  0  0  0  0
   -7.8445    4.3553   -1.0368 H   0  0  0  0  0  0  0  0  0  0  0  0
  1  3  1  0  0  0  0
  1  7  1  0  0  0  0
  1  2  2  0  0  0  0
 37 38  1  0  0  0  0
 38 46  1  0  0  0  0
 38 39  2  0  0  0  0
  8  9  1  0  0  0  0
  9 17  1  0  0  0  0
  9 10  2  0  0  0  0
 18 19  1  0  0  0  0
 19 36  1  0  0  0  0
 19 20  2  0  0  0  0
 22 24  1  0  0  0  0
 37 40  1  0  0  0  0
  8 11  1  0  0  0  0
 21 23  1  0  0  0  0
 46 47  1  0  0  0  0
 21 22  1  0  0  0  0
 36 37  1  0  0  0  0
  7  8  1  0  0  0  0
 18 21  1  0  0  0  0
 17 18  1  0  0  0  0
  3  4  1  0  0  0  0
  3  5  1  0  0  0  0
  3  6  1  0  0  0  0
 24 33  1  0  0  0  0
 24 34  1  0  0  0  0
 24 35  1  0  0  0  0
 40 43  1  0  0  0  0
 40 44  1  0  0  0  0
 40 45  1  0  0  0  0
 11 14  1  0  0  0  0
 11 15  1  0  0  0  0
 11 16  1  0  0  0  0
 23 30  1  0  0  0  0
 23 31  1  0  0  0  0
 23 32  1  0  0  0  0
 47 49  1  0  0  0  0
 47 50  1  0  0  0  0
 47 51  1  0  0  0  0
 22 28  1  0  0  0  0
 22 29  1  0  0  0  0
 37 42  1  0  0  0  0
  8 13  1  0  0  0  0
 18 26  1  0  0  0  0
 21 27  1  0  0  0  0
 46 48  1  0  0  0  0
  7 12  1  0  0  0  0
 36 41  1  0  0  0  0
 17 25  1  0  0  0  0
M  END
$$$$

  -OEChem-05262214473D

 51 50  0     1  0  0  0  0  0999 V2000
    1.3524   -3.0009    1.4091 C   0  0  0  0  0  0  0  0  0  0  0  0
    1.8758   -1.9880    0.9598 O   0  0  0  0  0  0  0  0  0  0  0  0
    2.2030   -4.1782    1.7536 C   0  0  0  0  0  0  0  0  0  0  0  0
    2.3264   -4.8705    0.9053 H   0  0  0  0  0  0  0  0  0  0  0  0
    3.2257   -3.8876    2.0432 H   0  0  0  0  0  0  0  0  0  0  0  0
    1.8327   -4.8004    2.5839 H   0  0  0  0  0  0  0  0  0  0  0  0
    0.0005   -3.1873    1.6465 N   0  0  0  0  0  0  0  0  0  0  0  0
   -0.9949   -2.1807    1.3864 C   0  0  2  0  0  0  0  0  0  0  0  0
   -0.3083   -0.8216    1.4164 C   0  0  0  0  0  0  0  0  0  0  0  0
    0.7533   -0.6191    2.0022 O   0  0  0  0  0  0  0  0  0  0  0  0
   -2.1232   -2.2423    2.4042 C   0  0  0  0  0  0  0  0  0  0  0  0
   -0.3048   -4.0823    2.0245 H   0  0  0  0  0  0  0  0  0  0  0  0
   -1.3830   -2.3724    0.3801 H   0  0  0  0  0  0  0  0  0  0  0  0
   -1.7534   -2.0527    3.4185 H   0  0  0  0  0  0  0  0  0  0  0  0
   -2.8936   -1.4947    2.1882 H   0  0  0  0  0  0  0  0  0  0  0  0
   -2.5964   -3.2301    2.4022 H   0  0  0  0  0  0  0  0  0  0  0  0
   -1.0412    0.1517    0.7482 N   0  0  0  0  0  0  0  0  0  0  0  0
   -0.6079    1.5223    0.6467 C   0  0  2  0  0  0  0  0  0  0  0  0
   -1.6711    2.4072    1.2962 C   0  0  0  0  0  0  0  0  0  0  0  0
   -1.4297    3.1582    2.2392 O   0  0  0  0  0  0  0  0  0  0  0  0
   -0.2889    1.9494   -0.8063 C   0  0  2  0  0  0  0  0  0  0  0  0
    0.8852    1.1454   -1.4075 C   0  0  0  0  0  0  0  0  0  0  0  0
   -0.0303    3.4607   -0.8681 C   0  0  0  0  0  0  0  0  0  0  0  0
    1.0542    1.3478   -2.9079 C   0  0  0  0  0  0  0  0  0  0  0  0
   -1.9022   -0.1128    0.2753 H   0  0  0  0  0  0  0  0  0  0  0  0
    0.2985    1.5966    1.2610 H   0  0  0  0  0  0  0  0  0  0  0  0
   -1.1776    1.7509   -1.4202 H   0  0  0  0  0  0  0  0  0  0  0  0
    1.8219    1.4463   -0.9244 H   0  0  0  0  0  0  0  0  0  0  0  0
    0.7562    0.0746   -1.2100 H   0  0  0  0  0  0  0  0  0  0  0  0
    0.8489    3.7298   -0.2728 H   0  0  0  0  0  0  0  0  0  0  0  0
    0.1655    3.7875   -1.8939 H   0  0  0  0  0  0  0  0  0  0  0  0
   -0.8850    4.0303   -0.4888 H   0  0  0  0  0  0  0  0  0  0  0  0
    0.1513    1.0655   -3.4568 H   0  0  0  0  0  0  0  0  0  0  0  0
    1.8734    0.7235   -3.2797 H   0  0  0  0  0  0  0  0  0  0  0  0
    1.2920    2.3906   -3.1400 H   0  0  0  0  0  0  0  0  0  0  0  0
   -2.9065    2.2817    0.6771 N   0  0  0  0  0  0  0  0  0  0  0  0
   -4.0771    3.0246    1.0852 C   0  0  2  0  0  0  0  0  0  0  0  0
   -4.9883    3.1694   -0.1265 C   0  0  0  0  0  0  0  0  0  0  0  0
   -4.5836    3.0844   -1.2841 O   0  0  0  0  0  0  0  0  0  0  0  0
   -3.6999    4.3864    1.6475 C   0  0  0  0  0  0  0  0  0  0  0  0
   -2.9925    1.6355   -0.1018 H   0  0  0  0  0  0  0  0  0  0  0  0
   -4.5804    2.4256    1.8519 H   0  0  0  0  0  0  0  0  0  0  0  0
   -3.1945    5.0008    0.8936 H   0  0  0  0  0  0  0  0  0  0  0  0
   -4.5855    4.9364    1.9825 H   0  0  0  0  0  0  0  0  0  0  0  0
   -3.0208    4.2813    2.5004 H   0  0  0  0  0  0  0  0  0  0  0  0
   -6.2987    3.4475    0.2362 N   0  0  0  0  0  0  0  0  0  0  0  0
   -7.3516    3.6415   -0.7332 C   0  0  0  0  0  0  0  0  0  0  0  0
   -6.5484    3.4812    1.2202 H   0  0  0  0  0  0  0  0  0  0  0  0
   -7.4407    4.7121   -0.9693 H   0  0  0  0  0  0  0  0  0  0  0  0
   -7.1131    3.0826   -1.6501 H   0  0  0  0  0  0  0  0  0  0  0  0
   -8.3031    3.2771   -0.3187 H   0  0  0  0  0  0  0  0  0  0  0  0
  1  3  1  0  0  0  0
  1  7  1  0  0  0  0
  1  2  2  0  0  0  0
 37 38  1  0  0  0  0
 38 46  1  0  0  0  0
 38 39  2  0  0  0  0
  8  9  1  0  0  0  0
  9 17  1  0  0  0  0
  9 10  2  0  0  0  0
 18 19  1  0  0  0  0
 19 36  1  0  0  0  0
 19 20  2  0  0  0  0
 22 24  1  0  0  0  0
 37 40  1  0  0  0  0
  8 11  1  0  0  0  0
 21 23  1  0  0  0  0
 46 47  1  0  0  0  0
 21 22  1  0  0  0  0
 36 37  1  0  0  0  0
  7  8  1  0  0  0  0
 18 21  1  0  0  0  0
 17 18  1  0  0  0  0
  3  4  1  0  0  0  0
  3  5  1  0  0  0  0
  3  6  1  0  0  0  0
 24 33  1  0  0  0  0
 24 34  1  0  0  0  0
 24 35  1  0  0  0  0
 40 43  1  0  0  0  0
 40 44  1  0  0  0  0
 40 45  1  0  0  0  0
 11 14  1  0  0  0  0
 11 15  1  0  0  0  0
 11 16  1  0  0  0  0
 23 30  1  0  0  0  0
 23 31  1  0  0  0  0
 23 32  1  0  0  0  0
 47 49  1  0  0  0  0
 47 50  1  0  0  0  0
 47 51  1  0  0  0  0
 22 28  1  0  0  0  0
 22 29  1  0  0  0  0
 37 42  1  0  0  0  0
  8 13  1  0  0  0  0
 18 26  1  0  0  0  0
 21 27  1  0  0  0  0
 46 48  1  0  0  0  0
  7 12  1  0  0  0  0
 36 41  1  0  0  0  0
 17 25  1  0  0  0  0
M  END
$$$$

  -OEChem-05262214473D

 51 50  0     1  0  0  0  0  0999 V2000
    1.3524   -3.0009    1.4091 C   0  0  0  0  0  0  0  0  0  0  0  0
    1.8758   -1.9880    0.9598 O   0  0  0  0  0  0  0  0  0  0  0  0
    2.2030   -4.1782    1.7536 C   0  0  0  0  0  0  0  0  0  0  0  0
    2.3264   -4.8705    0.9053 H   0  0  0  0  0  0  0  0  0  0  0  0
    3.2257   -3.8876    2.0432 H   0  0  0  0  0  0  0  0  0  0  0  0
    1.8327   -4.8004    2.5839 H   0  0  0  0  0  0  0  0  0  0  0  0
    0.0005   -3.1873    1.6465 N   0  0  0  0  0  0  0  0  0  0  0  0
   -0.9949   -2.1807    1.3864 C   0  0  2  0  0  0  0  0  0  0  0  0
   -0.3083   -0.8216    1.4164 C   0  0  0  0  0  0  0  0  0  0  0  0
    0.7533   -0.6191    2.0022 O   0  0  0  0  0  0  0  0  0  0  0  0
   -2.1232   -2.2423    2.4042 C   0  0  0  0  0  0  0  0  0  0  0  0
   -0.3048   -4.0823    2.0245 H   0  0  0  0  0  0  0  0  0  0  0  0
   -1.3830   -2.3724    0.3801 H   0  0  0  0  0  0  0  0  0  0  0  0
   -1.7534   -2.0527    3.4185 H   0  0  0  0  0  0  0  0  0  0  0  0
   -2.8936   -1.4947    2.1882 H   0  0  0  0  0  0  0  0  0  0  0  0
   -2.5964   -3.2301    2.4022 H   0  0  0  0  0  0  0  0  0  0  0  0
   -1.0412    0.1517    0.7482 N   0  0  0  0  0  0  0  0  0  0  0  0
   -0.6079    1.5223    0.6467 C   0  0  2  0  0  0  0  0  0  0  0  0
   -1.6711    2.4072    1.2962 C   0  0  0  0  0  0  0  0  0  0  0  0
   -1.3951    3.3421    2.0454 O   0  0  0  0  0  0  0  0  0  0  0  0
   -0.2889    1.9494   -0.8063 C   0  0  2  0  0  0  0  0  0  0  0  0
    0.8852    1.1454   -1.4075 C   0  0  0  0  0  0  0  0  0  0  0  0
   -0.0303    3.4607   -0.8681 C   0  0  0  0  0  0  0  0  0  0  0  0
    1.0542    1.3478   -2.9079 C   0  0  0  0  0  0  0  0  0  0  0  0
   -1.9022   -0.1128    0.2753 H   0  0  0  0  0  0  0  0  0  0  0  0
    0.2985    1.5966    1.2610 H   0  0  0  0  0  0  0  0  0  0  0  0
   -1.1776    1.7509   -1.4202 H   0  0  0  0  0  0  0  0  0  0  0  0
    1.8219    1.4463   -0.9244 H   0  0  0  0  0  0  0  0  0  0  0  0
    0.7562    0.0746   -1.2100 H   0  0  0  0  0  0  0  0  0  0  0  0
    0.8489    3.7298   -0.2728 H   0  0  0  0  0  0  0  0  0  0  0  0
    0.1655    3.7875   -1.8939 H   0  0  0  0  0  0  0  0  0  0  0  0
   -0.8850    4.0303   -0.4888 H   0  0  0  0  0  0  0  0  0  0  0  0
    0.1513    1.0655   -3.4568 H   0  0  0  0  0  0  0  0  0  0  0  0
    1.8734    0.7235   -3.2797 H   0  0  0  0  0  0  0  0  0  0  0  0
    1.2920    2.3906   -3.1400 H   0  0  0  0  0  0  0  0  0  0  0  0
   -2.9558    2.0489    0.9136 N   0  0  0  0  0  0  0  0  0  0  0  0
   -4.1407    2.7392    1.3699 C   0  0  2  0  0  0  0  0  0  0  0  0
   -5.2232    2.5646    0.3130 C   0  0  0  0  0  0  0  0  0  0  0  0
   -4.9769    2.3023   -0.8625 O   0  0  0  0  0  0  0  0  0  0  0  0
   -3.8601    4.2124    1.6224 C   0  0  0  0  0  0  0  0  0  0  0  0
   -3.0692    1.2623    0.2811 H   0  0  0  0  0  0  0  0  0  0  0  0
   -4.4539    2.2498    2.2986 H   0  0  0  0  0  0  0  0  0  0  0  0
   -3.5449    4.7195    0.7032 H   0  0  0  0  0  0  0  0  0  0  0  0
   -4.7513    4.7278    1.9953 H   0  0  0  0  0  0  0  0  0  0  0  0
   -3.0606    4.3359    2.3609 H   0  0  0  0  0  0  0  0  0  0  0  0
   -6.4943    2.7787    0.8274 N   0  0  0  0  0  0  0  0  0  0  0  0
   -7.6882    2.6842    0.0202 C   0  0  0  0  0  0  0  0  0  0  0  0
   -6.6062    2.9729    1.8181 H   0  0  0  0  0  0  0  0  0  0  0  0
   -7.9412    3.6775   -0.3789 H   0  0  0  0  0  0  0  0  0  0  0  0
   -7.5129    1.9881   -0.8134 H   0  0  0  0  0  0  0  0  0  0  0  0
   -8.5199    2.3145    0.6378 H   0  0  0  0  0  0  0  0  0  0  0  0
  1  3  1  0  0  0  0
  1  7  1  0  0  0  0
  1  2  2  0  0  0  0
 37 38  1  0  0  0  0
 38 46  1  0  0  0  0
 38 39  2  0  0  0  0
  8  9  1  0  0  0  0
  9 17  1  0  0  0  0
  9 10  2  0  0  0  0
 18 19  1  0  0  0  0
 19 36  1  0  0  0  0
 19 20  2  0  0  0  0
 22 24  1  0  0  0  0
 37 40  1  0  0  0  0
  8 11  1  0  0  0  0
 21 23  1  0  0  0  0
 46 47  1  0  0  0  0
 21 22  1  0  0  0  0
 36 37  1  0  0  0  0
  7  8  1  0  0  0  0
 18 21  1  0  0  0  0
 17 18  1  0  0  0  0
  3  4  1  0  0  0  0
  3  5  1  0  0  0  0
  3  6  1  0  0  0  0
 24 33  1  0  0  0  0
 24 34  1  0  0  0  0
 24 35  1  0  0  0  0
 40 43  1  0  0  0  0
 40 44  1  0  0  0  0
 40 45  1  0  0  0  0
 11 14  1  0  0  0  0
 11 15  1  0  0  0  0
 11 16  1  0  0  0  0
 23 30  1  0  0  0  0
 23 31  1  0  0  0  0
 23 32  1  0  0  0  0
 47 49  1  0  0  0  0
 47 50  1  0  0  0  0
 47 51  1  0  0  0  0
 22 28  1  0  0  0  0
 22 29  1  0  0  0  0
 37 42  1  0  0  0  0
  8 13  1  0  0  0  0
 18 26  1  0  0  0  0
 21 27  1  0  0  0  0
 46 48  1  0  0  0  0
  7 12  1  0  0  0  0
 36 41  1  0  0  0  0
 17 25  1  0  0  0  0
M  END
$$$$

  -OEChem-05262214473D

 51 50  0     1  0  0  0  0  0999 V2000
    1.3524   -3.0009    1.4091 C   0  0  0  0  0  0  0  0  0  0  0  0
    1.8758   -1.9880    0.9598 O   0  0  0  0  0  0  0  0  0  0  0  0
    2.2030   -4.1782    1.7536 C   0  0  0  0  0  0  0  0  0  0  0  0
    2.3264   -4.8705    0.9053 H   0  0  0  0  0  0  0  0  0  0  0  0
    3.2257   -3.8876    2.0432 H   0  0  0  0  0  0  0  0  0  0  0  0
    1.8327   -4.8004    2.5839 H   0  0  0  0  0  0  0  0  0  0  0  0
    0.0005   -3.1873    1.6465 N   0  0  0  0  0  0  0  0  0  0  0  0
   -0.9949   -2.1807    1.3864 C   0  0  2  0  0  0  0  0  0  0  0  0
   -0.3083   -0.8216    1.4164 C   0  0  0  0  0  0  0  0  0  0  0  0
    0.7533   -0.6191    2.0022 O   0  0  0  0  0  0  0  0  0  0  0  0
   -2.1232   -2.2423    2.4042 C   0  0  0  0  0  0  0  0  0  0  0  0
   -0.3048   -4.0823    2.0245 H   0  0  0  0  0  0  0  0  0  0  0  0
   -1.3830   -2.3724    0.3801 H   0  0  0  0  0  0  0  0  0  0  0  0
   -1.7534   -2.0527    3.4185 H   0  0  0  0  0  0  0  0  0  0  0  0
   -2.8936   -1.4947    2.1882 H   0  0  0  0  0  0  0  0  0  0  0  0
   -2.5964   -3.2301    2.4022 H   0  0  0  0  0  0  0  0  0  0  0  0
   -1.0412    0.1517    0.7482 N   0  0  0  0  0  0  0  0  0  0  0  0
   -0.6079    1.5223    0.6467 C   0  0  2  0  0  0  0  0  0  0  0  0
   -1.6711    2.4072    1.2962 C   0  0  0  0  0  0  0  0  0  0  0  0
   -1.4109    3.4887    1.8198 O   0  0  0  0  0  0  0  0  0  0  0  0
   -0.2889    1.9494   -0.8063 C   0  0  2  0  0  0  0  0  0  0  0  0
    0.8852    1.1454   -1.4075 C   0  0  0  0  0  0  0  0  0  0  0  0
   -0.0303    3.4607   -0.8681 C   0  0  0  0  0  0  0  0  0  0  0  0
    1.0542    1.3478   -2.9079 C   0  0  0  0  0  0  0  0  0  0  0  0
   -1.9022   -0.1128    0.2753 H   0  0  0  0  0  0  0  0  0  0  0  0
    0.2985    1.5966    1.2610 H   0  0  0  0  0  0  0  0  0  0  0  0
   -1.1776    1.7509   -1.4202 H   0  0  0  0  0  0  0  0  0  0  0  0
    1.8219    1.4463   -0.9244 H   0  0  0  0  0  0  0  0  0  0  0  0
    0.7562    0.0746   -1.2100 H   0  0  0  0  0  0  0  0  0  0  0  0
    0.8489    3.7298   -0.2728 H   0  0  0  0  0  0  0  0  0  0  0  0
    0.1655    3.7875   -1.8939 H   0  0  0  0  0  0  0  0  0  0  0  0
   -0.8850    4.0303   -0.4888 H   0  0  0  0  0  0  0  0  0  0  0  0
    0.1513    1.0655   -3.4568 H   0  0  0  0  0  0  0  0  0  0  0  0
    1.8734    0.7235   -3.2797 H   0  0  0  0  0  0  0  0  0  0  0  0
    1.2920    2.3906   -3.1400 H   0  0  0  0  0  0  0  0  0  0  0  0
   -2.9424    1.8612    1.1912 N   0  0  0  0  0  0  0  0  0  0  0  0
   -4.1280    2.5078    1.7059 C   0  0  2  0  0  0  0  0  0  0  0  0
   -5.3177    2.0337    0.8816 C   0  0  0  0  0  0  0  0  0  0  0  0
   -5.2076    1.5796   -0.2554 O   0  0  0  0  0  0  0  0  0  0  0  0
   -3.9993    4.0222    1.6535 C   0  0  0  0  0  0  0  0  0  0  0  0
   -3.0449    0.9623    0.7297 H   0  0  0  0  0  0  0  0  0  0  0  0
   -4.2453    2.1743    2.7427 H   0  0  0  0  0  0  0  0  0  0  0  0
   -3.8810    4.3750    0.6225 H   0  0  0  0  0  0  0  0  0  0  0  0
   -4.8865    4.5104    2.0701 H   0  0  0  0  0  0  0  0  0  0  0  0
   -3.1260    4.3590    2.2224 H   0  0  0  0  0  0  0  0  0  0  0  0
   -6.5210    2.2175    1.5482 N   0  0  0  0  0  0  0  0  0  0  0  0
   -7.7950    1.8581    0.9707 C   0  0  0  0  0  0  0  0  0  0  0  0
   -6.5164    2.5833    2.4958 H   0  0  0  0  0  0  0  0  0  0  0  0
   -8.2223    2.7294    0.4527 H   0  0  0  0  0  0  0  0  0  0  0  0
   -7.6532    1.0376    0.2519 H   0  0  0  0  0  0  0  0  0  0  0  0
   -8.4801    1.5332    1.7676 H   0  0  0  0  0  0  0  0  0  0  0  0
  1  3  1  0  0  0  0
  1  7  1  0  0  0  0
  1  2  2  0  0  0  0
 37 38  1  0  0  0  0
 38 46  1  0  0  0  0
 38 39  2  0  0  0  0
  8  9  1  0  0  0  0
  9 17  1  0  0  0  0
  9 10  2  0  0  0  0
 18 19  1  0  0  0  0
 19 36  1  0  0  0  0
 19 20  2  0  0  0  0
 22 24  1  0  0  0  0
 37 40  1  0  0  0  0
  8 11  1  0  0  0  0
 21 23  1  0  0  0  0
 46 47  1  0  0  0  0
 21 22  1  0  0  0  0
 36 37  1  0  0  0  0
  7  8  1  0  0  0  0
 18 21  1  0  0  0  0
 17 18  1  0  0  0  0
  3  4  1  0  0  0  0
  3  5  1  0  0  0  0
  3  6  1  0  0  0  0
 24 33  1  0  0  0  0
 24 34  1  0  0  0  0
 24 35  1  0  0  0  0
 40 43  1  0  0  0  0
 40 44  1  0  0  0  0
 40 45  1  0  0  0  0
 11 14  1  0  0  0  0
 11 15  1  0  0  0  0
 11 16  1  0  0  0  0
 23 30  1  0  0  0  0
 23 31  1  0  0  0  0
 23 32  1  0  0  0  0
 47 49  1  0  0  0  0
 47 50  1  0  0  0  0
 47 51  1  0  0  0  0
 22 28  1  0  0  0  0
 22 29  1  0  0  0  0
 37 42  1  0  0  0  0
  8 13  1  0  0  0  0
 18 26  1  0  0  0  0
 21 27  1  0  0  0  0
 46 48  1  0  0  0  0
  7 12  1  0  0  0  0
 36 41  1  0  0  0  0
 17 25  1  0  0  0  0
M  END
$$$$

  -OEChem-05262214473D

 51 50  0     1  0  0  0  0  0999 V2000
    1.3524   -3.0009    1.4091 C   0  0  0  0  0  0  0  0  0  0  0  0
    1.8758   -1.9880    0.9598 O   0  0  0  0  0  0  0  0  0  0  0  0
    2.2030   -4.1782    1.7536 C   0  0  0  0  0  0  0  0  0  0  0  0
    2.3264   -4.8705    0.9053 H   0  0  0  0  0  0  0  0  0  0  0  0
    3.2257   -3.8876    2.0432 H   0  0  0  0  0  0  0  0  0  0  0  0
    1.8327   -4.8004    2.5839 H   0  0  0  0  0  0  0  0  0  0  0  0
    0.0005   -3.1873    1.6465 N   0  0  0  0  0  0  0  0  0  0  0  0
   -0.9949   -2.1807    1.3864 C   0  0  2  0  0  0  0  0  0  0  0  0
   -0.3083   -0.8216    1.4164 C   0  0  0  0  0  0  0  0  0  0  0  0
    0.7533   -0.6191    2.0022 O   0  0  0  0  0  0  0  0  0  0  0  0
   -2.1232   -2.2423    2.4042 C   0  0  0  0  0  0  0  0  0  0  0  0
   -0.3048   -4.0823    2.0245 H   0  0  0  0  0  0  0  0  0  0  0  0
   -1.3830   -2.3724    0.3801 H   0  0  0  0  0  0  0  0  0  0  0  0
   -1.7534   -2.0527    3.4185 H   0  0  0  0  0  0  0  0  0  0  0  0
   -2.8936   -1.4947    2.1882 H   0  0  0  0  0  0  0  0  0  0  0  0
   -2.5964   -3.2301    2.4022 H   0  0  0  0  0  0  0  0  0  0  0  0
   -1.0412    0.1517    0.7482 N   0  0  0  0  0  0  0  0  0  0  0  0
   -0.6079    1.5223    0.6467 C   0  0  2  0  0  0  0  0  0  0  0  0
   -1.6711    2.4072    1.2962 C   0  0  0  0  0  0  0  0  0  0  0  0
   -1.4761    3.5879    1.5779 O   0  0  0  0  0  0  0  0  0  0  0  0
   -0.2889    1.9494   -0.8063 C   0  0  2  0  0  0  0  0  0  0  0  0
    0.8852    1.1454   -1.4075 C   0  0  0  0  0  0  0  0  0  0  0  0
   -0.0303    3.4607   -0.8681 C   0  0  0  0  0  0  0  0  0  0  0  0
    1.0542    1.3478   -2.9079 C   0  0  0  0  0  0  0  0  0  0  0  0
   -1.9022   -0.1128    0.2753 H   0  0  0  0  0  0  0  0  0  0  0  0
    0.2985    1.5966    1.2610 H   0  0  0  0  0  0  0  0  0  0  0  0
   -1.1776    1.7509   -1.4202 H   0  0  0  0  0  0  0  0  0  0  0  0
    1.8219    1.4463   -0.9244 H   0  0  0  0  0  0  0  0  0  0  0  0
    0.7562    0.0746   -1.2100 H   0  0  0  0  0  0  0  0  0  0  0  0
    0.8489    3.7298   -0.2728 H   0  0  0  0  0  0  0  0  0  0  0  0
    0.1655    3.7875   -1.8939 H   0  0  0  0  0  0  0  0  0  0  0  0
   -0.8850    4.0303   -0.4888 H   0  0  0  0  0  0  0  0  0  0  0  0
    0.1513    1.0655   -3.4568 H   0  0  0  0  0  0  0  0  0  0  0  0
    1.8734    0.7235   -3.2797 H   0  0  0  0  0  0  0  0  0  0  0  0
    1.2920    2.3906   -3.1400 H   0  0  0  0  0  0  0  0  0  0  0  0
   -2.8672    1.7314    1.4913 N   0  0  0  0  0  0  0  0  0  0  0  0
   -4.0400    2.3462    2.0702 C   0  0  2  0  0  0  0  0  0  0  0  0
   -5.2653    1.6130    1.5405 C   0  0  0  0  0  0  0  0  0  0  0  0
   -5.2599    0.9654    0.4956 O   0  0  0  0  0  0  0  0  0  0  0  0
   -4.1083    3.8288    1.7387 C   0  0  0  0  0  0  0  0  0  0  0  0
   -2.9211    0.7560    1.2133 H   0  0  0  0  0  0  0  0  0  0  0  0
   -3.9690    2.2044    3.1541 H   0  0  0  0  0  0  0  0  0  0  0  0
   -4.1798    3.9907    0.6569 H   0  0  0  0  0  0  0  0  0  0  0  0
   -4.9821    4.2991    2.2017 H   0  0  0  0  0  0  0  0  0  0  0  0
   -3.2124    4.3493    2.0941 H   0  0  0  0  0  0  0  0  0  0  0  0
   -6.3770    1.8024    2.3495 N   0  0  0  0  0  0  0  0  0  0  0  0
   -7.6649    1.2196    2.0536 C   0  0  0  0  0  0  0  0  0  0  0  0
   -6.2853    2.3389    3.2071 H   0  0  0  0  0  0  0  0  0  0  0  0
   -8.2649    1.9324    1.4688 H   0  0  0  0  0  0  0  0  0  0  0  0
   -7.5246    0.2958    1.4730 H   0  0  0  0  0  0  0  0  0  0  0  0
   -8.1864    0.9862    2.9936 H   0  0  0  0  0  0  0  0  0  0  0  0
  1  3  1  0  0  0  0
  1  7  1  0  0  0  0
  1  2  2  0  0  0  0
 37 38  1  0  0  0  0
 38 46  1  0  0  0  0
 38 39  2  0  0  0  0
  8  9  1  0  0  0  0
  9 17  1  0  0  0  0
  9 10  2  0  0  0  0
 18 19  1  0  0  0  0
 19 36  1  0  0  0  0
 19 20  2  0  0  0  0
 22 24  1  0  0  0  0
 37 40  1  0  0  0  0
  8 11  1  0  0  0  0
 21 23  1  0  0  0  0
 46 47  1  0  0  0  0
 21 22  1  0  0  0  0
 36 37  1  0  0  0  0
  7  8  1  0  0  0  0
 18 21  1  0  0  0  0
 17 18  1  0  0  0  0
  3  4  1  0  0  0  0
  3  5  1  0  0  0  0
  3  6  1  0  0  0  0
 24 33  1  0  0  0  0
 24 34  1  0  0  0  0
 24 35  1  0  0  0  0
 40 43  1  0  0  0  0
 40 44  1  0  0  0  0
 40 45  1  0  0  0  0
 11 14  1  0  0  0  0
 11 15  1  0  0  0  0
 11 16  1  0  0  0  0
 23 30  1  0  0  0  0
 23 31  1  0  0  0  0
 23 32  1  0  0  0  0
 47 49  1  0  0  0  0
 47 50  1  0  0  0  0
 47 51  1  0  0  0  0
 22 28  1  0  0  0  0
 22 29  1  0  0  0  0
 37 42  1  0  0  0  0
  8 13  1  0  0  0  0
 18 26  1  0  0  0  0
 21 27  1  0  0  0  0
 46 48  1  0  0  0  0
  7 12  1  0  0  0  0
 36 41  1  0  0  0  0
 17 25  1  0  0  0  0
M  END
$$$$

  -OEChem-05262214473D

 51 50  0     1  0  0  0  0  0999 V2000
    1.3524   -3.0009    1.4091 C   0  0  0  0  0  0  0  0  0  0  0  0
    1.8758   -1.9880    0.9598 O   0  0  0  0  0  0  0  0  0  0  0  0
    2.2030   -4.1782    1.7536 C   0  0  0  0  0  0  0  0  0  0  0  0
    2.3264   -4.8705    0.9053 H   0  0  0  0  0  0  0  0  0  0  0  0
    3.2257   -3.8876    2.0432 H   0  0  0  0  0  0  0  0  0  0  0  0
    1.8327   -4.8004    2.5839 H   0  0  0  0  0  0  0  0  0  0  0  0
    0.0005   -3.1873    1.6465 N   0  0  0  0  0  0  0  0  0  0  0  0
   -0.9949   -2.1807    1.3864 C   0  0  2  0  0  0  0  0  0  0  0  0
   -0.3083   -0.8216    1.4164 C   0  0  0  0  0  0  0  0  0  0  0  0
    0.7533   -0.6191    2.0022 O   0  0  0  0  0  0  0  0  0  0  0  0
   -2.1232   -2.2423    2.4042 C   0  0  0  0  0  0  0  0  0  0  0  0
   -0.3048   -4.0823    2.0245 H   0  0  0  0  0  0  0  0  0  0  0  0
   -1.3830   -2.3724    0.3801 H   0  0  0  0  0  0  0  0  0  0  0  0
   -1.7534   -2.0527    3.4185 H   0  0  0  0  0  0  0  0  0  0  0  0
   -2.8936   -1.4947    2.1882 H   0  0  0  0  0  0  0  0  0  0  0  0
   -2.5964   -3.2301    2.4022 H   0  0  0  0  0  0  0  0  0  0  0  0
   -1.0412    0.1517    0.7482 N   0  0  0  0  0  0  0  0  0  0  0  0
   -0.6079    1.5223    0.6467 C   0  0  2  0  0  0  0  0  0  0  0  0
   -1.6711    2.4072    1.2962 C   0  0  0  0  0  0  0  0  0  0  0  0
   -1.5862    3.6330    1.3361 O   0  0  0  0  0  0  0  0  0  0  0  0
   -0.2889    1.9494   -0.8063 C   0  0  2  0  0  0  0  0  0  0  0  0
    0.8852    1.1454   -1.4075 C   0  0  0  0  0  0  0  0  0  0  0  0
   -0.0303    3.4607   -0.8681 C   0  0  0  0  0  0  0  0  0  0  0  0
    1.0542    1.3478   -2.9079 C   0  0  0  0  0  0  0  0  0  0  0  0
   -1.9022   -0.1128    0.2753 H   0  0  0  0  0  0  0  0  0  0  0  0
    0.2985    1.5966    1.2610 H   0  0  0  0  0  0  0  0  0  0  0  0
   -1.1776    1.7509   -1.4202 H   0  0  0  0  0  0  0  0  0  0  0  0
    1.8219    1.4463   -0.9244 H   0  0  0  0  0  0  0  0  0  0  0  0
    0.7562    0.0746   -1.2100 H   0  0  0  0  0  0  0  0  0  0  0  0
    0.8489    3.7298   -0.2728 H   0  0  0  0  0  0  0  0  0  0  0  0
    0.1655    3.7875   -1.8939 H   0  0  0  0  0  0  0  0  0  0  0  0
   -0.8850    4.0303   -0.4888 H   0  0  0  0  0  0  0  0  0  0  0  0
    0.1513    1.0655   -3.4568 H   0  0  0  0  0  0  0  0  0  0  0  0
    1.8734    0.7235   -3.2797 H   0  0  0  0  0  0  0  0  0  0  0  0
    1.2920    2.3906   -3.1400 H   0  0  0  0  0  0  0  0  0  0  0  0
   -2.7353    1.6683    1.7932 N   0  0  0  0  0  0  0  0  0  0  0  0
   -3.8826    2.2653    2.4380 C   0  0  2  0  0  0  0  0  0  0  0  0
   -5.0697    1.3309    2.2449 C   0  0  0  0  0  0  0  0  0  0  0  0
   -5.1303    0.5017    1.3395 O   0  0  0  0  0  0  0  0  0  0  0  0
   -4.1795    3.6453    1.8721 C   0  0  0  0  0  0  0  0  0  0  0  0
   -2.7064    0.6574    1.6991 H   0  0  0  0  0  0  0  0  0  0  0  0
   -3.6438    2.3378    3.5046 H   0  0  0  0  0  0  0  0  0  0  0  0
   -4.4210    3.5928    0.8042 H   0  0  0  0  0  0  0  0  0  0  0  0
   -5.0314    4.1081    2.3812 H   0  0  0  0  0  0  0  0  0  0  0  0
   -3.3141    4.3073    1.9850 H   0  0  0  0  0  0  0  0  0  0  0  0
   -6.0722    1.5615    3.1766 N   0  0  0  0  0  0  0  0  0  0  0  0
   -7.3067    0.8121    3.1950 C   0  0  0  0  0  0  0  0  0  0  0  0
   -5.9286    2.2563    3.9035 H   0  0  0  0  0  0  0  0  0  0  0  0
   -8.0661    1.3408    2.6002 H   0  0  0  0  0  0  0  0  0  0  0  0
   -7.1357   -0.1866    2.7668 H   0  0  0  0  0  0  0  0  0  0  0  0
   -7.6587    0.7110    4.2323 H   0  0  0  0  0  0  0  0  0  0  0  0
  1  3  1  0  0  0  0
  1  7  1  0  0  0  0
  1  2  2  0  0  0  0
 37 38  1  0  0  0  0
 38 46  1  0  0  0  0
 38 39  2  0  0  0  0
  8  9  1  0  0  0  0
  9 17  1  0  0  0  0
  9 10  2  0  0  0  0
 18 19  1  0  0  0  0
 19 36  1  0  0  0  0
 19 20  2  0  0  0  0
 22 24  1  0  0  0  0
 37 40  1  0  0  0  0
  8 11  1  0  0  0  0
 21 23  1  0  0  0  0
 46 47  1  0  0  0  0
 21 22  1  0  0  0  0
 36 37  1  0  0  0  0
  7  8  1  0  0  0  0
 18 21  1  0  0  0  0
 17 18  1  0  0  0  0
  3  4  1  0  0  0  0
  3  5  1  0  0  0  0
  3  6  1  0  0  0  0
 24 33  1  0  0  0  0
 24 34  1  0  0  0  0
 24 35  1  0  0  0  0
 40 43  1  0  0  0  0
 40 44  1  0  0  0  0
 40 45  1  0  0  0  0
 11 14  1  0  0  0  0
 11 15  1  0  0  0  0
 11 16  1  0  0  0  0
 23 30  1  0  0  0  0
 23 31  1  0  0  0  0
 23 32  1  0  0  0  0
 47 49  1  0  0  0  0
 47 50  1  0  0  0  0
 47 51  1  0  0  0  0
 22 28  1  0  0  0  0
 22 29  1  0  0  0  0
 37 42  1  0  0  0  0
  8 13  1  0  0  0  0
 18 26  1  0  0  0  0
 21 27  1  0  0  0  0
 46 48  1  0  0  0  0
  7 12  1  0  0  0  0
 36 41  1  0  0  0  0
 17 25  1  0  0  0  0
M  END
$$$$

  -OEChem-05262214473D

 51 50  0     1  0  0  0  0  0999 V2000
    1.3524   -3.0009    1.4091 C   0  0  0  0  0  0  0  0  0  0  0  0
    1.8758   -1.9880    0.9598 O   0  0  0  0  0  0  0  0  0  0  0  0
    2.2030   -4.1782    1.7536 C   0  0  0  0  0  0  0  0  0  0  0  0
    2.3264   -4.8705    0.9053 H   0  0  0  0  0  0  0  0  0  0  0  0
    3.2257   -3.8876    2.0432 H   0  0  0  0  0  0  0  0  0  0  0  0
    1.8327   -4.8004    2.5839 H   0  0  0  0  0  0  0  0  0  0  0  0
    0.0005   -3.1873    1.6465 N   0  0  0  0  0  0  0  0  0  0  0  0
   -0.9949   -2.1807    1.3864 C   0  0  2  0  0  0  0  0  0  0  0  0
   -0.3083   -0.8216    1.4164 C   0  0  0  0  0  0  0  0  0  0  0  0
    0.7533   -0.6191    2.0022 O   0  0  0  0  0  0  0  0  0  0  0  0
   -2.1232   -2.2423    2.4042 C   0  0  0  0  0  0  0  0  0  0  0  0
   -0.3048   -4.0823    2.0245 H   0  0  0  0  0  0  0  0  0  0  0  0
   -1.3830   -2.3724    0.3801 H   0  0  0  0  0  0  0  0  0  0  0  0
   -1.7534   -2.0527    3.4185 H   0  0  0  0  0  0  0  0  0  0  0  0
   -2.8936   -1.4947    2.1882 H   0  0  0  0  0  0  0  0  0  0  0  0
   -2.5964   -3.2301    2.4022 H   0  0  0  0  0  0  0  0  0  0  0  0
   -1.0412    0.1517    0.7482 N   0  0  0  0  0  0  0  0  0  0  0  0
   -0.6079    1.5223    0.6467 C   0  0  2  0  0  0  0  0  0  0  0  0
   -1.6711    2.4072    1.2962 C   0  0  0  0  0  0  0  0  0  0  0  0
   -1.7338    3.6210    1.1110 O   0  0  0  0  0  0  0  0  0  0  0  0
   -0.2889    1.9494   -0.8063 C   0  0  2  0  0  0  0  0  0  0  0  0
    0.8852    1.1454   -1.4075 C   0  0  0  0  0  0  0  0  0  0  0  0
   -0.0303    3.4607   -0.8681 C   0  0  0  0  0  0  0  0  0  0  0  0
    1.0542    1.3478   -2.9079 C   0  0  0  0  0  0  0  0  0  0  0  0
   -1.9022   -0.1128    0.2753 H   0  0  0  0  0  0  0  0  0  0  0  0
    0.2985    1.5966    1.2610 H   0  0  0  0  0  0  0  0  0  0  0  0
   -1.1776    1.7509   -1.4202 H   0  0  0  0  0  0  0  0  0  0  0  0
    1.8219    1.4463   -0.9244 H   0  0  0  0  0  0  0  0  0  0  0  0
    0.7562    0.0746   -1.2100 H   0  0  0  0  0  0  0  0  0  0  0  0
    0.8489    3.7298   -0.2728 H   0  0  0  0  0  0  0  0  0  0  0  0
    0.1655    3.7875   -1.8939 H   0  0  0  0  0  0  0  0  0  0  0  0
   -0.8850    4.0303   -0.4888 H   0  0  0  0  0  0  0  0  0  0  0  0
    0.1513    1.0655   -3.4568 H   0  0  0  0  0  0  0  0  0  0  0  0
    1.8734    0.7235   -3.2797 H   0  0  0  0  0  0  0  0  0  0  0  0
    1.2920    2.3906   -3.1400 H   0  0  0  0  0  0  0  0  0  0  0  0
   -2.5557    1.6762    2.0764 N   0  0  0  0  0  0  0  0  0  0  0  0
   -3.6666    2.2708    2.7842 C   0  0  2  0  0  0  0  0  0  0  0  0
   -4.7441    1.2069    2.9468 C   0  0  0  0  0  0  0  0  0  0  0  0
   -4.8277    0.2200    2.2188 O   0  0  0  0  0  0  0  0  0  0  0  0
   -4.2081    3.4843    2.0447 C   0  0  0  0  0  0  0  0  0  0  0  0
   -2.4154    0.6732    2.1538 H   0  0  0  0  0  0  0  0  0  0  0  0
   -3.2918    2.5656    3.7704 H   0  0  0  0  0  0  0  0  0  0  0  0
   -4.5881    3.2085    1.0542 H   0  0  0  0  0  0  0  0  0  0  0  0
   -5.0311    3.9505    2.5964 H   0  0  0  0  0  0  0  0  0  0  0  0
   -3.4240    4.2358    1.9024 H   0  0  0  0  0  0  0  0  0  0  0  0
   -5.6273    1.5112    3.9733 N   0  0  0  0  0  0  0  0  0  0  0  0
   -6.7448    0.6635    4.3173 C   0  0  0  0  0  0  0  0  0  0  0  0
   -5.4706    2.3411    4.5376 H   0  0  0  0  0  0  0  0  0  0  0  0
   -7.6394    0.9950    3.7697 H   0  0  0  0  0  0  0  0  0  0  0  0
   -6.5131   -0.3769    4.0452 H   0  0  0  0  0  0  0  0  0  0  0  0
   -6.9331    0.7262    5.3992 H   0  0  0  0  0  0  0  0  0  0  0  0
  1  3  1  0  0  0  0
  1  7  1  0  0  0  0
  1  2  2  0  0  0  0
 37 38  1  0  0  0  0
 38 46  1  0  0  0  0
 38 39  2  0  0  0  0
  8  9  1  0  0  0  0
  9 17  1  0  0  0  0
  9 10  2  0  0  0  0
 18 19  1  0  0  0  0
 19 36  1  0  0  0  0
 19 20  2  0  0  0  0
 22 24  1  0  0  0  0
 37 40  1  0  0  0  0
  8 11  1  0  0  0  0
 21 23  1  0  0  0  0
 46 47  1  0  0  0  0
 21 22  1  0  0  0  0
 36 37  1  0  0  0  0
  7  8  1  0  0  0  0
 18 21  1  0  0  0  0
 17 18  1  0  0  0  0
  3  4  1  0  0  0  0
  3  5  1  0  0  0  0
  3  6  1  0  0  0  0
 24 33  1  0  0  0  0
 24 34  1  0  0  0  0
 24 35  1  0  0  0  0
 40 43  1  0  0  0  0
 40 44  1  0  0  0  0
 40 45  1  0  0  0  0
 11 14  1  0  0  0  0
 11 15  1  0  0  0  0
 11 16  1  0  0  0  0
 23 30  1  0  0  0  0
 23 31  1  0  0  0  0
 23 32  1  0  0  0  0
 47 49  1  0  0  0  0
 47 50  1  0  0  0  0
 47 51  1  0  0  0  0
 22 28  1  0  0  0  0
 22 29  1  0  0  0  0
 37 42  1  0  0  0  0
  8 13  1  0  0  0  0
 18 26  1  0  0  0  0
 21 27  1  0  0  0  0
 46 48  1  0  0  0  0
  7 12  1  0  0  0  0
 36 41  1  0  0  0  0
 17 25  1  0  0  0  0
M  END
$$$$

  -OEChem-05262214473D

 51 50  0     1  0  0  0  0  0999 V2000
    1.3524   -3.0009    1.4091 C   0  0  0  0  0  0  0  0  0  0  0  0
    1.8758   -1.9880    0.9598 O   0  0  0  0  0  0  0  0  0  0  0  0
    2.2030   -4.1782    1.7536 C   0  0  0  0  0  0  0  0  0  0  0  0
    2.3264   -4.8705    0.9053 H   0  0  0  0  0  0  0  0  0  0  0  0
    3.2257   -3.8876    2.0432 H   0  0  0  0  0  0  0  0  0  0  0  0
    1.8327   -4.8004    2.5839 H   0  0  0  0  0  0  0  0  0  0  0  0
    0.0005   -3.1873    1.6465 N   0  0  0  0  0  0  0  0  0  0  0  0
   -0.9949   -2.1807    1.3864 C   0  0  2  0  0  0  0  0  0  0  0  0
   -0.3083   -0.8216    1.4164 C   0  0  0  0  0  0  0  0  0  0  0  0
    0.7533   -0.6191    2.0022 O   0  0  0  0  0  0  0  0  0  0  0  0
   -2.1232   -2.2423    2.4042 C   0  0  0  0  0  0  0  0  0  0  0  0
   -0.3048   -4.0823    2.0245 H   0  0  0  0  0  0  0  0  0  0  0  0
   -1.3830   -2.3724    0.3801 H   0  0  0  0  0  0  0  0  0  0  0  0
   -1.7534   -2.0527    3.4185 H   0  0  0  0  0  0  0  0  0  0  0  0
   -2.8936   -1.4947    2.1882 H   0  0  0  0  0  0  0  0  0  0  0  0
   -2.5964   -3.2301    2.4022 H   0  0  0  0  0  0  0  0  0  0  0  0
   -1.0412    0.1517    0.7482 N   0  0  0  0  0  0  0  0  0  0  0  0
   -0.6079    1.5223    0.6467 C   0  0  2  0  0  0  0  0  0  0  0  0
   -1.6711    2.4072    1.2962 C   0  0  0  0  0  0  0  0  0  0  0  0
   -1.9088    3.5525    0.9178 O   0  0  0  0  0  0  0  0  0  0  0  0
   -0.2889    1.9494   -0.8063 C   0  0  2  0  0  0  0  0  0  0  0  0
    0.8852    1.1454   -1.4075 C   0  0  0  0  0  0  0  0  0  0  0  0
   -0.0303    3.4607   -0.8681 C   0  0  0  0  0  0  0  0  0  0  0  0
    1.0542    1.3478   -2.9079 C   0  0  0  0  0  0  0  0  0  0  0  0
   -1.9022   -0.1128    0.2753 H   0  0  0  0  0  0  0  0  0  0  0  0
    0.2985    1.5966    1.2610 H   0  0  0  0  0  0  0  0  0  0  0  0
   -1.1776    1.7509   -1.4202 H   0  0  0  0  0  0  0  0  0  0  0  0
    1.8219    1.4463   -0.9244 H   0  0  0  0  0  0  0  0  0  0  0  0
    0.7562    0.0746   -1.2100 H   0  0  0  0  0  0  0  0  0  0  0  0
    0.8489    3.7298   -0.2728 H   0  0  0  0  0  0  0  0  0  0  0  0
    0.1655    3.7875   -1.8939 H   0  0  0  0  0  0  0  0  0  0  0  0
   -0.8850    4.0303   -0.4888 H   0  0  0  0  0  0  0  0  0  0  0  0
    0.1513    1.0655   -3.4568 H   0  0  0  0  0  0  0  0  0  0  0  0
    1.8734    0.7235   -3.2797 H   0  0  0  0  0  0  0  0  0  0  0  0
    1.2920    2.3906   -3.1400 H   0  0  0  0  0  0  0  0  0  0  0  0
   -2.3406    1.7546    2.3216 N   0  0  0  0  0  0  0  0  0  0  0  0
   -3.4066    2.3622    3.0852 C   0  0  2  0  0  0  0  0  0  0  0  0
   -4.3108    1.2493    3.5984 C   0  0  0  0  0  0  0  0  0  0  0  0
   -4.3726    0.1394    3.0734 O   0  0  0  0  0  0  0  0  0  0  0  0
   -4.1921    3.3567    2.2447 C   0  0  0  0  0  0  0  0  0  0  0  0
   -2.0679    0.8025    2.5466 H   0  0  0  0  0  0  0  0  0  0  0  0
   -2.9370    2.8723    3.9334 H   0  0  0  0  0  0  0  0  0  0  0  0
   -4.6698    2.8639    1.3900 H   0  0  0  0  0  0  0  0  0  0  0  0
   -4.9812    3.8370    2.8326 H   0  0  0  0  0  0  0  0  0  0  0  0
   -3.5347    4.1399    1.8519 H   0  0  0  0  0  0  0  0  0  0  0  0
   -5.0726    1.6551    4.6852 N   0  0  0  0  0  0  0  0  0  0  0  0
   -6.0175    0.7838    5.3439 C   0  0  0  0  0  0  0  0  0  0  0  0
   -4.9425    2.5877    5.0662 H   0  0  0  0  0  0  0  0  0  0  0  0
   -7.0140    0.9185    4.8978 H   0  0  0  0  0  0  0  0  0  0  0  0
   -5.6992   -0.2619    5.2209 H   0  0  0  0  0  0  0  0  0  0  0  0
   -6.0590    1.0309    6.4149 H   0  0  0  0  0  0  0  0  0  0  0  0
  1  3  1  0  0  0  0
  1  7  1  0  0  0  0
  1  2  2  0  0  0  0
 37 38  1  0  0  0  0
 38 46  1  0  0  0  0
 38 39  2  0  0  0  0
  8  9  1  0  0  0  0
  9 17  1  0  0  0  0
  9 10  2  0  0  0  0
 18 19  1  0  0  0  0
 19 36  1  0  0  0  0
 19 20  2  0  0  0  0
 22 24  1  0  0  0  0
 37 40  1  0  0  0  0
  8 11  1  0  0  0  0
 21 23  1  0  0  0  0
 46 47  1  0  0  0  0
 21 22  1  0  0  0  0
 36 37  1  0  0  0  0
  7  8  1  0  0  0  0
 18 21  1  0  0  0  0
 17 18  1  0  0  0  0
  3  4  1  0  0  0  0
  3  5  1  0  0  0  0
  3  6  1  0  0  0  0
 24 33  1  0  0  0  0
 24 34  1  0  0  0  0
 24 35  1  0  0  0  0
 40 43  1  0  0  0  0
 40 44  1  0  0  0  0
 40 45  1  0  0  0  0
 11 14  1  0  0  0  0
 11 15  1  0  0  0  0
 11 16  1  0  0  0  0
 23 30  1  0  0  0  0
 23 31  1  0  0  0  0
 23 32  1  0  0  0  0
 47 49  1  0  0  0  0
 47 50  1  0  0  0  0
 47 51  1  0  0  0  0
 22 28  1  0  0  0  0
 22 29  1  0  0  0  0
 37 42  1  0  0  0  0
  8 13  1  0  0  0  0
 18 26  1  0  0  0  0
 21 27  1  0  0  0  0
 46 48  1  0  0  0  0
  7 12  1  0  0  0  0
 36 41  1  0  0  0  0
 17 25  1  0  0  0  0
M  END
$$$$

  -OEChem-05262214473D

 51 50  0     1  0  0  0  0  0999 V2000
    1.3524   -3.0009    1.4091 C   0  0  0  0  0  0  0  0  0  0  0  0
    1.8758   -1.9880    0.9598 O   0  0  0  0  0  0  0  0  0  0  0  0
    2.2030   -4.1782    1.7536 C   0  0  0  0  0  0  0  0  0  0  0  0
    2.3264   -4.8705    0.9053 H   0  0  0  0  0  0  0  0  0  0  0  0
    3.2257   -3.8876    2.0432 H   0  0  0  0  0  0  0  0  0  0  0  0
    1.8327   -4.8004    2.5839 H   0  0  0  0  0  0  0  0  0  0  0  0
    0.0005   -3.1873    1.6465 N   0  0  0  0  0  0  0  0  0  0  0  0
   -0.9949   -2.1807    1.3864 C   0  0  2  0  0  0  0  0  0  0  0  0
   -0.3083   -0.8216    1.4164 C   0  0  0  0  0  0  0  0  0  0  0  0
    0.7533   -0.6191    2.0022 O   0  0  0  0  0  0  0  0  0  0  0  0
   -2.1232   -2.2423    2.4042 C   0  0  0  0  0  0  0  0  0  0  0  0
   -0.3048   -4.0823    2.0245 H   0  0  0  0  0  0  0  0  0  0  0  0
   -1.3830   -2.3724    0.3801 H   0  0  0  0  0  0  0  0  0  0  0  0
   -1.7534   -2.0527    3.4185 H   0  0  0  0  0  0  0  0  0  0  0  0
   -2.8936   -1.4947    2.1882 H   0  0  0  0  0  0  0  0  0  0  0  0
   -2.5964   -3.2301    2.4022 H   0  0  0  0  0  0  0  0  0  0  0  0
   -1.0412    0.1517    0.7482 N   0  0  0  0  0  0  0  0  0  0  0  0
   -0.6079    1.5223    0.6467 C   0  0  2  0  0  0  0  0  0  0  0  0
   -1.6711    2.4072    1.2962 C   0  0  0  0  0  0  0  0  0  0  0  0
   -2.0992    3.4324    0.7698 O   0  0  0  0  0  0  0  0  0  0  0  0
   -0.2889    1.9494   -0.8063 C   0  0  2  0  0  0  0  0  0  0  0  0
    0.8852    1.1454   -1.4075 C   0  0  0  0  0  0  0  0  0  0  0  0
   -0.0303    3.4607   -0.8681 C   0  0  0  0  0  0  0  0  0  0  0  0
    1.0542    1.3478   -2.9079 C   0  0  0  0  0  0  0  0  0  0  0  0
   -1.9022   -0.1128    0.2753 H   0  0  0  0  0  0  0  0  0  0  0  0
    0.2985    1.5966    1.2610 H   0  0  0  0  0  0  0  0  0  0  0  0
   -1.1776    1.7509   -1.4202 H   0  0  0  0  0  0  0  0  0  0  0  0
    1.8219    1.4463   -0.9244 H   0  0  0  0  0  0  0  0  0  0  0  0
    0.7562    0.0746   -1.2100 H   0  0  0  0  0  0  0  0  0  0  0  0
    0.8489    3.7298   -0.2728 H   0  0  0  0  0  0  0  0  0  0  0  0
    0.1655    3.7875   -1.8939 H   0  0  0  0  0  0  0  0  0  0  0  0
   -0.8850    4.0303   -0.4888 H   0  0  0  0  0  0  0  0  0  0  0  0
    0.1513    1.0655   -3.4568 H   0  0  0  0  0  0  0  0  0  0  0  0
    1.8734    0.7235   -3.2797 H   0  0  0  0  0  0  0  0  0  0  0  0
    1.2920    2.3906   -3.1400 H   0  0  0  0  0  0  0  0  0  0  0  0
   -2.1047    1.8982    2.5121 N   0  0  0  0  0  0  0  0  0  0  0  0
   -3.1204    2.5332    3.3206 C   0  0  2  0  0  0  0  0  0  0  0  0
   -3.7993    1.4552    4.1551 C   0  0  0  0  0  0  0  0  0  0  0  0
   -3.7960    0.2656    3.8453 O   0  0  0  0  0  0  0  0  0  0  0  0
   -4.1327    3.2712    2.4584 C   0  0  0  0  0  0  0  0  0  0  0  0
   -1.6875    1.0362    2.8507 H   0  0  0  0  0  0  0  0  0  0  0  0
   -2.6037    3.2368    3.9824 H   0  0  0  0  0  0  0  0  0  0  0  0
   -4.6605    2.5825    1.7886 H   0  0  0  0  0  0  0  0  0  0  0  0
   -4.8851    3.7755    3.0737 H   0  0  0  0  0  0  0  0  0  0  0  0
   -3.6387    4.0259    1.8370 H   0  0  0  0  0  0  0  0  0  0  0  0
   -4.4460    1.9833    5.2637 N   0  0  0  0  0  0  0  0  0  0  0  0
   -5.1744    1.1649    6.2048 C   0  0  0  0  0  0  0  0  0  0  0  0
   -4.3803    2.9791    5.4532 H   0  0  0  0  0  0  0  0  0  0  0  0
   -6.2323    1.1165    5.9074 H   0  0  0  0  0  0  0  0  0  0  0  0
   -4.7495    0.1503    6.2138 H   0  0  0  0  0  0  0  0  0  0  0  0
   -5.0960    1.6042    7.2102 H   0  0  0  0  0  0  0  0  0  0  0  0
  1  3  1  0  0  0  0
  1  7  1  0  0  0  0
  1  2  2  0  0  0  0
 37 38  1  0  0  0  0
 38 46  1  0  0  0  0
 38 39  2  0  0  0  0
  8  9  1  0  0  0  0
  9 17  1  0  0  0  0
  9 10  2  0  0  0  0
 18 19  1  0  0  0  0
 19 36  1  0  0  0  0
 19 20  2  0  0  0  0
 22 24  1  0  0  0  0
 37 40  1  0  0  0  0
  8 11  1  0  0  0  0
 21 23  1  0  0  0  0
 46 47  1  0  0  0  0
 21 22  1  0  0  0  0
 36 37  1  0  0  0  0
  7  8  1  0  0  0  0
 18 21  1  0  0  0  0
 17 18  1  0  0  0  0
  3  4  1  0  0  0  0
  3  5  1  0  0  0  0
  3  6  1  0  0  0  0
 24 33  1  0  0  0  0
 24 34  1  0  0  0  0
 24 35  1  0  0  0  0
 40 43  1  0  0  0  0
 40 44  1  0  0  0  0
 40 45  1  0  0  0  0
 11 14  1  0  0  0  0
 11 15  1  0  0  0  0
 11 16  1  0  0  0  0
 23 30  1  0  0  0  0
 23 31  1  0  0  0  0
 23 32  1  0  0  0  0
 47 49  1  0  0  0  0
 47 50  1  0  0  0  0
 47 51  1  0  0  0  0
 22 28  1  0  0  0  0
 22 29  1  0  0  0  0
 37 42  1  0  0  0  0
  8 13  1  0  0  0  0
 18 26  1  0  0  0  0
 21 27  1  0  0  0  0
 46 48  1  0  0  0  0
  7 12  1  0  0  0  0
 36 41  1  0  0  0  0
 17 25  1  0  0  0  0
M  END
$$$$

  -OEChem-05262214473D

 51 50  0     1  0  0  0  0  0999 V2000
    1.3524   -3.0009    1.4091 C   0  0  0  0  0  0  0  0  0  0  0  0
    1.8758   -1.9880    0.9598 O   0  0  0  0  0  0  0  0  0  0  0  0
    2.2030   -4.1782    1.7536 C   0  0  0  0  0  0  0  0  0  0  0  0
    2.3264   -4.8705    0.9053 H   0  0  0  0  0  0  0  0  0  0  0  0
    3.2257   -3.8876    2.0432 H   0  0  0  0  0  0  0  0  0  0  0  0
    1.8327   -4.8004    2.5839 H   0  0  0  0  0  0  0  0  0  0  0  0
    0.0005   -3.1873    1.6465 N   0  0  0  0  0  0  0  0  0  0  0  0
   -0.9949   -2.1807    1.3864 C   0  0  2  0  0  0  0  0  0  0  0  0
   -0.3083   -0.8216    1.4164 C   0  0  0  0  0  0  0  0  0  0  0  0
    0.7533   -0.6191    2.0022 O   0  0  0  0  0  0  0  0  0  0  0  0
   -2.1232   -2.2423    2.4042 C   0  0  0  0  0  0  0  0  0  0  0  0
   -0.3048   -4.0823    2.0245 H   0  0  0  0  0  0  0  0  0  0  0  0
   -1.3830   -2.3724    0.3801 H   0  0  0  0  0  0  0  0  0  0  0  0
   -1.7534   -2.0527    3.4185 H   0  0  0  0  0  0  0  0  0  0  0  0
   -2.8936   -1.4947    2.1882 H   0  0  0  0  0  0  0  0  0  0  0  0
   -2.5964   -3.2301    2.4022 H   0  0  0  0  0  0  0  0  0  0  0  0
   -1.0412    0.1517    0.7482 N   0  0  0  0  0  0  0  0  0  0  0  0
   -0.6079    1.5223    0.6467 C   0  0  2  0  0  0  0  0  0  0  0  0
   -1.6711    2.4072    1.2962 C   0  0  0  0  0  0  0  0  0  0  0  0
   -2.2921    3.2687    0.6770 O   0  0  0  0  0  0  0  0  0  0  0  0
   -0.2889    1.9494   -0.8063 C   0  0  2  0  0  0  0  0  0  0  0  0
    0.8852    1.1454   -1.4075 C   0  0  0  0  0  0  0  0  0  0  0  0
   -0.0303    3.4607   -0.8681 C   0  0  0  0  0  0  0  0  0  0  0  0
    1.0542    1.3478   -2.9079 C   0  0  0  0  0  0  0  0  0  0  0  0
   -1.9022   -0.1128    0.2753 H   0  0  0  0  0  0  0  0  0  0  0  0
    0.2985    1.5966    1.2610 H   0  0  0  0  0  0  0  0  0  0  0  0
   -1.1776    1.7509   -1.4202 H   0  0  0  0  0  0  0  0  0  0  0  0
    1.8219    1.4463   -0.9244 H   0  0  0  0  0  0  0  0  0  0  0  0
    0.7562    0.0746   -1.2100 H   0  0  0  0  0  0  0  0  0  0  0  0
    0.8489    3.7298   -0.2728 H   0  0  0  0  0  0  0  0  0  0  0  0
    0.1655    3.7875   -1.8939 H   0  0  0  0  0  0  0  0  0  0  0  0
   -0.8850    4.0303   -0.4888 H   0  0  0  0  0  0  0  0  0  0  0  0
    0.1513    1.0655   -3.4568 H   0  0  0  0  0  0  0  0  0  0  0  0
    1.8734    0.7235   -3.2797 H   0  0  0  0  0  0  0  0  0  0  0  0
    1.2920    2.3906   -3.1400 H   0  0  0  0  0  0  0  0  0  0  0  0
   -1.8642    2.0971    2.6349 N   0  0  0  0  0  0  0  0  0  0  0  0
   -2.8275    2.7723    3.4743 C   0  0  2  0  0  0  0  0  0  0  0  0
   -3.2444    1.8106    4.5792 C   0  0  0  0  0  0  0  0  0  0  0  0
   -3.1374    0.5899    4.4817 O   0  0  0  0  0  0  0  0  0  0  0  0
   -4.0338    3.2336    2.6714 C   0  0  0  0  0  0  0  0  0  0  0  0
   -1.3003    1.3586    3.0453 H   0  0  0  0  0  0  0  0  0  0  0  0
   -2.3144    3.6345    3.9141 H   0  0  0  0  0  0  0  0  0  0  0  0
   -4.5608    2.3835    2.2229 H   0  0  0  0  0  0  0  0  0  0  0  0
   -4.7495    3.7700    3.3032 H   0  0  0  0  0  0  0  0  0  0  0  0
   -3.7288    3.9017    1.8587 H   0  0  0  0  0  0  0  0  0  0  0  0
   -3.7901    2.4734    5.6696 N   0  0  0  0  0  0  0  0  0  0  0  0
   -4.2729    1.7807    6.8414 C   0  0  0  0  0  0  0  0  0  0  0  0
   -3.8223    3.4887    5.6723 H   0  0  0  0  0  0  0  0  0  0  0  0
   -5.3478    1.5756    6.7298 H   0  0  0  0  0  0  0  0  0  0  0  0
   -3.7286    0.8318    6.9564 H   0  0  0  0  0  0  0  0  0  0  0  0
   -4.1097    2.4072    7.7307 H   0  0  0  0  0  0  0  0  0  0  0  0
  1  3  1  0  0  0  0
  1  7  1  0  0  0  0
  1  2  2  0  0  0  0
 37 38  1  0  0  0  0
 38 46  1  0  0  0  0
 38 39  2  0  0  0  0
  8  9  1  0  0  0  0
  9 17  1  0  0  0  0
  9 10  2  0  0  0  0
 18 19  1  0  0  0  0
 19 36  1  0  0  0  0
 19 20  2  0  0  0  0
 22 24  1  0  0  0  0
 37 40  1  0  0  0  0
  8 11  1  0  0  0  0
 21 23  1  0  0  0  0
 46 47  1  0  0  0  0
 21 22  1  0  0  0  0
 36 37  1  0  0  0  0
  7  8  1  0  0  0  0
 18 21  1  0  0  0  0
 17 18  1  0  0  0  0
  3  4  1  0  0  0  0
  3  5  1  0  0  0  0
  3  6  1  0  0  0  0
 24 33  1  0  0  0  0
 24 34  1  0  0  0  0
 24 35  1  0  0  0  0
 40 43  1  0  0  0  0
 40 44  1  0  0  0  0
 40 45  1  0  0  0  0
 11 14  1  0  0  0  0
 11 15  1  0  0  0  0
 11 16  1  0  0  0  0
 23 30  1  0  0  0  0
 23 31  1  0  0  0  0
 23 32  1  0  0  0  0
 47 49  1  0  0  0  0
 47 50  1  0  0  0  0
 47 51  1  0  0  0  0
 22 28  1  0  0  0  0
 22 29  1  0  0  0  0
 37 42  1  0  0  0  0
  8 13  1  0  0  0  0
 18 26  1  0  0  0  0
 21 27  1  0  0  0  0
 46 48  1  0  0  0  0
  7 12  1  0  0  0  0
 36 41  1  0  0  0  0
 17 25  1  0  0  0  0
M  END
$$$$

  -OEChem-05262214473D

 51 50  0     1  0  0  0  0  0999 V2000
    1.3524   -3.0009    1.4091 C   0  0  0  0  0  0  0  0  0  0  0  0
    1.8758   -1.9880    0.9598 O   0  0  0  0  0  0  0  0  0  0  0  0
    2.2030   -4.1782    1.7536 C   0  0  0  0  0  0  0  0  0  0  0  0
    2.3264   -4.8705    0.9053 H   0  0  0  0  0  0  0  0  0  0  0  0
    3.2257   -3.8876    2.0432 H   0  0  0  0  0  0  0  0  0  0  0  0
    1.8327   -4.8004    2.5839 H   0  0  0  0  0  0  0  0  0  0  0  0
    0.0005   -3.1873    1.6465 N   0  0  0  0  0  0  0  0  0  0  0  0
   -0.9949   -2.1807    1.3864 C   0  0  2  0  0  0  0  0  0  0  0  0
   -0.3083   -0.8216    1.4164 C   0  0  0  0  0  0  0  0  0  0  0  0
    0.7533   -0.6191    2.0022 O   0  0  0  0  0  0  0  0  0  0  0  0
   -2.1232   -2.2423    2.4042 C   0  0  0  0  0  0  0  0  0  0  0  0
   -0.3048   -4.0823    2.0245 H   0  0  0  0  0  0  0  0  0  0  0  0
   -1.3830   -2.3724    0.3801 H   0  0  0  0  0  0  0  0  0  0  0  0
   -1.7534   -2.0527    3.4185 H   0  0  0  0  0  0  0  0  0  0  0  0
   -2.8936   -1.4947    2.1882 H   0  0  0  0  0  0  0  0  0  0  0  0
   -2.5964   -3.2301    2.4022 H   0  0  0  0  0  0  0  0  0  0  0  0
   -1.0412    0.1517    0.7482 N   0  0  0  0  0  0  0  0  0  0  0  0
   -0.6079    1.5223    0.6467 C   0  0  2  0  0  0  0  0  0  0  0  0
   -1.6711    2.4072    1.2962 C   0  0  0  0  0  0  0  0  0  0  0  0
   -2.4744    3.0727    0.6457 O   0  0  0  0  0  0  0  0  0  0  0  0
   -0.2889    1.9494   -0.8063 C   0  0  2  0  0  0  0  0  0  0  0  0
    0.8852    1.1454   -1.4075 C   0  0  0  0  0  0  0  0  0  0  0  0
   -0.0303    3.4607   -0.8681 C   0  0  0  0  0  0  0  0  0  0  0  0
    1.0542    1.3478   -2.9079 C   0  0  0  0  0  0  0  0  0  0  0  0
   -1.9022   -0.1128    0.2753 H   0  0  0  0  0  0  0  0  0  0  0  0
    0.2985    1.5966    1.2610 H   0  0  0  0  0  0  0  0  0  0  0  0
   -1.1776    1.7509   -1.4202 H   0  0  0  0  0  0  0  0  0  0  0  0
    1.8219    1.4463   -0.9244 H   0  0  0  0  0  0  0  0  0  0  0  0
    0.7562    0.0746   -1.2100 H   0  0  0  0  0  0  0  0  0  0  0  0
    0.8489    3.7298   -0.2728 H   0  0  0  0  0  0  0  0  0  0  0  0
    0.1655    3.7875   -1.8939 H   0  0  0  0  0  0  0  0  0  0  0  0
   -0.8850    4.0303   -0.4888 H   0  0  0  0  0  0  0  0  0  0  0  0
    0.1513    1.0655   -3.4568 H   0  0  0  0  0  0  0  0  0  0  0  0
    1.8734    0.7235   -3.2797 H   0  0  0  0  0  0  0  0  0  0  0  0
    1.2920    2.3906   -3.1400 H   0  0  0  0  0  0  0  0  0  0  0  0
   -1.6352    2.3378    2.6817 N   0  0  0  0  0  0  0  0  0  0  0  0
   -2.5479    3.0632    3.5358 C   0  0  2  0  0  0  0  0  0  0  0  0
   -2.6840    2.2913    4.8416 C   0  0  0  0  0  0  0  0  0  0  0  0
   -2.4414    1.0902    4.9393 O   0  0  0  0  0  0  0  0  0  0  0  0
   -3.9023    3.2466    2.8690 C   0  0  0  0  0  0  0  0  0  0  0  0
   -0.9326    1.7477    3.1172 H   0  0  0  0  0  0  0  0  0  0  0  0
   -2.0890    4.0381    3.7333 H   0  0  0  0  0  0  0  0  0  0  0  0
   -4.3775    2.2805    2.6634 H   0  0  0  0  0  0  0  0  0  0  0  0
   -4.5834    3.8210    3.5056 H   0  0  0  0  0  0  0  0  0  0  0  0
   -3.7989    3.7758    1.9156 H   0  0  0  0  0  0  0  0  0  0  0  0
   -3.1497    3.0921    5.8751 N   0  0  0  0  0  0  0  0  0  0  0  0
   -3.3744    2.5894    7.2103 C   0  0  0  0  0  0  0  0  0  0  0  0
   -3.3065    4.0818    5.7086 H   0  0  0  0  0  0  0  0  0  0  0  0
   -4.4207    2.2644    7.3090 H   0  0  0  0  0  0  0  0  0  0  0  0
   -2.7062    1.7360    7.3980 H   0  0  0  0  0  0  0  0  0  0  0  0
   -3.1673    3.3850    7.9411 H   0  0  0  0  0  0  0  0  0  0  0  0
  1  3  1  0  0  0  0
  1  7  1  0  0  0  0
  1  2  2  0  0  0  0
 37 38  1  0  0  0  0
 38 46  1  0  0  0  0
 38 39  2  0  0  0  0
  8  9  1  0  0  0  0
  9 17  1  0  0  0  0
  9 10  2  0  0  0  0
 18 19  1  0  0  0  0
 19 36  1  0  0  0  0
 19 20  2  0  0  0  0
 22 24  1  0  0  0  0
 37 40  1  0  0  0  0
  8 11  1  0  0  0  0
 21 23  1  0  0  0  0
 46 47  1  0  0  0  0
 21 22  1  0  0  0  0
 36 37  1  0  0  0  0
  7  8  1  0  0  0  0
 18 21  1  0  0  0  0
 17 18  1  0  0  0  0
  3  4  1  0  0  0  0
  3  5  1  0  0  0  0
  3  6  1  0  0  0  0
 24 33  1  0  0  0  0
 24 34  1  0  0  0  0
 24 35  1  0  0  0  0
 40 43  1  0  0  0  0
 40 44  1  0  0  0  0
 40 45  1  0  0  0  0
 11 14  1  0  0  0  0
 11 15  1  0  0  0  0
 11 16  1  0  0  0  0
 23 30  1  0  0  0  0
 23 31  1  0  0  0  0
 23 32  1  0  0  0  0
 47 49  1  0  0  0  0
 47 50  1  0  0  0  0
 47 51  1  0  0  0  0
 22 28  1  0  0  0  0
 22 29  1  0  0  0  0
 37 42  1  0  0  0  0
  8 13  1  0  0  0  0
 18 26  1  0  0  0  0
 21 27  1  0  0  0  0
 46 48  1  0  0  0  0
  7 12  1  0  0  0  0
 36 41  1  0  0  0  0
 17 25  1  0  0  0  0
M  END
$$$$

  -OEChem-05262214473D

 51 50  0     1  0  0  0  0  0999 V2000
    1.3524   -3.0009    1.4091 C   0  0  0  0  0  0  0  0  0  0  0  0
    1.8758   -1.9880    0.9598 O   0  0  0  0  0  0  0  0  0  0  0  0
    2.2030   -4.1782    1.7536 C   0  0  0  0  0  0  0  0  0  0  0  0
    2.3264   -4.8705    0.9053 H   0  0  0  0  0  0  0  0  0  0  0  0
    3.2257   -3.8876    2.0432 H   0  0  0  0  0  0  0  0  0  0  0  0
    1.8327   -4.8004    2.5839 H   0  0  0  0  0  0  0  0  0  0  0  0
    0.0005   -3.1873    1.6465 N   0  0  0  0  0  0  0  0  0  0  0  0
   -0.9949   -2.1807    1.3864 C   0  0  2  0  0  0  0  0  0  0  0  0
   -0.3083   -0.8216    1.4164 C   0  0  0  0  0  0  0  0  0  0  0  0
    0.7533   -0.6191    2.0022 O   0  0  0  0  0  0  0  0  0  0  0  0
   -2.1232   -2.2423    2.4042 C   0  0  0  0  0  0  0  0  0  0  0  0
   -0.3048   -4.0823    2.0245 H   0  0  0  0  0  0  0  0  0  0  0  0
   -1.3830   -2.3724    0.3801 H   0  0  0  0  0  0  0  0  0  0  0  0
   -1.7534   -2.0527    3.4185 H   0  0  0  0  0  0  0  0  0  0  0  0
   -2.8936   -1.4947    2.1882 H   0  0  0  0  0  0  0  0  0  0  0  0
   -2.5964   -3.2301    2.4022 H   0  0  0  0  0  0  0  0  0  0  0  0
   -1.0412    0.1517    0.7482 N   0  0  0  0  0  0  0  0  0  0  0  0
   -0.6079    1.5223    0.6467 C   0  0  2  0  0  0  0  0  0  0  0  0
   -1.6711    2.4072    1.2962 C   0  0  0  0  0  0  0  0  0  0  0  0
   -2.6335    2.8577    0.6781 O   0  0  0  0  0  0  0  0  0  0  0  0
   -0.2889    1.9494   -0.8063 C   0  0  2  0  0  0  0  0  0  0  0  0
    0.8852    1.1454   -1.4075 C   0  0  0  0  0  0  0  0  0  0  0  0
   -0.0303    3.4607   -0.8681 C   0  0  0  0  0  0  0  0  0  0  0  0
    1.0542    1.3478   -2.9079 C   0  0  0  0  0  0  0  0  0  0  0  0
   -1.9022   -0.1128    0.2753 H   0  0  0  0  0  0  0  0  0  0  0  0
    0.2985    1.5966    1.2610 H   0  0  0  0  0  0  0  0  0  0  0  0
   -1.1776    1.7509   -1.4202 H   0  0  0  0  0  0  0  0  0  0  0  0
    1.8219    1.4463   -0.9244 H   0  0  0  0  0  0  0  0  0  0  0  0
    0.7562    0.0746   -1.2100 H   0  0  0  0  0  0  0  0  0  0  0  0
    0.8489    3.7298   -0.2728 H   0  0  0  0  0  0  0  0  0  0  0  0
    0.1655    3.7875   -1.8939 H   0  0  0  0  0  0  0  0  0  0  0  0
   -0.8850    4.0303   -0.4888 H   0  0  0  0  0  0  0  0  0  0  0  0
    0.1513    1.0655   -3.4568 H   0  0  0  0  0  0  0  0  0  0  0  0
    1.8734    0.7235   -3.2797 H   0  0  0  0  0  0  0  0  0  0  0  0
    1.2920    2.3906   -3.1400 H   0  0  0  0  0  0  0  0  0  0  0  0
   -1.4336    2.6039    2.6492 N   0  0  0  0  0  0  0  0  0  0  0  0
   -2.3005    3.3859    3.5009 C   0  0  2  0  0  0  0  0  0  0  0  0
   -2.1562    2.8645    4.9245 C   0  0  0  0  0  0  0  0  0  0  0  0
   -1.7556    1.7324    5.1869 O   0  0  0  0  0  0  0  0  0  0  0  0
   -3.7471    3.3091    3.0379 C   0  0  0  0  0  0  0  0  0  0  0  0
   -0.6094    2.1769    3.0615 H   0  0  0  0  0  0  0  0  0  0  0  0
   -1.9427    4.4202    3.4521 H   0  0  0  0  0  0  0  0  0  0  0  0
   -4.1231    2.2804    3.0798 H   0  0  0  0  0  0  0  0  0  0  0  0
   -4.3983    3.9249    3.6670 H   0  0  0  0  0  0  0  0  0  0  0  0
   -3.8442    3.6566    2.0037 H   0  0  0  0  0  0  0  0  0  0  0  0
   -2.5683    3.7971    5.8662 N   0  0  0  0  0  0  0  0  0  0  0  0
   -2.5403    3.5358    7.2863 C   0  0  0  0  0  0  0  0  0  0  0  0
   -2.8681    4.7179    5.5595 H   0  0  0  0  0  0  0  0  0  0  0  0
   -3.5141    3.1360    7.6054 H   0  0  0  0  0  0  0  0  0  0  0  0
   -1.7520    2.8014    7.5084 H   0  0  0  0  0  0  0  0  0  0  0  0
   -2.3330    4.4710    7.8271 H   0  0  0  0  0  0  0  0  0  0  0  0
  1  3  1  0  0  0  0
  1  7  1  0  0  0  0
  1  2  2  0  0  0  0
 37 38  1  0  0  0  0
 38 46  1  0  0  0  0
 38 39  2  0  0  0  0
  8  9  1  0  0  0  0
  9 17  1  0  0  0  0
  9 10  2  0  0  0  0
 18 19  1  0  0  0  0
 19 36  1  0  0  0  0
 19 20  2  0  0  0  0
 22 24  1  0  0  0  0
 37 40  1  0  0  0  0
  8 11  1  0  0  0  0
 21 23  1  0  0  0  0
 46 47  1  0  0  0  0
 21 22  1  0  0  0  0
 36 37  1  0  0  0  0
  7  8  1  0  0  0  0
 18 21  1  0  0  0  0
 17 18  1  0  0  0  0
  3  4  1  0  0  0  0
  3  5  1  0  0  0  0
  3  6  1  0  0  0  0
 24 33  1  0  0  0  0
 24 34  1  0  0  0  0
 24 35  1  0  0  0  0
 40 43  1  0  0  0  0
 40 44  1  0  0  0  0
 40 45  1  0  0  0  0
 11 14  1  0  0  0  0
 11 15  1  0  0  0  0
 11 16  1  0  0  0  0
 23 30  1  0  0  0  0
 23 31  1  0  0  0  0
 23 32  1  0  0  0  0
 47 49  1  0  0  0  0
 47 50  1  0  0  0  0
 47 51  1  0  0  0  0
 22 28  1  0  0  0  0
 22 29  1  0  0  0  0
 37 42  1  0  0  0  0
  8 13  1  0  0  0  0
 18 26  1  0  0  0  0
 21 27  1  0  0  0  0
 46 48  1  0  0  0  0
  7 12  1  0  0  0  0
 36 41  1  0  0  0  0
 17 25  1  0  0  0  0
M  END
$$$$

  -OEChem-05262214473D

 51 50  0     1  0  0  0  0  0999 V2000
    1.3524   -3.0009    1.4091 C   0  0  0  0  0  0  0  0  0  0  0  0
    1.8758   -1.9880    0.9598 O   0  0  0  0  0  0  0  0  0  0  0  0
    2.2030   -4.1782    1.7536 C   0  0  0  0  0  0  0  0  0  0  0  0
    2.3264   -4.8705    0.9053 H   0  0  0  0  0  0  0  0  0  0  0  0
    3.2257   -3.8876    2.0432 H   0  0  0  0  0  0  0  0  0  0  0  0
    1.8327   -4.8004    2.5839 H   0  0  0  0  0  0  0  0  0  0  0  0
    0.0005   -3.1873    1.6465 N   0  0  0  0  0  0  0  0  0  0  0  0
   -0.9949   -2.1807    1.3864 C   0  0  2  0  0  0  0  0  0  0  0  0
   -0.3083   -0.8216    1.4164 C   0  0  0  0  0  0  0  0  0  0  0  0
    0.7533   -0.6191    2.0022 O   0  0  0  0  0  0  0  0  0  0  0  0
   -2.1232   -2.2423    2.4042 C   0  0  0  0  0  0  0  0  0  0  0  0
   -0.3048   -4.0823    2.0245 H   0  0  0  0  0  0  0  0  0  0  0  0
   -1.3830   -2.3724    0.3801 H   0  0  0  0  0  0  0  0  0  0  0  0
   -1.7534   -2.0527    3.4185 H   0  0  0  0  0  0  0  0  0  0  0  0
   -2.8936   -1.4947    2.1882 H   0  0  0  0  0  0  0  0  0  0  0  0
   -2.5964   -3.2301    2.4022 H   0  0  0  0  0  0  0  0  0  0  0  0
   -1.0412    0.1517    0.7482 N   0  0  0  0  0  0  0  0  0  0  0  0
   -0.6079    1.5223    0.6467 C   0  0  2  0  0  0  0  0  0  0  0  0
   -1.6711    2.4072    1.2962 C   0  0  0  0  0  0  0  0  0  0  0  0
   -2.7588    2.6384    0.7719 O   0  0  0  0  0  0  0  0  0  0  0  0
   -0.2889    1.9494   -0.8063 C   0  0  2  0  0  0  0  0  0  0  0  0
    0.8852    1.1454   -1.4075 C   0  0  0  0  0  0  0  0  0  0  0  0
   -0.0303    3.4607   -0.8681 C   0  0  0  0  0  0  0  0  0  0  0  0
    1.0542    1.3478   -2.9079 C   0  0  0  0  0  0  0  0  0  0  0  0
   -1.9022   -0.1128    0.2753 H   0  0  0  0  0  0  0  0  0  0  0  0
    0.2985    1.5966    1.2610 H   0  0  0  0  0  0  0  0  0  0  0  0
   -1.1776    1.7509   -1.4202 H   0  0  0  0  0  0  0  0  0  0  0  0
    1.8219    1.4463   -0.9244 H   0  0  0  0  0  0  0  0  0  0  0  0
    0.7562    0.0746   -1.2100 H   0  0  0  0  0  0  0  0  0  0  0  0
    0.8489    3.7298   -0.2728 H   0  0  0  0  0  0  0  0  0  0  0  0
    0.1655    3.7875   -1.8939 H   0  0  0  0  0  0  0  0  0  0  0  0
   -0.8850    4.0303   -0.4888 H   0  0  0  0  0  0  0  0  0  0  0  0
    0.1513    1.0655   -3.4568 H   0  0  0  0  0  0  0  0  0  0  0  0
    1.8734    0.7235   -3.2797 H   0  0  0  0  0  0  0  0  0  0  0  0
    1.2920    2.3906   -3.1400 H   0  0  0  0  0  0  0  0  0  0  0  0
   -1.2730    2.8773    2.5397 N   0  0  0  0  0  0  0  0  0  0  0  0
   -2.1024    3.7186    3.3720 C   0  0  2  0  0  0  0  0  0  0  0  0
   -1.6971    3.4912    4.8223 C   0  0  0  0  0  0  0  0  0  0  0  0
   -1.1267    2.4727    5.2076 O   0  0  0  0  0  0  0  0  0  0  0  0
   -3.5787    3.4171    3.1665 C   0  0  0  0  0  0  0  0  0  0  0  0
   -0.3528    2.6170    2.8819 H   0  0  0  0  0  0  0  0  0  0  0  0
   -1.8856    4.7547    3.0898 H   0  0  0  0  0  0  0  0  0  0  0  0
   -3.8149    2.3833    3.4440 H   0  0  0  0  0  0  0  0  0  0  0  0
   -4.2067    4.0748    3.7765 H   0  0  0  0  0  0  0  0  0  0  0  0
   -3.8617    3.5524    2.1170 H   0  0  0  0  0  0  0  0  0  0  0  0
   -2.0856    4.5405    5.6435 N   0  0  0  0  0  0  0  0  0  0  0  0
   -1.8272    4.5554    7.0644 C   0  0  0  0  0  0  0  0  0  0  0  0
   -2.5370    5.3537    5.2352 H   0  0  0  0  0  0  0  0  0  0  0  0
   -2.6898    4.1310    7.5990 H   0  0  0  0  0  0  0  0  0  0  0  0
   -0.9309    3.9554    7.2802 H   0  0  0  0  0  0  0  0  0  0  0  0
   -1.6637    5.5913    7.3963 H   0  0  0  0  0  0  0  0  0  0  0  0
  1  3  1  0  0  0  0
  1  7  1  0  0  0  0
  1  2  2  0  0  0  0
 37 38  1  0  0  0  0
 38 46  1  0  0  0  0
 38 39  2  0  0  0  0
  8  9  1  0  0  0  0
  9 17  1  0  0  0  0
  9 10  2  0  0  0  0
 18 19  1  0  0  0  0
 19 36  1  0  0  0  0
 19 20  2  0  0  0  0
 22 24  1  0  0  0  0
 37 40  1  0  0  0  0
  8 11  1  0  0  0  0
 21 23  1  0  0  0  0
 46 47  1  0  0  0  0
 21 22  1  0  0  0  0
 36 37  1  0  0  0  0
  7  8  1  0  0  0  0
 18 21  1  0  0  0  0
 17 18  1  0  0  0  0
  3  4  1  0  0  0  0
  3  5  1  0  0  0  0
  3  6  1  0  0  0  0
 24 33  1  0  0  0  0
 24 34  1  0  0  0  0
 24 35  1  0  0  0  0
 40 43  1  0  0  0  0
 40 44  1  0  0  0  0
 40 45  1  0  0  0  0
 11 14  1  0  0  0  0
 11 15  1  0  0  0  0
 11 16  1  0  0  0  0
 23 30  1  0  0  0  0
 23 31  1  0  0  0  0
 23 32  1  0  0  0  0
 47 49  1  0  0  0  0
 47 50  1  0  0  0  0
 47 51  1  0  0  0  0
 22 28  1  0  0  0  0
 22 29  1  0  0  0  0
 37 42  1  0  0  0  0
  8 13  1  0  0  0  0
 18 26  1  0  0  0  0
 21 27  1  0  0  0  0
 46 48  1  0  0  0  0
  7 12  1  0  0  0  0
 36 41  1  0  0  0  0
 17 25  1  0  0  0  0
M  END
$$$$

  -OEChem-05262214473D

 51 50  0     1  0  0  0  0  0999 V2000
    1.3524   -3.0009    1.4091 C   0  0  0  0  0  0  0  0  0  0  0  0
    1.8758   -1.9880    0.9598 O   0  0  0  0  0  0  0  0  0  0  0  0
    2.2030   -4.1782    1.7536 C   0  0  0  0  0  0  0  0  0  0  0  0
    2.3264   -4.8705    0.9053 H   0  0  0  0  0  0  0  0  0  0  0  0
    3.2257   -3.8876    2.0432 H   0  0  0  0  0  0  0  0  0  0  0  0
    1.8327   -4.8004    2.5839 H   0  0  0  0  0  0  0  0  0  0  0  0
    0.0005   -3.1873    1.6465 N   0  0  0  0  0  0  0  0  0  0  0  0
   -0.9949   -2.1807    1.3864 C   0  0  2  0  0  0  0  0  0  0  0  0
   -0.3083   -0.8216    1.4164 C   0  0  0  0  0  0  0  0  0  0  0  0
    0.7533   -0.6191    2.0022 O   0  0  0  0  0  0  0  0  0  0  0  0
   -2.1232   -2.2423    2.4042 C   0  0  0  0  0  0  0  0  0  0  0  0
   -0.3048   -4.0823    2.0245 H   0  0  0  0  0  0  0  0  0  0  0  0
   -1.3830   -2.3724    0.3801 H   0  0  0  0  0  0  0  0  0  0  0  0
   -1.7534   -2.0527    3.4185 H   0  0  0  0  0  0  0  0  0  0  0  0
   -2.8936   -1.4947    2.1882 H   0  0  0  0  0  0  0  0  0  0  0  0
   -2.5964   -3.2301    2.4022 H   0  0  0  0  0  0  0  0  0  0  0  0
   -1.0412    0.1517    0.7482 N   0  0  0  0  0  0  0  0  0  0  0  0
   -0.6079    1.5223    0.6467 C   0  0  2  0  0  0  0  0  0  0  0  0
   -1.6711    2.4072    1.2962 C   0  0  0  0  0  0  0  0  0  0  0  0
   -2.8416    2.4296    0.9209 O   0  0  0  0  0  0  0  0  0  0  0  0
   -0.2889    1.9494   -0.8063 C   0  0  2  0  0  0  0  0  0  0  0  0
    0.8852    1.1454   -1.4075 C   0  0  0  0  0  0  0  0  0  0  0  0
   -0.0303    3.4607   -0.8681 C   0  0  0  0  0  0  0  0  0  0  0  0
    1.0542    1.3478   -2.9079 C   0  0  0  0  0  0  0  0  0  0  0  0
   -1.9022   -0.1128    0.2753 H   0  0  0  0  0  0  0  0  0  0  0  0
    0.2985    1.5966    1.2610 H   0  0  0  0  0  0  0  0  0  0  0  0
   -1.1776    1.7509   -1.4202 H   0  0  0  0  0  0  0  0  0  0  0  0
    1.8219    1.4463   -0.9244 H   0  0  0  0  0  0  0  0  0  0  0  0
    0.7562    0.0746   -1.2100 H   0  0  0  0  0  0  0  0  0  0  0  0
    0.8489    3.7298   -0.2728 H   0  0  0  0  0  0  0  0  0  0  0  0
    0.1655    3.7875   -1.8939 H   0  0  0  0  0  0  0  0  0  0  0  0
   -0.8850    4.0303   -0.4888 H   0  0  0  0  0  0  0  0  0  0  0  0
    0.1513    1.0655   -3.4568 H   0  0  0  0  0  0  0  0  0  0  0  0
    1.8734    0.7235   -3.2797 H   0  0  0  0  0  0  0  0  0  0  0  0
    1.2920    2.3906   -3.1400 H   0  0  0  0  0  0  0  0  0  0  0  0
   -1.1643    3.1393    2.3606 N   0  0  0  0  0  0  0  0  0  0  0  0
   -1.9669    4.0386    3.1579 C   0  0  2  0  0  0  0  0  0  0  0  0
   -1.3378    4.1287    4.5419 C   0  0  0  0  0  0  0  0  0  0  0  0
   -0.5976    3.2608    5.0001 O   0  0  0  0  0  0  0  0  0  0  0  0
   -3.4087    3.5630    3.2460 C   0  0  0  0  0  0  0  0  0  0  0  0
   -0.1802    3.0380    2.5908 H   0  0  0  0  0  0  0  0  0  0  0  0
   -1.9216    5.0189    2.6710 H   0  0  0  0  0  0  0  0  0  0  0  0
   -3.4740    2.5822    3.7311 H   0  0  0  0  0  0  0  0  0  0  0  0
   -4.0217    4.2603    3.8265 H   0  0  0  0  0  0  0  0  0  0  0  0
   -3.8502    3.4702    2.2479 H   0  0  0  0  0  0  0  0  0  0  0  0
   -1.7346    5.2715    5.2222 N   0  0  0  0  0  0  0  0  0  0  0  0
   -1.2839    5.5787    6.5595 C   0  0  0  0  0  0  0  0  0  0  0  0
   -2.3357    5.9459    4.7579 H   0  0  0  0  0  0  0  0  0  0  0  0
   -2.0041    5.1817    7.2900 H   0  0  0  0  0  0  0  0  0  0  0  0
   -0.2989    5.1193    6.7290 H   0  0  0  0  0  0  0  0  0  0  0  0
   -1.2051    6.6695    6.6782 H   0  0  0  0  0  0  0  0  0  0  0  0
  1  3  1  0  0  0  0
  1  7  1  0  0  0  0
  1  2  2  0  0  0  0
 37 38  1  0  0  0  0
 38 46  1  0  0  0  0
 38 39  2  0  0  0  0
  8  9  1  0  0  0  0
  9 17  1  0  0  0  0
  9 10  2  0  0  0  0
 18 19  1  0  0  0  0
 19 36  1  0  0  0  0
 19 20  2  0  0  0  0
 22 24  1  0  0  0  0
 37 40  1  0  0  0  0
  8 11  1  0  0  0  0
 21 23  1  0  0  0  0
 46 47  1  0  0  0  0
 21 22  1  0  0  0  0
 36 37  1  0  0  0  0
  7  8  1  0  0  0  0
 18 21  1  0  0  0  0
 17 18  1  0  0  0  0
  3  4  1  0  0  0  0
  3  5  1  0  0  0  0
  3  6  1  0  0  0  0
 24 33  1  0  0  0  0
 24 34  1  0  0  0  0
 24 35  1  0  0  0  0
 40 43  1  0  0  0  0
 40 44  1  0  0  0  0
 40 45  1  0  0  0  0
 11 14  1  0  0  0  0
 11 15  1  0  0  0  0
 11 16  1  0  0  0  0
 23 30  1  0  0  0  0
 23 31  1  0  0  0  0
 23 32  1  0  0  0  0
 47 49  1  0  0  0  0
 47 50  1  0  0  0  0
 47 51  1  0  0  0  0
 22 28  1  0  0  0  0
 22 29  1  0  0  0  0
 37 42  1  0  0  0  0
  8 13  1  0  0  0  0
 18 26  1  0  0  0  0
 21 27  1  0  0  0  0
 46 48  1  0  0  0  0
  7 12  1  0  0  0  0
 36 41  1  0  0  0  0
 17 25  1  0  0  0  0
M  END
$$$$

  -OEChem-05262214473D

 51 50  0     1  0  0  0  0  0999 V2000
    1.3524   -3.0009    1.4091 C   0  0  0  0  0  0  0  0  0  0  0  0
    1.8758   -1.9880    0.9598 O   0  0  0  0  0  0  0  0  0  0  0  0
    2.2030   -4.1782    1.7536 C   0  0  0  0  0  0  0  0  0  0  0  0
    2.3264   -4.8705    0.9053 H   0  0  0  0  0  0  0  0  0  0  0  0
    3.2257   -3.8876    2.0432 H   0  0  0  0  0  0  0  0  0  0  0  0
    1.8327   -4.8004    2.5839 H   0  0  0  0  0  0  0  0  0  0  0  0
    0.0005   -3.1873    1.6465 N   0  0  0  0  0  0  0  0  0  0  0  0
   -0.9949   -2.1807    1.3864 C   0  0  2  0  0  0  0  0  0  0  0  0
   -0.3083   -0.8216    1.4164 C   0  0  0  0  0  0  0  0  0  0  0  0
    0.7533   -0.6191    2.0022 O   0  0  0  0  0  0  0  0  0  0  0  0
   -2.1232   -2.2423    2.4042 C   0  0  0  0  0  0  0  0  0  0  0  0
   -0.3048   -4.0823    2.0245 H   0  0  0  0  0  0  0  0  0  0  0  0
   -1.3830   -2.3724    0.3801 H   0  0  0  0  0  0  0  0  0  0  0  0
   -1.7534   -2.0527    3.4185 H   0  0  0  0  0  0  0  0  0  0  0  0
   -2.8936   -1.4947    2.1882 H   0  0  0  0  0  0  0  0  0  0  0  0
   -2.5964   -3.2301    2.4022 H   0  0  0  0  0  0  0  0  0  0  0  0
   -1.0412    0.1517    0.7482 N   0  0  0  0  0  0  0  0  0  0  0  0
   -0.6079    1.5223    0.6467 C   0  0  2  0  0  0  0  0  0  0  0  0
   -1.6711    2.4072    1.2962 C   0  0  0  0  0  0  0  0  0  0  0  0
   -2.8762    2.2457    1.1147 O   0  0  0  0  0  0  0  0  0  0  0  0
   -0.2889    1.9494   -0.8063 C   0  0  2  0  0  0  0  0  0  0  0  0
    0.8852    1.1454   -1.4075 C   0  0  0  0  0  0  0  0  0  0  0  0
   -0.0303    3.4607   -0.8681 C   0  0  0  0  0  0  0  0  0  0  0  0
    1.0542    1.3478   -2.9079 C   0  0  0  0  0  0  0  0  0  0  0  0
   -1.9022   -0.1128    0.2753 H   0  0  0  0  0  0  0  0  0  0  0  0
    0.2985    1.5966    1.2610 H   0  0  0  0  0  0  0  0  0  0  0  0
   -1.1776    1.7509   -1.4202 H   0  0  0  0  0  0  0  0  0  0  0  0
    1.8219    1.4463   -0.9244 H   0  0  0  0  0  0  0  0  0  0  0  0
    0.7562    0.0746   -1.2100 H   0  0  0  0  0  0  0  0  0  0  0  0
    0.8489    3.7298   -0.2728 H   0  0  0  0  0  0  0  0  0  0  0  0
    0.1655    3.7875   -1.8939 H   0  0  0  0  0  0  0  0  0  0  0  0
   -0.8850    4.0303   -0.4888 H   0  0  0  0  0  0  0  0  0  0  0  0
    0.1513    1.0655   -3.4568 H   0  0  0  0  0  0  0  0  0  0  0  0
    1.8734    0.7235   -3.2797 H   0  0  0  0  0  0  0  0  0  0  0  0
    1.2920    2.3906   -3.1400 H   0  0  0  0  0  0  0  0  0  0  0  0
   -1.1150    3.3720    2.1241 N   0  0  0  0  0  0  0  0  0  0  0  0
   -1.9033    4.3240    2.8731 C   0  0  2  0  0  0  0  0  0  0  0  0
   -1.1029    4.7334    4.1025 C   0  0  0  0  0  0  0  0  0  0  0  0
   -0.2043    4.0428    4.5785 O   0  0  0  0  0  0  0  0  0  0  0  0
   -3.2485    3.7370    3.2711 C   0  0  0  0  0  0  0  0  0  0  0  0
   -0.1035    3.4112    2.2079 H   0  0  0  0  0  0  0  0  0  0  0  0
   -2.0482    5.1947    2.2243 H   0  0  0  0  0  0  0  0  0  0  0  0
   -3.1236    2.8635    3.9214 H   0  0  0  0  0  0  0  0  0  0  0  0
   -3.8559    4.4688    3.8137 H   0  0  0  0  0  0  0  0  0  0  0  0
   -3.8103    3.4157    2.3874 H   0  0  0  0  0  0  0  0  0  0  0  0
   -1.5390    5.9403    4.6310 N   0  0  0  0  0  0  0  0  0  0  0  0
   -0.9473    6.5361    5.8061 C   0  0  0  0  0  0  0  0  0  0  0  0
   -2.2779    6.4542    4.1600 H   0  0  0  0  0  0  0  0  0  0  0  0
   -1.5036    6.2163    6.6996 H   0  0  0  0  0  0  0  0  0  0  0  0
    0.1009    6.2138    5.8922 H   0  0  0  0  0  0  0  0  0  0  0  0
   -0.9883    7.6321    5.7216 H   0  0  0  0  0  0  0  0  0  0  0  0
  1  3  1  0  0  0  0
  1  7  1  0  0  0  0
  1  2  2  0  0  0  0
 37 38  1  0  0  0  0
 38 46  1  0  0  0  0
 38 39  2  0  0  0  0
  8  9  1  0  0  0  0
  9 17  1  0  0  0  0
  9 10  2  0  0  0  0
 18 19  1  0  0  0  0
 19 36  1  0  0  0  0
 19 20  2  0  0  0  0
 22 24  1  0  0  0  0
 37 40  1  0  0  0  0
  8 11  1  0  0  0  0
 21 23  1  0  0  0  0
 46 47  1  0  0  0  0
 21 22  1  0  0  0  0
 36 37  1  0  0  0  0
  7  8  1  0  0  0  0
 18 21  1  0  0  0  0
 17 18  1  0  0  0  0
  3  4  1  0  0  0  0
  3  5  1  0  0  0  0
  3  6  1  0  0  0  0
 24 33  1  0  0  0  0
 24 34  1  0  0  0  0
 24 35  1  0  0  0  0
 40 43  1  0  0  0  0
 40 44  1  0  0  0  0
 40 45  1  0  0  0  0
 11 14  1  0  0  0  0
 11 15  1  0  0  0  0
 11 16  1  0  0  0  0
 23 30  1  0  0  0  0
 23 31  1  0  0  0  0
 23 32  1  0  0  0  0
 47 49  1  0  0  0  0
 47 50  1  0  0  0  0
 47 51  1  0  0  0  0
 22 28  1  0  0  0  0
 22 29  1  0  0  0  0
 37 42  1  0  0  0  0
  8 13  1  0  0  0  0
 18 26  1  0  0  0  0
 21 27  1  0  0  0  0
 46 48  1  0  0  0  0
  7 12  1  0  0  0  0
 36 41  1  0  0  0  0
 17 25  1  0  0  0  0
M  END
$$$$

  -OEChem-05262214473D

 51 50  0     1  0  0  0  0  0999 V2000
    1.3524   -3.0009    1.4091 C   0  0  0  0  0  0  0  0  0  0  0  0
    1.8758   -1.9880    0.9598 O   0  0  0  0  0  0  0  0  0  0  0  0
    2.2030   -4.1782    1.7536 C   0  0  0  0  0  0  0  0  0  0  0  0
    2.3264   -4.8705    0.9053 H   0  0  0  0  0  0  0  0  0  0  0  0
    3.2257   -3.8876    2.0432 H   0  0  0  0  0  0  0  0  0  0  0  0
    1.8327   -4.8004    2.5839 H   0  0  0  0  0  0  0  0  0  0  0  0
    0.0005   -3.1873    1.6465 N   0  0  0  0  0  0  0  0  0  0  0  0
   -0.9949   -2.1807    1.3864 C   0  0  2  0  0  0  0  0  0  0  0  0
   -0.3083   -0.8216    1.4164 C   0  0  0  0  0  0  0  0  0  0  0  0
    0.7533   -0.6191    2.0022 O   0  0  0  0  0  0  0  0  0  0  0  0
   -2.1232   -2.2423    2.4042 C   0  0  0  0  0  0  0  0  0  0  0  0
   -0.3048   -4.0823    2.0245 H   0  0  0  0  0  0  0  0  0  0  0  0
   -1.3830   -2.3724    0.3801 H   0  0  0  0  0  0  0  0  0  0  0  0
   -1.7534   -2.0527    3.4185 H   0  0  0  0  0  0  0  0  0  0  0  0
   -2.8936   -1.4947    2.1882 H   0  0  0  0  0  0  0  0  0  0  0  0
   -2.5964   -3.2301    2.4022 H   0  0  0  0  0  0  0  0  0  0  0  0
   -1.0412    0.1517    0.7482 N   0  0  0  0  0  0  0  0  0  0  0  0
   -0.6079    1.5223    0.6467 C   0  0  2  0  0  0  0  0  0  0  0  0
   -1.6711    2.4072    1.2962 C   0  0  0  0  0  0  0  0  0  0  0  0
   -2.8604    2.0991    1.3403 O   0  0  0  0  0  0  0  0  0  0  0  0
   -0.2889    1.9494   -0.8063 C   0  0  2  0  0  0  0  0  0  0  0  0
    0.8852    1.1454   -1.4075 C   0  0  0  0  0  0  0  0  0  0  0  0
   -0.0303    3.4607   -0.8681 C   0  0  0  0  0  0  0  0  0  0  0  0
    1.0542    1.3478   -2.9079 C   0  0  0  0  0  0  0  0  0  0  0  0
   -1.9022   -0.1128    0.2753 H   0  0  0  0  0  0  0  0  0  0  0  0
    0.2985    1.5966    1.2610 H   0  0  0  0  0  0  0  0  0  0  0  0
   -1.1776    1.7509   -1.4202 H   0  0  0  0  0  0  0  0  0  0  0  0
    1.8219    1.4463   -0.9244 H   0  0  0  0  0  0  0  0  0  0  0  0
    0.7562    0.0746   -1.2100 H   0  0  0  0  0  0  0  0  0  0  0  0
    0.8489    3.7298   -0.2728 H   0  0  0  0  0  0  0  0  0  0  0  0
    0.1655    3.7875   -1.8939 H   0  0  0  0  0  0  0  0  0  0  0  0
   -0.8850    4.0303   -0.4888 H   0  0  0  0  0  0  0  0  0  0  0  0
    0.1513    1.0655   -3.4568 H   0  0  0  0  0  0  0  0  0  0  0  0
    1.8734    0.7235   -3.2797 H   0  0  0  0  0  0  0  0  0  0  0  0
    1.2920    2.3906   -3.1400 H   0  0  0  0  0  0  0  0  0  0  0  0
   -1.1284    3.5597    1.8464 N   0  0  0  0  0  0  0  0  0  0  0  0
   -1.9159    4.5554    2.5372 C   0  0  2  0  0  0  0  0  0  0  0  0
   -1.0084    5.2643    3.5339 C   0  0  0  0  0  0  0  0  0  0  0  0
    0.0264    4.7655    3.9714 O   0  0  0  0  0  0  0  0  0  0  0  0
   -3.1093    3.9271    3.2400 C   0  0  0  0  0  0  0  0  0  0  0  0
   -0.1279    3.7112    1.7593 H   0  0  0  0  0  0  0  0  0  0  0  0
   -2.2567    5.2701    1.7802 H   0  0  0  0  0  0  0  0  0  0  0  0
   -2.7875    3.2080    4.0021 H   0  0  0  0  0  0  0  0  0  0  0  0
   -3.7207    4.6862    3.7390 H   0  0  0  0  0  0  0  0  0  0  0  0
   -3.7450    3.3925    2.5260 H   0  0  0  0  0  0  0  0  0  0  0  0
   -1.5123    6.5015    3.9102 N   0  0  0  0  0  0  0  0  0  0  0  0
   -0.8405    7.3621    4.8556 C   0  0  0  0  0  0  0  0  0  0  0  0
   -2.3676    6.8438    3.4824 H   0  0  0  0  0  0  0  0  0  0  0  0
   -1.2225    7.1645    5.8680 H   0  0  0  0  0  0  0  0  0  0  0  0
    0.2412    7.1643    4.8270 H   0  0  0  0  0  0  0  0  0  0  0  0
   -1.0281    8.4134    4.5919 H   0  0  0  0  0  0  0  0  0  0  0  0
  1  3  1  0  0  0  0
  1  7  1  0  0  0  0
  1  2  2  0  0  0  0
 37 38  1  0  0  0  0
 38 46  1  0  0  0  0
 38 39  2  0  0  0  0
  8  9  1  0  0  0  0
  9 17  1  0  0  0  0
  9 10  2  0  0  0  0
 18 19  1  0  0  0  0
 19 36  1  0  0  0  0
 19 20  2  0  0  0  0
 22 24  1  0  0  0  0
 37 40  1  0  0  0  0
  8 11  1  0  0  0  0
 21 23  1  0  0  0  0
 46 47  1  0  0  0  0
 21 22  1  0  0  0  0
 36 37  1  0  0  0  0
  7  8  1  0  0  0  0
 18 21  1  0  0  0  0
 17 18  1  0  0  0  0
  3  4  1  0  0  0  0
  3  5  1  0  0  0  0
  3  6  1  0  0  0  0
 24 33  1  0  0  0  0
 24 34  1  0  0  0  0
 24 35  1  0  0  0  0
 40 43  1  0  0  0  0
 40 44  1  0  0  0  0
 40 45  1  0  0  0  0
 11 14  1  0  0  0  0
 11 15  1  0  0  0  0
 11 16  1  0  0  0  0
 23 30  1  0  0  0  0
 23 31  1  0  0  0  0
 23 32  1  0  0  0  0
 47 49  1  0  0  0  0
 47 50  1  0  0  0  0
 47 51  1  0  0  0  0
 22 28  1  0  0  0  0
 22 29  1  0  0  0  0
 37 42  1  0  0  0  0
  8 13  1  0  0  0  0
 18 26  1  0  0  0  0
 21 27  1  0  0  0  0
 46 48  1  0  0  0  0
  7 12  1  0  0  0  0
 36 41  1  0  0  0  0
 17 25  1  0  0  0  0
M  END
$$$$

  -OEChem-05262214473D

 51 50  0     1  0  0  0  0  0999 V2000
    1.3524   -3.0009    1.4091 C   0  0  0  0  0  0  0  0  0  0  0  0
    1.8758   -1.9880    0.9598 O   0  0  0  0  0  0  0  0  0  0  0  0
    2.2030   -4.1782    1.7536 C   0  0  0  0  0  0  0  0  0  0  0  0
    2.3264   -4.8705    0.9053 H   0  0  0  0  0  0  0  0  0  0  0  0
    3.2257   -3.8876    2.0432 H   0  0  0  0  0  0  0  0  0  0  0  0
    1.8327   -4.8004    2.5839 H   0  0  0  0  0  0  0  0  0  0  0  0
    0.0005   -3.1873    1.6465 N   0  0  0  0  0  0  0  0  0  0  0  0
   -0.9949   -2.1807    1.3864 C   0  0  2  0  0  0  0  0  0  0  0  0
   -0.3083   -0.8216    1.4164 C   0  0  0  0  0  0  0  0  0  0  0  0
    0.7533   -0.6191    2.0022 O   0  0  0  0  0  0  0  0  0  0  0  0
   -2.1232   -2.2423    2.4042 C   0  0  0  0  0  0  0  0  0  0  0  0
   -0.3048   -4.0823    2.0245 H   0  0  0  0  0  0  0  0  0  0  0  0
   -1.3830   -2.3724    0.3801 H   0  0  0  0  0  0  0  0  0  0  0  0
   -1.7534   -2.0527    3.4185 H   0  0  0  0  0  0  0  0  0  0  0  0
   -2.8936   -1.4947    2.1882 H   0  0  0  0  0  0  0  0  0  0  0  0
   -2.5964   -3.2301    2.4022 H   0  0  0  0  0  0  0  0  0  0  0  0
   -1.0412    0.1517    0.7482 N   0  0  0  0  0  0  0  0  0  0  0  0
   -0.6079    1.5223    0.6467 C   0  0  2  0  0  0  0  0  0  0  0  0
   -1.6711    2.4072    1.2962 C   0  0  0  0  0  0  0  0  0  0  0  0
   -2.7952    1.9999    1.5822 O   0  0  0  0  0  0  0  0  0  0  0  0
   -0.2889    1.9494   -0.8063 C   0  0  2  0  0  0  0  0  0  0  0  0
    0.8852    1.1454   -1.4075 C   0  0  0  0  0  0  0  0  0  0  0  0
   -0.0303    3.4607   -0.8681 C   0  0  0  0  0  0  0  0  0  0  0  0
    1.0542    1.3478   -2.9079 C   0  0  0  0  0  0  0  0  0  0  0  0
   -1.9022   -0.1128    0.2753 H   0  0  0  0  0  0  0  0  0  0  0  0
    0.2985    1.5966    1.2610 H   0  0  0  0  0  0  0  0  0  0  0  0
   -1.1776    1.7509   -1.4202 H   0  0  0  0  0  0  0  0  0  0  0  0
    1.8219    1.4463   -0.9244 H   0  0  0  0  0  0  0  0  0  0  0  0
    0.7562    0.0746   -1.2100 H   0  0  0  0  0  0  0  0  0  0  0  0
    0.8489    3.7298   -0.2728 H   0  0  0  0  0  0  0  0  0  0  0  0
    0.1655    3.7875   -1.8939 H   0  0  0  0  0  0  0  0  0  0  0  0
   -0.8850    4.0303   -0.4888 H   0  0  0  0  0  0  0  0  0  0  0  0
    0.1513    1.0655   -3.4568 H   0  0  0  0  0  0  0  0  0  0  0  0
    1.8734    0.7235   -3.2797 H   0  0  0  0  0  0  0  0  0  0  0  0
    1.2920    2.3906   -3.1400 H   0  0  0  0  0  0  0  0  0  0  0  0
   -1.2037    3.6896    1.5464 N   0  0  0  0  0  0  0  0  0  0  0  0
   -2.0039    4.7170    2.1729 C   0  0  2  0  0  0  0  0  0  0  0  0
   -1.0608    5.6851    2.8749 C   0  0  0  0  0  0  0  0  0  0  0  0
    0.0787    5.3797    3.2204 O   0  0  0  0  0  0  0  0  0  0  0  0
   -3.0003    4.1205    3.1548 C   0  0  0  0  0  0  0  0  0  0  0  0
   -0.2516    3.9175    1.2757 H   0  0  0  0  0  0  0  0  0  0  0  0
   -2.5330    5.2401    1.3688 H   0  0  0  0  0  0  0  0  0  0  0  0
   -2.4887    3.5923    3.9677 H   0  0  0  0  0  0  0  0  0  0  0  0
   -3.6251    4.8976    3.6073 H   0  0  0  0  0  0  0  0  0  0  0  0
   -3.6585    3.4023    2.6542 H   0  0  0  0  0  0  0  0  0  0  0  0
   -1.6563    6.9166    3.1089 N   0  0  0  0  0  0  0  0  0  0  0  0
   -0.9706    8.0007    3.7728 C   0  0  0  0  0  0  0  0  0  0  0  0
   -2.5987    7.0882    2.7711 H   0  0  0  0  0  0  0  0  0  0  0  0
   -1.1799    7.9615    4.8519 H   0  0  0  0  0  0  0  0  0  0  0  0
    0.1126    7.9061    3.6058 H   0  0  0  0  0  0  0  0  0  0  0  0
   -1.3218    8.9604    3.3659 H   0  0  0  0  0  0  0  0  0  0  0  0
  1  3  1  0  0  0  0
  1  7  1  0  0  0  0
  1  2  2  0  0  0  0
 37 38  1  0  0  0  0
 38 46  1  0  0  0  0
 38 39  2  0  0  0  0
  8  9  1  0  0  0  0
  9 17  1  0  0  0  0
  9 10  2  0  0  0  0
 18 19  1  0  0  0  0
 19 36  1  0  0  0  0
 19 20  2  0  0  0  0
 22 24  1  0  0  0  0
 37 40  1  0  0  0  0
  8 11  1  0  0  0  0
 21 23  1  0  0  0  0
 46 47  1  0  0  0  0
 21 22  1  0  0  0  0
 36 37  1  0  0  0  0
  7  8  1  0  0  0  0
 18 21  1  0  0  0  0
 17 18  1  0  0  0  0
  3  4  1  0  0  0  0
  3  5  1  0  0  0  0
  3  6  1  0  0  0  0
 24 33  1  0  0  0  0
 24 34  1  0  0  0  0
 24 35  1  0  0  0  0
 40 43  1  0  0  0  0
 40 44  1  0  0  0  0
 40 45  1  0  0  0  0
 11 14  1  0  0  0  0
 11 15  1  0  0  0  0
 11 16  1  0  0  0  0
 23 30  1  0  0  0  0
 23 31  1  0  0  0  0
 23 32  1  0  0  0  0
 47 49  1  0  0  0  0
 47 50  1  0  0  0  0
 47 51  1  0  0  0  0
 22 28  1  0  0  0  0
 22 29  1  0  0  0  0
 37 42  1  0  0  0  0
  8 13  1  0  0  0  0
 18 26  1  0  0  0  0
 21 27  1  0  0  0  0
 46 48  1  0  0  0  0
  7 12  1  0  0  0  0
 36 41  1  0  0  0  0
 17 25  1  0  0  0  0
M  END
$$$$

  -OEChem-05262214473D

 51 50  0     1  0  0  0  0  0999 V2000
    1.3524   -3.0009    1.4091 C   0  0  0  0  0  0  0  0  0  0  0  0
    1.8758   -1.9880    0.9598 O   0  0  0  0  0  0  0  0  0  0  0  0
    2.2030   -4.1782    1.7536 C   0  0  0  0  0  0  0  0  0  0  0  0
    2.3264   -4.8705    0.9053 H   0  0  0  0  0  0  0  0  0  0  0  0
    3.2257   -3.8876    2.0432 H   0  0  0  0  0  0  0  0  0  0  0  0
    1.8327   -4.8004    2.5839 H   0  0  0  0  0  0  0  0  0  0  0  0
    0.0005   -3.1873    1.6465 N   0  0  0  0  0  0  0  0  0  0  0  0
   -0.9949   -2.1807    1.3864 C   0  0  2  0  0  0  0  0  0  0  0  0
   -0.3083   -0.8216    1.4164 C   0  0  0  0  0  0  0  0  0  0  0  0
    0.7533   -0.6191    2.0022 O   0  0  0  0  0  0  0  0  0  0  0  0
   -2.1232   -2.2423    2.4042 C   0  0  0  0  0  0  0  0  0  0  0  0
   -0.3048   -4.0823    2.0245 H   0  0  0  0  0  0  0  0  0  0  0  0
   -1.3830   -2.3724    0.3801 H   0  0  0  0  0  0  0  0  0  0  0  0
   -1.7534   -2.0527    3.4185 H   0  0  0  0  0  0  0  0  0  0  0  0
   -2.8936   -1.4947    2.1882 H   0  0  0  0  0  0  0  0  0  0  0  0
   -2.5964   -3.2301    2.4022 H   0  0  0  0  0  0  0  0  0  0  0  0
   -1.0412    0.1517    0.7482 N   0  0  0  0  0  0  0  0  0  0  0  0
   -0.6079    1.5223    0.6467 C   0  0  2  0  0  0  0  0  0  0  0  0
   -1.4540    2.3613    1.6035 C   0  0  0  0  0  0  0  0  0  0  0  0
   -2.3197    1.8766    2.3295 O   0  0  0  0  0  0  0  0  0  0  0  0
   -0.6435    2.0617   -0.8036 C   0  0  2  0  0  0  0  0  0  0  0  0
    0.3242    1.2985   -1.7350 C   0  0  0  0  0  0  0  0  0  0  0  0
   -0.3658    3.5708   -0.8129 C   0  0  0  0  0  0  0  0  0  0  0  0
    0.1253    1.6190   -3.2109 C   0  0  0  0  0  0  0  0  0  0  0  0
   -1.9022   -0.1128    0.2753 H   0  0  0  0  0  0  0  0  0  0  0  0
    0.4233    1.5395    1.0220 H   0  0  0  0  0  0  0  0  0  0  0  0
   -1.6609    1.9206   -1.1922 H   0  0  0  0  0  0  0  0  0  0  0  0
    1.3589    1.5518   -1.4768 H   0  0  0  0  0  0  0  0  0  0  0  0
    0.2177    0.2165   -1.5932 H   0  0  0  0  0  0  0  0  0  0  0  0
    0.6398    3.7840   -0.4345 H   0  0  0  0  0  0  0  0  0  0  0  0
   -0.4187    3.9771   -1.8276 H   0  0  0  0  0  0  0  0  0  0  0  0
   -1.0850    4.1155   -0.1925 H   0  0  0  0  0  0  0  0  0  0  0  0
   -0.8922    1.3893   -3.5396 H   0  0  0  0  0  0  0  0  0  0  0  0
    0.8104    1.0196   -3.8195 H   0  0  0  0  0  0  0  0  0  0  0  0
    0.3279    2.6750   -3.4150 H   0  0  0  0  0  0  0  0  0  0  0  0
   -1.1039    3.7037    1.5724 N   0  0  0  0  0  0  0  0  0  0  0  0
   -1.7373    4.7076    2.3968 C   0  0  2  0  0  0  0  0  0  0  0  0
   -0.7380    5.8361    2.6147 C   0  0  0  0  0  0  0  0  0  0  0  0
    0.4773    5.6861    2.5067 O   0  0  0  0  0  0  0  0  0  0  0  0
   -2.1965    4.1244    3.7241 C   0  0  0  0  0  0  0  0  0  0  0  0
   -0.3658    3.9953    0.9385 H   0  0  0  0  0  0  0  0  0  0  0  0
   -2.5970    5.0843    1.8321 H   0  0  0  0  0  0  0  0  0  0  0  0
   -1.3487    3.7419    4.3041 H   0  0  0  0  0  0  0  0  0  0  0  0
   -2.7015    4.8794    4.3357 H   0  0  0  0  0  0  0  0  0  0  0  0
   -2.8922    3.2935    3.5648 H   0  0  0  0  0  0  0  0  0  0  0  0
   -1.3603    7.0197    2.9861 N   0  0  0  0  0  0  0  0  0  0  0  0
   -0.6268    8.2329    3.2621 C   0  0  0  0  0  0  0  0  0  0  0  0
   -2.3742    7.0580    3.0325 H   0  0  0  0  0  0  0  0  0  0  0  0
   -0.4038    8.2905    4.3378 H   0  0  0  0  0  0  0  0  0  0  0  0
    0.3142    8.2300    2.6924 H   0  0  0  0  0  0  0  0  0  0  0  0
   -1.2319    9.1025    2.9662 H   0  0  0  0  0  0  0  0  0  0  0  0
  1  3  1  0  0  0  0
  1  7  1  0  0  0  0
  1  2  2  0  0  0  0
 37 38  1  0  0  0  0
 38 46  1  0  0  0  0
 38 39  2  0  0  0  0
  8  9  1  0  0  0  0
  9 17  1  0  0  0  0
  9 10  2  0  0  0  0
 18 19  1  0  0  0  0
 19 36  1  0  0  0  0
 19 20  2  0  0  0  0
 22 24  1  0  0  0  0
 37 40  1  0  0  0  0
  8 11  1  0  0  0  0
 21 23  1  0  0  0  0
 46 47  1  0  0  0  0
 21 22  1  0  0  0  0
 36 37  1  0  0  0  0
  7  8  1  0  0  0  0
 18 21  1  0  0  0  0
 17 18  1  0  0  0  0
  3  4  1  0  0  0  0
  3  5  1  0  0  0  0
  3  6  1  0  0  0  0
 24 33  1  0  0  0  0
 24 34  1  0  0  0  0
 24 35  1  0  0  0  0
 40 43  1  0  0  0  0
 40 44  1  0  0  0  0
 40 45  1  0  0  0  0
 11 14  1  0  0  0  0
 11 15  1  0  0  0  0
 11 16  1  0  0  0  0
 23 30  1  0  0  0  0
 23 31  1  0  0  0  0
 23 32  1  0  0  0  0
 47 49  1  0  0  0  0
 47 50  1  0  0  0  0
 47 51  1  0  0  0  0
 22 28  1  0  0  0  0
 22 29  1  0  0  0  0
 37 42  1  0  0  0  0
  8 13  1  0  0  0  0
 18 26  1  0  0  0  0
 21 27  1  0  0  0  0
 46 48  1  0  0  0  0
  7 12  1  0  0  0  0
 36 41  1  0  0  0  0
 17 25  1  0  0  0  0
M  END
$$$$

  -OEChem-05262214473D

 51 50  0     1  0  0  0  0  0999 V2000
    1.3524   -3.0009    1.4091 C   0  0  0  0  0  0  0  0  0  0  0  0
    1.8758   -1.9880    0.9598 O   0  0  0  0  0  0  0  0  0  0  0  0
    2.2030   -4.1782    1.7536 C   0  0  0  0  0  0  0  0  0  0  0  0
    2.3264   -4.8705    0.9053 H   0  0  0  0  0  0  0  0  0  0  0  0
    3.2257   -3.8876    2.0432 H   0  0  0  0  0  0  0  0  0  0  0  0
    1.8327   -4.8004    2.5839 H   0  0  0  0  0  0  0  0  0  0  0  0
    0.0005   -3.1873    1.6465 N   0  0  0  0  0  0  0  0  0  0  0  0
   -0.9949   -2.1807    1.3864 C   0  0  2  0  0  0  0  0  0  0  0  0
   -0.3083   -0.8216    1.4164 C   0  0  0  0  0  0  0  0  0  0  0  0
    0.7533   -0.6191    2.0022 O   0  0  0  0  0  0  0  0  0  0  0  0
   -2.1232   -2.2423    2.4042 C   0  0  0  0  0  0  0  0  0  0  0  0
   -0.3048   -4.0823    2.0245 H   0  0  0  0  0  0  0  0  0  0  0  0
   -1.3830   -2.3724    0.3801 H   0  0  0  0  0  0  0  0  0  0  0  0
   -1.7534   -2.0527    3.4185 H   0  0  0  0  0  0  0  0  0  0  0  0
   -2.8936   -1.4947    2.1882 H   0  0  0  0  0  0  0  0  0  0  0  0
   -2.5964   -3.2301    2.4022 H   0  0  0  0  0  0  0  0  0  0  0  0
   -1.0412    0.1517    0.7482 N   0  0  0  0  0  0  0  0  0  0  0  0
   -0.6079    1.5223    0.6467 C   0  0  2  0  0  0  0  0  0  0  0  0
   -1.4540    2.3613    1.6035 C   0  0  0  0  0  0  0  0  0  0  0  0
   -2.1210    1.8694    2.5115 O   0  0  0  0  0  0  0  0  0  0  0  0
   -0.6435    2.0617   -0.8036 C   0  0  2  0  0  0  0  0  0  0  0  0
    0.3242    1.2985   -1.7350 C   0  0  0  0  0  0  0  0  0  0  0  0
   -0.3658    3.5708   -0.8129 C   0  0  0  0  0  0  0  0  0  0  0  0
    0.1253    1.6190   -3.2109 C   0  0  0  0  0  0  0  0  0  0  0  0
   -1.9022   -0.1128    0.2753 H   0  0  0  0  0  0  0  0  0  0  0  0
    0.4233    1.5395    1.0220 H   0  0  0  0  0  0  0  0  0  0  0  0
   -1.6609    1.9206   -1.1922 H   0  0  0  0  0  0  0  0  0  0  0  0
    1.3589    1.5518   -1.4768 H   0  0  0  0  0  0  0  0  0  0  0  0
    0.2177    0.2165   -1.5932 H   0  0  0  0  0  0  0  0  0  0  0  0
    0.6398    3.7840   -0.4345 H   0  0  0  0  0  0  0  0  0  0  0  0
   -0.4187    3.9771   -1.8276 H   0  0  0  0  0  0  0  0  0  0  0  0
   -1.0850    4.1155   -0.1925 H   0  0  0  0  0  0  0  0  0  0  0  0
   -0.8922    1.3893   -3.5396 H   0  0  0  0  0  0  0  0  0  0  0  0
    0.8104    1.0196   -3.8195 H   0  0  0  0  0  0  0  0  0  0  0  0
    0.3279    2.6750   -3.4150 H   0  0  0  0  0  0  0  0  0  0  0  0
   -1.3477    3.7200    1.3425 N   0  0  0  0  0  0  0  0  0  0  0  0
   -2.0317    4.7317    2.1153 C   0  0  2  0  0  0  0  0  0  0  0  0
   -1.2223    6.0187    2.0263 C   0  0  0  0  0  0  0  0  0  0  0  0
   -0.0239    6.0399    1.7533 O   0  0  0  0  0  0  0  0  0  0  0  0
   -2.2067    4.2985    3.5625 C   0  0  0  0  0  0  0  0  0  0  0  0
   -0.7599    4.0184    0.5698 H   0  0  0  0  0  0  0  0  0  0  0  0
   -3.0097    4.8815    1.6450 H   0  0  0  0  0  0  0  0  0  0  0  0
   -1.2374    4.1436    4.0503 H   0  0  0  0  0  0  0  0  0  0  0  0
   -2.7502    5.0537    4.1398 H   0  0  0  0  0  0  0  0  0  0  0  0
   -2.7634    3.3571    3.6229 H   0  0  0  0  0  0  0  0  0  0  0  0
   -1.9855    7.1374    2.3301 N   0  0  0  0  0  0  0  0  0  0  0  0
   -1.4426    8.4757    2.3279 C   0  0  0  0  0  0  0  0  0  0  0  0
   -2.9761    7.0281    2.5266 H   0  0  0  0  0  0  0  0  0  0  0  0
   -1.0946    8.7325    3.3393 H   0  0  0  0  0  0  0  0  0  0  0  0
   -0.5976    8.5273    1.6255 H   0  0  0  0  0  0  0  0  0  0  0  0
   -2.2219    9.1869    2.0168 H   0  0  0  0  0  0  0  0  0  0  0  0
  1  3  1  0  0  0  0
  1  7  1  0  0  0  0
  1  2  2  0  0  0  0
 37 38  1  0  0  0  0
 38 46  1  0  0  0  0
 38 39  2  0  0  0  0
  8  9  1  0  0  0  0
  9 17  1  0  0  0  0
  9 10  2  0  0  0  0
 18 19  1  0  0  0  0
 19 36  1  0  0  0  0
 19 20  2  0  0  0  0
 22 24  1  0  0  0  0
 37 40  1  0  0  0  0
  8 11  1  0  0  0  0
 21 23  1  0  0  0  0
 46 47  1  0  0  0  0
 21 22  1  0  0  0  0
 36 37  1  0  0  0  0
  7  8  1  0  0  0  0
 18 21  1  0  0  0  0
 17 18  1  0  0  0  0
  3  4  1  0  0  0  0
  3  5  1  0  0  0  0
  3  6  1  0  0  0  0
 24 33  1  0  0  0  0
 24 34  1  0  0  0  0
 24 35  1  0  0  0  0
 40 43  1  0  0  0  0
 40 44  1  0  0  0  0
 40 45  1  0  0  0  0
 11 14  1  0  0  0  0
 11 15  1  0  0  0  0
 11 16  1  0  0  0  0
 23 30  1  0  0  0  0
 23 31  1  0  0  0  0
 23 32  1  0  0  0  0
 47 49  1  0  0  0  0
 47 50  1  0  0  0  0
 47 51  1  0  0  0  0
 22 28  1  0  0  0  0
 22 29  1  0  0  0  0
 37 42  1  0  0  0  0
  8 13  1  0  0  0  0
 18 26  1  0  0  0  0
 21 27  1  0  0  0  0
 46 48  1  0  0  0  0
  7 12  1  0  0  0  0
 36 41  1  0  0  0  0
 17 25  1  0  0  0  0
M  END
$$$$

  -OEChem-05262214473D

 51 50  0     1  0  0  0  0  0999 V2000
    1.3524   -3.0009    1.4091 C   0  0  0  0  0  0  0  0  0  0  0  0
    1.8758   -1.9880    0.9598 O   0  0  0  0  0  0  0  0  0  0  0  0
    2.2030   -4.1782    1.7536 C   0  0  0  0  0  0  0  0  0  0  0  0
    2.3264   -4.8705    0.9053 H   0  0  0  0  0  0  0  0  0  0  0  0
    3.2257   -3.8876    2.0432 H   0  0  0  0  0  0  0  0  0  0  0  0
    1.8327   -4.8004    2.5839 H   0  0  0  0  0  0  0  0  0  0  0  0
    0.0005   -3.1873    1.6465 N   0  0  0  0  0  0  0  0  0  0  0  0
   -0.9949   -2.1807    1.3864 C   0  0  2  0  0  0  0  0  0  0  0  0
   -0.3083   -0.8216    1.4164 C   0  0  0  0  0  0  0  0  0  0  0  0
    0.7533   -0.6191    2.0022 O   0  0  0  0  0  0  0  0  0  0  0  0
   -2.1232   -2.2423    2.4042 C   0  0  0  0  0  0  0  0  0  0  0  0
   -0.3048   -4.0823    2.0245 H   0  0  0  0  0  0  0  0  0  0  0  0
   -1.3830   -2.3724    0.3801 H   0  0  0  0  0  0  0  0  0  0  0  0
   -1.7534   -2.0527    3.4185 H   0  0  0  0  0  0  0  0  0  0  0  0
   -2.8936   -1.4947    2.1882 H   0  0  0  0  0  0  0  0  0  0  0  0
   -2.5964   -3.2301    2.4022 H   0  0  0  0  0  0  0  0  0  0  0  0
   -1.0412    0.1517    0.7482 N   0  0  0  0  0  0  0  0  0  0  0  0
   -0.6079    1.5223    0.6467 C   0  0  2  0  0  0  0  0  0  0  0  0
   -1.4540    2.3613    1.6035 C   0  0  0  0  0  0  0  0  0  0  0  0
   -1.9022    1.9206    2.6601 O   0  0  0  0  0  0  0  0  0  0  0  0
   -0.6435    2.0617   -0.8036 C   0  0  2  0  0  0  0  0  0  0  0  0
    0.3242    1.2985   -1.7350 C   0  0  0  0  0  0  0  0  0  0  0  0
   -0.3658    3.5708   -0.8129 C   0  0  0  0  0  0  0  0  0  0  0  0
    0.1253    1.6190   -3.2109 C   0  0  0  0  0  0  0  0  0  0  0  0
   -1.9022   -0.1128    0.2753 H   0  0  0  0  0  0  0  0  0  0  0  0
    0.4233    1.5395    1.0220 H   0  0  0  0  0  0  0  0  0  0  0  0
   -1.6609    1.9206   -1.1922 H   0  0  0  0  0  0  0  0  0  0  0  0
    1.3589    1.5518   -1.4768 H   0  0  0  0  0  0  0  0  0  0  0  0
    0.2177    0.2165   -1.5932 H   0  0  0  0  0  0  0  0  0  0  0  0
    0.6398    3.7840   -0.4345 H   0  0  0  0  0  0  0  0  0  0  0  0
   -0.4187    3.9771   -1.8276 H   0  0  0  0  0  0  0  0  0  0  0  0
   -1.0850    4.1155   -0.1925 H   0  0  0  0  0  0  0  0  0  0  0  0
   -0.8922    1.3893   -3.5396 H   0  0  0  0  0  0  0  0  0  0  0  0
    0.8104    1.0196   -3.8195 H   0  0  0  0  0  0  0  0  0  0  0  0
    0.3279    2.6750   -3.4150 H   0  0  0  0  0  0  0  0  0  0  0  0
   -1.6185    3.6633    1.1528 N   0  0  0  0  0  0  0  0  0  0  0  0
   -2.3601    4.6670    1.8817 C   0  0  2  0  0  0  0  0  0  0  0  0
   -1.8032    6.0324    1.5007 C   0  0  0  0  0  0  0  0  0  0  0  0
   -0.6724    6.1925    1.0460 O   0  0  0  0  0  0  0  0  0  0  0  0
   -2.2677    4.4419    3.3828 C   0  0  0  0  0  0  0  0  0  0  0  0
   -1.1967    3.9240    0.2664 H   0  0  0  0  0  0  0  0  0  0  0  0
   -3.4021    4.5919    1.5519 H   0  0  0  0  0  0  0  0  0  0  0  0
   -1.2310    4.5133    3.7317 H   0  0  0  0  0  0  0  0  0  0  0  0
   -2.8533    5.1861    3.9325 H   0  0  0  0  0  0  0  0  0  0  0  0
   -2.6411    3.4478    3.6516 H   0  0  0  0  0  0  0  0  0  0  0  0
   -2.7017    7.0557    1.7685 N   0  0  0  0  0  0  0  0  0  0  0  0
   -2.4026    8.4442    1.5066 C   0  0  0  0  0  0  0  0  0  0  0  0
   -3.6245    6.8292    2.1277 H   0  0  0  0  0  0  0  0  0  0  0  0
   -1.9754    8.9044    2.4097 H   0  0  0  0  0  0  0  0  0  0  0  0
   -1.6781    8.5138    0.6819 H   0  0  0  0  0  0  0  0  0  0  0  0
   -3.3267    8.9720    1.2283 H   0  0  0  0  0  0  0  0  0  0  0  0
  1  3  1  0  0  0  0
  1  7  1  0  0  0  0
  1  2  2  0  0  0  0
 37 38  1  0  0  0  0
 38 46  1  0  0  0  0
 38 39  2  0  0  0  0
  8  9  1  0  0  0  0
  9 17  1  0  0  0  0
  9 10  2  0  0  0  0
 18 19  1  0  0  0  0
 19 36  1  0  0  0  0
 19 20  2  0  0  0  0
 22 24  1  0  0  0  0
 37 40  1  0  0  0  0
  8 11  1  0  0  0  0
 21 23  1  0  0  0  0
 46 47  1  0  0  0  0
 21 22  1  0  0  0  0
 36 37  1  0  0  0  0
  7  8  1  0  0  0  0
 18 21  1  0  0  0  0
 17 18  1  0  0  0  0
  3  4  1  0  0  0  0
  3  5  1  0  0  0  0
  3  6  1  0  0  0  0
 24 33  1  0  0  0  0
 24 34  1  0  0  0  0
 24 35  1  0  0  0  0
 40 43  1  0  0  0  0
 40 44  1  0  0  0  0
 40 45  1  0  0  0  0
 11 14  1  0  0  0  0
 11 15  1  0  0  0  0
 11 16  1  0  0  0  0
 23 30  1  0  0  0  0
 23 31  1  0  0  0  0
 23 32  1  0  0  0  0
 47 49  1  0  0  0  0
 47 50  1  0  0  0  0
 47 51  1  0  0  0  0
 22 28  1  0  0  0  0
 22 29  1  0  0  0  0
 37 42  1  0  0  0  0
  8 13  1  0  0  0  0
 18 26  1  0  0  0  0
 21 27  1  0  0  0  0
 46 48  1  0  0  0  0
  7 12  1  0  0  0  0
 36 41  1  0  0  0  0
 17 25  1  0  0  0  0
M  END
$$$$

  -OEChem-05262214473D

 51 50  0     1  0  0  0  0  0999 V2000
    1.3524   -3.0009    1.4091 C   0  0  0  0  0  0  0  0  0  0  0  0
    1.8758   -1.9880    0.9598 O   0  0  0  0  0  0  0  0  0  0  0  0
    2.2030   -4.1782    1.7536 C   0  0  0  0  0  0  0  0  0  0  0  0
    2.3264   -4.8705    0.9053 H   0  0  0  0  0  0  0  0  0  0  0  0
    3.2257   -3.8876    2.0432 H   0  0  0  0  0  0  0  0  0  0  0  0
    1.8327   -4.8004    2.5839 H   0  0  0  0  0  0  0  0  0  0  0  0
    0.0005   -3.1873    1.6465 N   0  0  0  0  0  0  0  0  0  0  0  0
   -0.9949   -2.1807    1.3864 C   0  0  2  0  0  0  0  0  0  0  0  0
   -0.3083   -0.8216    1.4164 C   0  0  0  0  0  0  0  0  0  0  0  0
    0.7533   -0.6191    2.0022 O   0  0  0  0  0  0  0  0  0  0  0  0
   -2.1232   -2.2423    2.4042 C   0  0  0  0  0  0  0  0  0  0  0  0
   -0.3048   -4.0823    2.0245 H   0  0  0  0  0  0  0  0  0  0  0  0
   -1.3830   -2.3724    0.3801 H   0  0  0  0  0  0  0  0  0  0  0  0
   -1.7534   -2.0527    3.4185 H   0  0  0  0  0  0  0  0  0  0  0  0
   -2.8936   -1.4947    2.1882 H   0  0  0  0  0  0  0  0  0  0  0  0
   -2.5964   -3.2301    2.4022 H   0  0  0  0  0  0  0  0  0  0  0  0
   -1.0412    0.1517    0.7482 N   0  0  0  0  0  0  0  0  0  0  0  0
   -0.6079    1.5223    0.6467 C   0  0  2  0  0  0  0  0  0  0  0  0
   -1.4540    2.3613    1.6035 C   0  0  0  0  0  0  0  0  0  0  0  0
   -1.6779    2.0269    2.7652 O   0  0  0  0  0  0  0  0  0  0  0  0
   -0.6435    2.0617   -0.8036 C   0  0  2  0  0  0  0  0  0  0  0  0
    0.3242    1.2985   -1.7350 C   0  0  0  0  0  0  0  0  0  0  0  0
   -0.3658    3.5708   -0.8129 C   0  0  0  0  0  0  0  0  0  0  0  0
    0.1253    1.6190   -3.2109 C   0  0  0  0  0  0  0  0  0  0  0  0
   -1.9022   -0.1128    0.2753 H   0  0  0  0  0  0  0  0  0  0  0  0
    0.4233    1.5395    1.0220 H   0  0  0  0  0  0  0  0  0  0  0  0
   -1.6609    1.9206   -1.1922 H   0  0  0  0  0  0  0  0  0  0  0  0
    1.3589    1.5518   -1.4768 H   0  0  0  0  0  0  0  0  0  0  0  0
    0.2177    0.2165   -1.5932 H   0  0  0  0  0  0  0  0  0  0  0  0
    0.6398    3.7840   -0.4345 H   0  0  0  0  0  0  0  0  0  0  0  0
   -0.4187    3.9771   -1.8276 H   0  0  0  0  0  0  0  0  0  0  0  0
   -1.0850    4.1155   -0.1925 H   0  0  0  0  0  0  0  0  0  0  0  0
   -0.8922    1.3893   -3.5396 H   0  0  0  0  0  0  0  0  0  0  0  0
    0.8104    1.0196   -3.8195 H   0  0  0  0  0  0  0  0  0  0  0  0
    0.3279    2.6750   -3.4150 H   0  0  0  0  0  0  0  0  0  0  0  0
   -1.8978    3.5375    1.0161 N   0  0  0  0  0  0  0  0  0  0  0  0
   -2.7000    4.5178    1.7120 C   0  0  2  0  0  0  0  0  0  0  0  0
   -2.4413    5.8760    1.0735 C   0  0  0  0  0  0  0  0  0  0  0  0
   -1.4241    6.1334    0.4332 O   0  0  0  0  0  0  0  0  0  0  0  0
   -2.3753    4.5447    3.1975 C   0  0  0  0  0  0  0  0  0  0  0  0
   -1.6464    3.7186    0.0489 H   0  0  0  0  0  0  0  0  0  0  0  0
   -3.7473    4.2353    1.5594 H   0  0  0  0  0  0  0  0  0  0  0  0
   -1.3300    4.8257    3.3702 H   0  0  0  0  0  0  0  0  0  0  0  0
   -3.0039    5.2676    3.7279 H   0  0  0  0  0  0  0  0  0  0  0  0
   -2.5335    3.5593    3.6489 H   0  0  0  0  0  0  0  0  0  0  0  0
   -3.4601    6.7802    1.3394 N   0  0  0  0  0  0  0  0  0  0  0  0
   -3.4416    8.1404    0.8542 C   0  0  0  0  0  0  0  0  0  0  0  0
   -4.2752    6.4748    1.8630 H   0  0  0  0  0  0  0  0  0  0  0  0
   -2.9862    8.7945    1.6123 H   0  0  0  0  0  0  0  0  0  0  0  0
   -2.8536    8.1905   -0.0741 H   0  0  0  0  0  0  0  0  0  0  0  0
   -4.4711    8.4724    0.6545 H   0  0  0  0  0  0  0  0  0  0  0  0
  1  3  1  0  0  0  0
  1  7  1  0  0  0  0
  1  2  2  0  0  0  0
 37 38  1  0  0  0  0
 38 46  1  0  0  0  0
 38 39  2  0  0  0  0
  8  9  1  0  0  0  0
  9 17  1  0  0  0  0
  9 10  2  0  0  0  0
 18 19  1  0  0  0  0
 19 36  1  0  0  0  0
 19 20  2  0  0  0  0
 22 24  1  0  0  0  0
 37 40  1  0  0  0  0
  8 11  1  0  0  0  0
 21 23  1  0  0  0  0
 46 47  1  0  0  0  0
 21 22  1  0  0  0  0
 36 37  1  0  0  0  0
  7  8  1  0  0  0  0
 18 21  1  0  0  0  0
 17 18  1  0  0  0  0
  3  4  1  0  0  0  0
  3  5  1  0  0  0  0
  3  6  1  0  0  0  0
 24 33  1  0  0  0  0
 24 34  1  0  0  0  0
 24 35  1  0  0  0  0
 40 43  1  0  0  0  0
 40 44  1  0  0  0  0
 40 45  1  0  0  0  0
 11 14  1  0  0  0  0
 11 15  1  0  0  0  0
 11 16  1  0  0  0  0
 23 30  1  0  0  0  0
 23 31  1  0  0  0  0
 23 32  1  0  0  0  0
 47 49  1  0  0  0  0
 47 50  1  0  0  0  0
 47 51  1  0  0  0  0
 22 28  1  0  0  0  0
 22 29  1  0  0  0  0
 37 42  1  0  0  0  0
  8 13  1  0  0  0  0
 18 26  1  0  0  0  0
 21 27  1  0  0  0  0
 46 48  1  0  0  0  0
  7 12  1  0  0  0  0
 36 41  1  0  0  0  0
 17 25  1  0  0  0  0
M  END
$$$$

  -OEChem-05262214473D

 51 50  0     1  0  0  0  0  0999 V2000
    1.3524   -3.0009    1.4091 C   0  0  0  0  0  0  0  0  0  0  0  0
    1.8758   -1.9880    0.9598 O   0  0  0  0  0  0  0  0  0  0  0  0
    2.2030   -4.1782    1.7536 C   0  0  0  0  0  0  0  0  0  0  0  0
    2.3264   -4.8705    0.9053 H   0  0  0  0  0  0  0  0  0  0  0  0
    3.2257   -3.8876    2.0432 H   0  0  0  0  0  0  0  0  0  0  0  0
    1.8327   -4.8004    2.5839 H   0  0  0  0  0  0  0  0  0  0  0  0
    0.0005   -3.1873    1.6465 N   0  0  0  0  0  0  0  0  0  0  0  0
   -0.9949   -2.1807    1.3864 C   0  0  2  0  0  0  0  0  0  0  0  0
   -0.3083   -0.8216    1.4164 C   0  0  0  0  0  0  0  0  0  0  0  0
    0.7533   -0.6191    2.0022 O   0  0  0  0  0  0  0  0  0  0  0  0
   -2.1232   -2.2423    2.4042 C   0  0  0  0  0  0  0  0  0  0  0  0
   -0.3048   -4.0823    2.0245 H   0  0  0  0  0  0  0  0  0  0  0  0
   -1.3830   -2.3724    0.3801 H   0  0  0  0  0  0  0  0  0  0  0  0
   -1.7534   -2.0527    3.4185 H   0  0  0  0  0  0  0  0  0  0  0  0
   -2.8936   -1.4947    2.1882 H   0  0  0  0  0  0  0  0  0  0  0  0
   -2.5964   -3.2301    2.4022 H   0  0  0  0  0  0  0  0  0  0  0  0
   -1.0412    0.1517    0.7482 N   0  0  0  0  0  0  0  0  0  0  0  0
   -0.6079    1.5223    0.6467 C   0  0  2  0  0  0  0  0  0  0  0  0
   -1.4540    2.3613    1.6035 C   0  0  0  0  0  0  0  0  0  0  0  0
   -1.4636    2.1810    2.8196 O   0  0  0  0  0  0  0  0  0  0  0  0
   -0.6435    2.0617   -0.8036 C   0  0  2  0  0  0  0  0  0  0  0  0
    0.3242    1.2985   -1.7350 C   0  0  0  0  0  0  0  0  0  0  0  0
   -0.3658    3.5708   -0.8129 C   0  0  0  0  0  0  0  0  0  0  0  0
    0.1253    1.6190   -3.2109 C   0  0  0  0  0  0  0  0  0  0  0  0
   -1.9022   -0.1128    0.2753 H   0  0  0  0  0  0  0  0  0  0  0  0
    0.4233    1.5395    1.0220 H   0  0  0  0  0  0  0  0  0  0  0  0
   -1.6609    1.9206   -1.1922 H   0  0  0  0  0  0  0  0  0  0  0  0
    1.3589    1.5518   -1.4768 H   0  0  0  0  0  0  0  0  0  0  0  0
    0.2177    0.2165   -1.5932 H   0  0  0  0  0  0  0  0  0  0  0  0
    0.6398    3.7840   -0.4345 H   0  0  0  0  0  0  0  0  0  0  0  0
   -0.4187    3.9771   -1.8276 H   0  0  0  0  0  0  0  0  0  0  0  0
   -1.0850    4.1155   -0.1925 H   0  0  0  0  0  0  0  0  0  0  0  0
   -0.8922    1.3893   -3.5396 H   0  0  0  0  0  0  0  0  0  0  0  0
    0.8104    1.0196   -3.8195 H   0  0  0  0  0  0  0  0  0  0  0  0
    0.3279    2.6750   -3.4150 H   0  0  0  0  0  0  0  0  0  0  0  0
   -2.1666    3.3511    0.9419 N   0  0  0  0  0  0  0  0  0  0  0  0
   -3.0282    4.2942    1.6178 C   0  0  2  0  0  0  0  0  0  0  0  0
   -3.0930    5.5604    0.7740 C   0  0  0  0  0  0  0  0  0  0  0  0
   -2.2276    5.8668   -0.0435 O   0  0  0  0  0  0  0  0  0  0  0  0
   -2.5223    4.6000    3.0190 C   0  0  0  0  0  0  0  0  0  0  0  0
   -2.0784    3.4161   -0.0679 H   0  0  0  0  0  0  0  0  0  0  0  0
   -4.0220    3.8360    1.6667 H   0  0  0  0  0  0  0  0  0  0  0  0
   -1.5277    5.0597    2.9902 H   0  0  0  0  0  0  0  0  0  0  0  0
   -3.1915    5.2926    3.5401 H   0  0  0  0  0  0  0  0  0  0  0  0
   -2.4480    3.6841    3.6151 H   0  0  0  0  0  0  0  0  0  0  0  0
   -4.2090    6.3297    1.0722 N   0  0  0  0  0  0  0  0  0  0  0  0
   -4.4887    7.5852    0.4153 C   0  0  0  0  0  0  0  0  0  0  0  0
   -4.8839    5.9891    1.7506 H   0  0  0  0  0  0  0  0  0  0  0  0
   -4.0580    8.4103    1.0015 H   0  0  0  0  0  0  0  0  0  0  0  0
   -4.0441    7.5794   -0.5909 H   0  0  0  0  0  0  0  0  0  0  0  0
   -5.5771    7.7221    0.3345 H   0  0  0  0  0  0  0  0  0  0  0  0
  1  3  1  0  0  0  0
  1  7  1  0  0  0  0
  1  2  2  0  0  0  0
 37 38  1  0  0  0  0
 38 46  1  0  0  0  0
 38 39  2  0  0  0  0
  8  9  1  0  0  0  0
  9 17  1  0  0  0  0
  9 10  2  0  0  0  0
 18 19  1  0  0  0  0
 19 36  1  0  0  0  0
 19 20  2  0  0  0  0
 22 24  1  0  0  0  0
 37 40  1  0  0  0  0
  8 11  1  0  0  0  0
 21 23  1  0  0  0  0
 46 47  1  0  0  0  0
 21 22  1  0  0  0  0
 36 37  1  0  0  0  0
  7  8  1  0  0  0  0
 18 21  1  0  0  0  0
 17 18  1  0  0  0  0
  3  4  1  0  0  0  0
  3  5  1  0  0  0  0
  3  6  1  0  0  0  0
 24 33  1  0  0  0  0
 24 34  1  0  0  0  0
 24 35  1  0  0  0  0
 40 43  1  0  0  0  0
 40 44  1  0  0  0  0
 40 45  1  0  0  0  0
 11 14  1  0  0  0  0
 11 15  1  0  0  0  0
 11 16  1  0  0  0  0
 23 30  1  0  0  0  0
 23 31  1  0  0  0  0
 23 32  1  0  0  0  0
 47 49  1  0  0  0  0
 47 50  1  0  0  0  0
 47 51  1  0  0  0  0
 22 28  1  0  0  0  0
 22 29  1  0  0  0  0
 37 42  1  0  0  0  0
  8 13  1  0  0  0  0
 18 26  1  0  0  0  0
 21 27  1  0  0  0  0
 46 48  1  0  0  0  0
  7 12  1  0  0  0  0
 36 41  1  0  0  0  0
 17 25  1  0  0  0  0
M  END
$$$$

  -OEChem-05262214473D

 51 50  0     1  0  0  0  0  0999 V2000
    1.3524   -3.0009    1.4091 C   0  0  0  0  0  0  0  0  0  0  0  0
    1.8758   -1.9880    0.9598 O   0  0  0  0  0  0  0  0  0  0  0  0
    2.2030   -4.1782    1.7536 C   0  0  0  0  0  0  0  0  0  0  0  0
    2.3264   -4.8705    0.9053 H   0  0  0  0  0  0  0  0  0  0  0  0
    3.2257   -3.8876    2.0432 H   0  0  0  0  0  0  0  0  0  0  0  0
    1.8327   -4.8004    2.5839 H   0  0  0  0  0  0  0  0  0  0  0  0
    0.0005   -3.1873    1.6465 N   0  0  0  0  0  0  0  0  0  0  0  0
   -0.9949   -2.1807    1.3864 C   0  0  2  0  0  0  0  0  0  0  0  0
   -0.3083   -0.8216    1.4164 C   0  0  0  0  0  0  0  0  0  0  0  0
    0.7533   -0.6191    2.0022 O   0  0  0  0  0  0  0  0  0  0  0  0
   -2.1232   -2.2423    2.4042 C   0  0  0  0  0  0  0  0  0  0  0  0
   -0.3048   -4.0823    2.0245 H   0  0  0  0  0  0  0  0  0  0  0  0
   -1.3830   -2.3724    0.3801 H   0  0  0  0  0  0  0  0  0  0  0  0
   -1.7534   -2.0527    3.4185 H   0  0  0  0  0  0  0  0  0  0  0  0
   -2.8936   -1.4947    2.1882 H   0  0  0  0  0  0  0  0  0  0  0  0
   -2.5964   -3.2301    2.4022 H   0  0  0  0  0  0  0  0  0  0  0  0
   -1.0412    0.1517    0.7482 N   0  0  0  0  0  0  0  0  0  0  0  0
   -0.6079    1.5223    0.6467 C   0  0  2  0  0  0  0  0  0  0  0  0
   -1.4540    2.3613    1.6035 C   0  0  0  0  0  0  0  0  0  0  0  0
   -1.2739    2.3723    2.8196 O   0  0  0  0  0  0  0  0  0  0  0  0
   -0.6435    2.0617   -0.8036 C   0  0  2  0  0  0  0  0  0  0  0  0
    0.3242    1.2985   -1.7350 C   0  0  0  0  0  0  0  0  0  0  0  0
   -0.3658    3.5708   -0.8129 C   0  0  0  0  0  0  0  0  0  0  0  0
    0.1253    1.6190   -3.2109 C   0  0  0  0  0  0  0  0  0  0  0  0
   -1.9022   -0.1128    0.2753 H   0  0  0  0  0  0  0  0  0  0  0  0
    0.4233    1.5395    1.0220 H   0  0  0  0  0  0  0  0  0  0  0  0
   -1.6609    1.9206   -1.1922 H   0  0  0  0  0  0  0  0  0  0  0  0
    1.3589    1.5518   -1.4768 H   0  0  0  0  0  0  0  0  0  0  0  0
    0.2177    0.2165   -1.5932 H   0  0  0  0  0  0  0  0  0  0  0  0
    0.6398    3.7840   -0.4345 H   0  0  0  0  0  0  0  0  0  0  0  0
   -0.4187    3.9771   -1.8276 H   0  0  0  0  0  0  0  0  0  0  0  0
   -1.0850    4.1155   -0.1925 H   0  0  0  0  0  0  0  0  0  0  0  0
   -0.8922    1.3893   -3.5396 H   0  0  0  0  0  0  0  0  0  0  0  0
    0.8104    1.0196   -3.8195 H   0  0  0  0  0  0  0  0  0  0  0  0
    0.3279    2.6750   -3.4150 H   0  0  0  0  0  0  0  0  0  0  0  0
   -2.4067    3.1169    0.9350 N   0  0  0  0  0  0  0  0  0  0  0  0
   -3.3224    4.0116    1.6055 C   0  0  2  0  0  0  0  0  0  0  0  0
   -3.7139    5.1071    0.6225 C   0  0  0  0  0  0  0  0  0  0  0  0
   -3.0283    5.4107   -0.3515 O   0  0  0  0  0  0  0  0  0  0  0  0
   -2.6986    4.6041    2.8595 C   0  0  0  0  0  0  0  0  0  0  0  0
   -2.4633    3.0372   -0.0760 H   0  0  0  0  0  0  0  0  0  0  0  0
   -4.2073    3.4211    1.8666 H   0  0  0  0  0  0  0  0  0  0  0  0
   -1.8105    5.1993    2.6178 H   0  0  0  0  0  0  0  0  0  0  0  0
   -3.4036    5.2594    3.3817 H   0  0  0  0  0  0  0  0  0  0  0  0
   -2.3905    3.8136    3.5523 H   0  0  0  0  0  0  0  0  0  0  0  0
   -4.8973    5.7350    0.9851 N   0  0  0  0  0  0  0  0  0  0  0  0
   -5.4724    6.8163    0.2196 C   0  0  0  0  0  0  0  0  0  0  0  0
   -5.4092    5.4053    1.7981 H   0  0  0  0  0  0  0  0  0  0  0  0
   -5.1178    7.7780    0.6188 H   0  0  0  0  0  0  0  0  0  0  0  0
   -5.1685    6.7221   -0.8334 H   0  0  0  0  0  0  0  0  0  0  0  0
   -6.5693    6.7723    0.2900 H   0  0  0  0  0  0  0  0  0  0  0  0
  1  3  1  0  0  0  0
  1  7  1  0  0  0  0
  1  2  2  0  0  0  0
 37 38  1  0  0  0  0
 38 46  1  0  0  0  0
 38 39  2  0  0  0  0
  8  9  1  0  0  0  0
  9 17  1  0  0  0  0
  9 10  2  0  0  0  0
 18 19  1  0  0  0  0
 19 36  1  0  0  0  0
 19 20  2  0  0  0  0
 22 24  1  0  0  0  0
 37 40  1  0  0  0  0
  8 11  1  0  0  0  0
 21 23  1  0  0  0  0
 46 47  1  0  0  0  0
 21 22  1  0  0  0  0
 36 37  1  0  0  0  0
  7  8  1  0  0  0  0
 18 21  1  0  0  0  0
 17 18  1  0  0  0  0
  3  4  1  0  0  0  0
  3  5  1  0  0  0  0
  3  6  1  0  0  0  0
 24 33  1  0  0  0  0
 24 34  1  0  0  0  0
 24 35  1  0  0  0  0
 40 43  1  0  0  0  0
 40 44  1  0  0  0  0
 40 45  1  0  0  0  0
 11 14  1  0  0  0  0
 11 15  1  0  0  0  0
 11 16  1  0  0  0  0
 23 30  1  0  0  0  0
 23 31  1  0  0  0  0
 23 32  1  0  0  0  0
 47 49  1  0  0  0  0
 47 50  1  0  0  0  0
 47 51  1  0  0  0  0
 22 28  1  0  0  0  0
 22 29  1  0  0  0  0
 37 42  1  0  0  0  0
  8 13  1  0  0  0  0
 18 26  1  0  0  0  0
 21 27  1  0  0  0  0
 46 48  1  0  0  0  0
  7 12  1  0  0  0  0
 36 41  1  0  0  0  0
 17 25  1  0  0  0  0
M  END
$$$$

  -OEChem-05262214473D

 51 50  0     1  0  0  0  0  0999 V2000
    1.3524   -3.0009    1.4091 C   0  0  0  0  0  0  0  0  0  0  0  0
    1.8758   -1.9880    0.9598 O   0  0  0  0  0  0  0  0  0  0  0  0
    2.2030   -4.1782    1.7536 C   0  0  0  0  0  0  0  0  0  0  0  0
    2.3264   -4.8705    0.9053 H   0  0  0  0  0  0  0  0  0  0  0  0
    3.2257   -3.8876    2.0432 H   0  0  0  0  0  0  0  0  0  0  0  0
    1.8327   -4.8004    2.5839 H   0  0  0  0  0  0  0  0  0  0  0  0
    0.0005   -3.1873    1.6465 N   0  0  0  0  0  0  0  0  0  0  0  0
   -0.9949   -2.1807    1.3864 C   0  0  2  0  0  0  0  0  0  0  0  0
   -0.3083   -0.8216    1.4164 C   0  0  0  0  0  0  0  0  0  0  0  0
    0.7533   -0.6191    2.0022 O   0  0  0  0  0  0  0  0  0  0  0  0
   -2.1232   -2.2423    2.4042 C   0  0  0  0  0  0  0  0  0  0  0  0
   -0.3048   -4.0823    2.0245 H   0  0  0  0  0  0  0  0  0  0  0  0
   -1.3830   -2.3724    0.3801 H   0  0  0  0  0  0  0  0  0  0  0  0
   -1.7534   -2.0527    3.4185 H   0  0  0  0  0  0  0  0  0  0  0  0
   -2.8936   -1.4947    2.1882 H   0  0  0  0  0  0  0  0  0  0  0  0
   -2.5964   -3.2301    2.4022 H   0  0  0  0  0  0  0  0  0  0  0  0
   -1.0412    0.1517    0.7482 N   0  0  0  0  0  0  0  0  0  0  0  0
   -0.6079    1.5223    0.6467 C   0  0  2  0  0  0  0  0  0  0  0  0
   -1.4540    2.3613    1.6035 C   0  0  0  0  0  0  0  0  0  0  0  0
   -1.1216    2.5878    2.7653 O   0  0  0  0  0  0  0  0  0  0  0  0
   -0.6435    2.0617   -0.8036 C   0  0  2  0  0  0  0  0  0  0  0  0
    0.3242    1.2985   -1.7350 C   0  0  0  0  0  0  0  0  0  0  0  0
   -0.3658    3.5708   -0.8129 C   0  0  0  0  0  0  0  0  0  0  0  0
    0.1253    1.6190   -3.2109 C   0  0  0  0  0  0  0  0  0  0  0  0
   -1.9022   -0.1128    0.2753 H   0  0  0  0  0  0  0  0  0  0  0  0
    0.4233    1.5395    1.0220 H   0  0  0  0  0  0  0  0  0  0  0  0
   -1.6609    1.9206   -1.1922 H   0  0  0  0  0  0  0  0  0  0  0  0
    1.3589    1.5518   -1.4768 H   0  0  0  0  0  0  0  0  0  0  0  0
    0.2177    0.2165   -1.5932 H   0  0  0  0  0  0  0  0  0  0  0  0
    0.6398    3.7840   -0.4345 H   0  0  0  0  0  0  0  0  0  0  0  0
   -0.4187    3.9771   -1.8276 H   0  0  0  0  0  0  0  0  0  0  0  0
   -1.0850    4.1155   -0.1925 H   0  0  0  0  0  0  0  0  0  0  0  0
   -0.8922    1.3893   -3.5396 H   0  0  0  0  0  0  0  0  0  0  0  0
    0.8104    1.0196   -3.8195 H   0  0  0  0  0  0  0  0  0  0  0  0
    0.3279    2.6750   -3.4150 H   0  0  0  0  0  0  0  0  0  0  0  0
   -2.6015    2.8508    0.9961 N   0  0  0  0  0  0  0  0  0  0  0  0
   -3.5625    3.6892    1.6759 C   0  0  2  0  0  0  0  0  0  0  0  0
   -4.2617    4.5468    0.6294 C   0  0  0  0  0  0  0  0  0  0  0  0
   -3.7716    4.7962   -0.4700 O   0  0  0  0  0  0  0  0  0  0  0  0
   -2.8923    4.5566    2.7300 C   0  0  0  0  0  0  0  0  0  0  0  0
   -2.7748    2.6076    0.0253 H   0  0  0  0  0  0  0  0  0  0  0  0
   -4.2907    3.0189    2.1455 H   0  0  0  0  0  0  0  0  0  0  0  0
   -2.1592    5.2348    2.2783 H   0  0  0  0  0  0  0  0  0  0  0  0
   -3.6255    5.1703    3.2636 H   0  0  0  0  0  0  0  0  0  0  0  0
   -2.3649    3.9390    3.4650 H   0  0  0  0  0  0  0  0  0  0  0  0
   -5.4782    5.0365    1.0840 N   0  0  0  0  0  0  0  0  0  0  0  0
   -6.3259    5.8862    0.2806 C   0  0  0  0  0  0  0  0  0  0  0  0
   -5.8152    4.7630    2.0023 H   0  0  0  0  0  0  0  0  0  0  0  0
   -6.0934    6.9406    0.4904 H   0  0  0  0  0  0  0  0  0  0  0  0
   -6.1501    5.6771   -0.7850 H   0  0  0  0  0  0  0  0  0  0  0  0
   -7.3801    5.6877    0.5241 H   0  0  0  0  0  0  0  0  0  0  0  0
  1  3  1  0  0  0  0
  1  7  1  0  0  0  0
  1  2  2  0  0  0  0
 37 38  1  0  0  0  0
 38 46  1  0  0  0  0
 38 39  2  0  0  0  0
  8  9  1  0  0  0  0
  9 17  1  0  0  0  0
  9 10  2  0  0  0  0
 18 19  1  0  0  0  0
 19 36  1  0  0  0  0
 19 20  2  0  0  0  0
 22 24  1  0  0  0  0
 37 40  1  0  0  0  0
  8 11  1  0  0  0  0
 21 23  1  0  0  0  0
 46 47  1  0  0  0  0
 21 22  1  0  0  0  0
 36 37  1  0  0  0  0
  7  8  1  0  0  0  0
 18 21  1  0  0  0  0
 17 18  1  0  0  0  0
  3  4  1  0  0  0  0
  3  5  1  0  0  0  0
  3  6  1  0  0  0  0
 24 33  1  0  0  0  0
 24 34  1  0  0  0  0
 24 35  1  0  0  0  0
 40 43  1  0  0  0  0
 40 44  1  0  0  0  0
 40 45  1  0  0  0  0
 11 14  1  0  0  0  0
 11 15  1  0  0  0  0
 11 16  1  0  0  0  0
 23 30  1  0  0  0  0
 23 31  1  0  0  0  0
 23 32  1  0  0  0  0
 47 49  1  0  0  0  0
 47 50  1  0  0  0  0
 47 51  1  0  0  0  0
 22 28  1  0  0  0  0
 22 29  1  0  0  0  0
 37 42  1  0  0  0  0
  8 13  1  0  0  0  0
 18 26  1  0  0  0  0
 21 27  1  0  0  0  0
 46 48  1  0  0  0  0
  7 12  1  0  0  0  0
 36 41  1  0  0  0  0
 17 25  1  0  0  0  0
M  END
$$$$

  -OEChem-05262214473D

 51 50  0     1  0  0  0  0  0999 V2000
    1.3524   -3.0009    1.4091 C   0  0  0  0  0  0  0  0  0  0  0  0
    1.8758   -1.9880    0.9598 O   0  0  0  0  0  0  0  0  0  0  0  0
    2.2030   -4.1782    1.7536 C   0  0  0  0  0  0  0  0  0  0  0  0
    2.3264   -4.8705    0.9053 H   0  0  0  0  0  0  0  0  0  0  0  0
    3.2257   -3.8876    2.0432 H   0  0  0  0  0  0  0  0  0  0  0  0
    1.8327   -4.8004    2.5839 H   0  0  0  0  0  0  0  0  0  0  0  0
    0.0005   -3.1873    1.6465 N   0  0  0  0  0  0  0  0  0  0  0  0
   -0.9949   -2.1807    1.3864 C   0  0  2  0  0  0  0  0  0  0  0  0
   -0.3083   -0.8216    1.4164 C   0  0  0  0  0  0  0  0  0  0  0  0
    0.7533   -0.6191    2.0022 O   0  0  0  0  0  0  0  0  0  0  0  0
   -2.1232   -2.2423    2.4042 C   0  0  0  0  0  0  0  0  0  0  0  0
   -0.3048   -4.0823    2.0245 H   0  0  0  0  0  0  0  0  0  0  0  0
   -1.3830   -2.3724    0.3801 H   0  0  0  0  0  0  0  0  0  0  0  0
   -1.7534   -2.0527    3.4185 H   0  0  0  0  0  0  0  0  0  0  0  0
   -2.8936   -1.4947    2.1882 H   0  0  0  0  0  0  0  0  0  0  0  0
   -2.5964   -3.2301    2.4022 H   0  0  0  0  0  0  0  0  0  0  0  0
   -1.0412    0.1517    0.7482 N   0  0  0  0  0  0  0  0  0  0  0  0
   -0.6079    1.5223    0.6467 C   0  0  2  0  0  0  0  0  0  0  0  0
   -1.4540    2.3613    1.6035 C   0  0  0  0  0  0  0  0  0  0  0  0
   -1.0171    2.8130    2.6603 O   0  0  0  0  0  0  0  0  0  0  0  0
   -0.6435    2.0617   -0.8036 C   0  0  2  0  0  0  0  0  0  0  0  0
    0.3242    1.2985   -1.7350 C   0  0  0  0  0  0  0  0  0  0  0  0
   -0.3658    3.5708   -0.8129 C   0  0  0  0  0  0  0  0  0  0  0  0
    0.1253    1.6190   -3.2109 C   0  0  0  0  0  0  0  0  0  0  0  0
   -1.9022   -0.1128    0.2753 H   0  0  0  0  0  0  0  0  0  0  0  0
    0.4233    1.5395    1.0220 H   0  0  0  0  0  0  0  0  0  0  0  0
   -1.6609    1.9206   -1.1922 H   0  0  0  0  0  0  0  0  0  0  0  0
    1.3589    1.5518   -1.4768 H   0  0  0  0  0  0  0  0  0  0  0  0
    0.2177    0.2165   -1.5932 H   0  0  0  0  0  0  0  0  0  0  0  0
    0.6398    3.7840   -0.4345 H   0  0  0  0  0  0  0  0  0  0  0  0
   -0.4187    3.9771   -1.8276 H   0  0  0  0  0  0  0  0  0  0  0  0
   -1.0850    4.1155   -0.1925 H   0  0  0  0  0  0  0  0  0  0  0  0
   -0.8922    1.3893   -3.5396 H   0  0  0  0  0  0  0  0  0  0  0  0
    0.8104    1.0196   -3.8195 H   0  0  0  0  0  0  0  0  0  0  0  0
    0.3279    2.6750   -3.4150 H   0  0  0  0  0  0  0  0  0  0  0  0
   -2.7379    2.5709    1.1209 N   0  0  0  0  0  0  0  0  0  0  0  0
   -3.7322    3.3489    1.8242 C   0  0  2  0  0  0  0  0  0  0  0  0
   -4.6991    3.9179    0.7942 C   0  0  0  0  0  0  0  0  0  0  0  0
   -4.4068    4.0653   -0.3907 O   0  0  0  0  0  0  0  0  0  0  0  0
   -3.0900    4.4607    2.6391 C   0  0  0  0  0  0  0  0  0  0  0  0
   -2.9916    2.1567    0.2288 H   0  0  0  0  0  0  0  0  0  0  0  0
   -4.2665    2.6570    2.4843 H   0  0  0  0  0  0  0  0  0  0  0  0
   -2.5501    5.1640    1.9947 H   0  0  0  0  0  0  0  0  0  0  0  0
   -3.8422    5.0313    3.1938 H   0  0  0  0  0  0  0  0  0  0  0  0
   -2.3729    4.0518    3.3591 H   0  0  0  0  0  0  0  0  0  0  0  0
   -5.9120    4.2818    1.3621 N   0  0  0  0  0  0  0  0  0  0  0  0
   -6.9909    4.8581    0.5940 C   0  0  0  0  0  0  0  0  0  0  0  0
   -6.0743    4.1060    2.3493 H   0  0  0  0  0  0  0  0  0  0  0  0
   -6.9183    5.9553    0.6250 H   0  0  0  0  0  0  0  0  0  0  0  0
   -6.9220    4.5155   -0.4490 H   0  0  0  0  0  0  0  0  0  0  0  0
   -7.9542    4.5423    1.0209 H   0  0  0  0  0  0  0  0  0  0  0  0
  1  3  1  0  0  0  0
  1  7  1  0  0  0  0
  1  2  2  0  0  0  0
 37 38  1  0  0  0  0
 38 46  1  0  0  0  0
 38 39  2  0  0  0  0
  8  9  1  0  0  0  0
  9 17  1  0  0  0  0
  9 10  2  0  0  0  0
 18 19  1  0  0  0  0
 19 36  1  0  0  0  0
 19 20  2  0  0  0  0
 22 24  1  0  0  0  0
 37 40  1  0  0  0  0
  8 11  1  0  0  0  0
 21 23  1  0  0  0  0
 46 47  1  0  0  0  0
 21 22  1  0  0  0  0
 36 37  1  0  0  0  0
  7  8  1  0  0  0  0
 18 21  1  0  0  0  0
 17 18  1  0  0  0  0
  3  4  1  0  0  0  0
  3  5  1  0  0  0  0
  3  6  1  0  0  0  0
 24 33  1  0  0  0  0
 24 34  1  0  0  0  0
 24 35  1  0  0  0  0
 40 43  1  0  0  0  0
 40 44  1  0  0  0  0
 40 45  1  0  0  0  0
 11 14  1  0  0  0  0
 11 15  1  0  0  0  0
 11 16  1  0  0  0  0
 23 30  1  0  0  0  0
 23 31  1  0  0  0  0
 23 32  1  0  0  0  0
 47 49  1  0  0  0  0
 47 50  1  0  0  0  0
 47 51  1  0  0  0  0
 22 28  1  0  0  0  0
 22 29  1  0  0  0  0
 37 42  1  0  0  0  0
  8 13  1  0  0  0  0
 18 26  1  0  0  0  0
 21 27  1  0  0  0  0
 46 48  1  0  0  0  0
  7 12  1  0  0  0  0
 36 41  1  0  0  0  0
 17 25  1  0  0  0  0
M  END
$$$$

  -OEChem-05262214473D

 51 50  0     1  0  0  0  0  0999 V2000
    1.3524   -3.0009    1.4091 C   0  0  0  0  0  0  0  0  0  0  0  0
    1.8758   -1.9880    0.9598 O   0  0  0  0  0  0  0  0  0  0  0  0
    2.2030   -4.1782    1.7536 C   0  0  0  0  0  0  0  0  0  0  0  0
    2.3264   -4.8705    0.9053 H   0  0  0  0  0  0  0  0  0  0  0  0
    3.2257   -3.8876    2.0432 H   0  0  0  0  0  0  0  0  0  0  0  0
    1.8327   -4.8004    2.5839 H   0  0  0  0  0  0  0  0  0  0  0  0
    0.0005   -3.1873    1.6465 N   0  0  0  0  0  0  0  0  0  0  0  0
   -0.9949   -2.1807    1.3864 C   0  0  2  0  0  0  0  0  0  0  0  0
   -0.3083   -0.8216    1.4164 C   0  0  0  0  0  0  0  0  0  0  0  0
    0.7533   -0.6191    2.0022 O   0  0  0  0  0  0  0  0  0  0  0  0
   -2.1232   -2.2423    2.4042 C   0  0  0  0  0  0  0  0  0  0  0  0
   -0.3048   -4.0823    2.0245 H   0  0  0  0  0  0  0  0  0  0  0  0
   -1.3830   -2.3724    0.3801 H   0  0  0  0  0  0  0  0  0  0  0  0
   -1.7534   -2.0527    3.4185 H   0  0  0  0  0  0  0  0  0  0  0  0
   -2.8936   -1.4947    2.1882 H   0  0  0  0  0  0  0  0  0  0  0  0
   -2.5964   -3.2301    2.4022 H   0  0  0  0  0  0  0  0  0  0  0  0
   -1.0412    0.1517    0.7482 N   0  0  0  0  0  0  0  0  0  0  0  0
   -0.6079    1.5223    0.6467 C   0  0  2  0  0  0  0  0  0  0  0  0
   -1.4540    2.3613    1.6035 C   0  0  0  0  0  0  0  0  0  0  0  0
   -0.9676    3.0323    2.5117 O   0  0  0  0  0  0  0  0  0  0  0  0
   -0.6435    2.0617   -0.8036 C   0  0  2  0  0  0  0  0  0  0  0  0
    0.3242    1.2985   -1.7350 C   0  0  0  0  0  0  0  0  0  0  0  0
   -0.3658    3.5708   -0.8129 C   0  0  0  0  0  0  0  0  0  0  0  0
    0.1253    1.6190   -3.2109 C   0  0  0  0  0  0  0  0  0  0  0  0
   -1.9022   -0.1128    0.2753 H   0  0  0  0  0  0  0  0  0  0  0  0
    0.4233    1.5395    1.0220 H   0  0  0  0  0  0  0  0  0  0  0  0
   -1.6609    1.9206   -1.1922 H   0  0  0  0  0  0  0  0  0  0  0  0
    1.3589    1.5518   -1.4768 H   0  0  0  0  0  0  0  0  0  0  0  0
    0.2177    0.2165   -1.5932 H   0  0  0  0  0  0  0  0  0  0  0  0
    0.6398    3.7840   -0.4345 H   0  0  0  0  0  0  0  0  0  0  0  0
   -0.4187    3.9771   -1.8276 H   0  0  0  0  0  0  0  0  0  0  0  0
   -1.0850    4.1155   -0.1925 H   0  0  0  0  0  0  0  0  0  0  0  0
   -0.8922    1.3893   -3.5396 H   0  0  0  0  0  0  0  0  0  0  0  0
    0.8104    1.0196   -3.8195 H   0  0  0  0  0  0  0  0  0  0  0  0
    0.3279    2.6750   -3.4150 H   0  0  0  0  0  0  0  0  0  0  0  0
   -2.8066    2.2963    1.3009 N   0  0  0  0  0  0  0  0  0  0  0  0
   -3.8199    3.0140    2.0403 C   0  0  2  0  0  0  0  0  0  0  0  0
   -4.9963    3.2631    1.1056 C   0  0  0  0  0  0  0  0  0  0  0  0
   -4.8906    3.2676   -0.1191 O   0  0  0  0  0  0  0  0  0  0  0  0
   -3.2784    4.3231    2.5933 C   0  0  0  0  0  0  0  0  0  0  0  0
   -3.0992    1.7153    0.5209 H   0  0  0  0  0  0  0  0  0  0  0  0
   -4.1362    2.3598    2.8601 H   0  0  0  0  0  0  0  0  0  0  0  0
   -2.9564    4.9917    1.7865 H   0  0  0  0  0  0  0  0  0  0  0  0
   -4.0389    4.8520    3.1771 H   0  0  0  0  0  0  0  0  0  0  0  0
   -2.4139    4.1443    3.2417 H   0  0  0  0  0  0  0  0  0  0  0  0
   -6.1693    3.5224    1.8006 N   0  0  0  0  0  0  0  0  0  0  0  0
   -7.4220    3.8023    1.1386 C   0  0  0  0  0  0  0  0  0  0  0  0
   -6.1687    3.4792    2.8154 H   0  0  0  0  0  0  0  0  0  0  0  0
   -7.5364    4.8891    1.0134 H   0  0  0  0  0  0  0  0  0  0  0  0
   -7.4316    3.3166    0.1517 H   0  0  0  0  0  0  0  0  0  0  0  0
   -8.2525    3.4140    1.7464 H   0  0  0  0  0  0  0  0  0  0  0  0
  1  3  1  0  0  0  0
  1  7  1  0  0  0  0
  1  2  2  0  0  0  0
 37 38  1  0  0  0  0
 38 46  1  0  0  0  0
 38 39  2  0  0  0  0
  8  9  1  0  0  0  0
  9 17  1  0  0  0  0
  9 10  2  0  0  0  0
 18 19  1  0  0  0  0
 19 36  1  0  0  0  0
 19 20  2  0  0  0  0
 22 24  1  0  0  0  0
 37 40  1  0  0  0  0
  8 11  1  0  0  0  0
 21 23  1  0  0  0  0
 46 47  1  0  0  0  0
 21 22  1  0  0  0  0
 36 37  1  0  0  0  0
  7  8  1  0  0  0  0
 18 21  1  0  0  0  0
 17 18  1  0  0  0  0
  3  4  1  0  0  0  0
  3  5  1  0  0  0  0
  3  6  1  0  0  0  0
 24 33  1  0  0  0  0
 24 34  1  0  0  0  0
 24 35  1  0  0  0  0
 40 43  1  0  0  0  0
 40 44  1  0  0  0  0
 40 45  1  0  0  0  0
 11 14  1  0  0  0  0
 11 15  1  0  0  0  0
 11 16  1  0  0  0  0
 23 30  1  0  0  0  0
 23 31  1  0  0  0  0
 23 32  1  0  0  0  0
 47 49  1  0  0  0  0
 47 50  1  0  0  0  0
 47 51  1  0  0  0  0
 22 28  1  0  0  0  0
 22 29  1  0  0  0  0
 37 42  1  0  0  0  0
  8 13  1  0  0  0  0
 18 26  1  0  0  0  0
 21 27  1  0  0  0  0
 46 48  1  0  0  0  0
  7 12  1  0  0  0  0
 36 41  1  0  0  0  0
 17 25  1  0  0  0  0
M  END
$$$$

  -OEChem-05262214473D

 51 50  0     1  0  0  0  0  0999 V2000
    1.3524   -3.0009    1.4091 C   0  0  0  0  0  0  0  0  0  0  0  0
    1.8758   -1.9880    0.9598 O   0  0  0  0  0  0  0  0  0  0  0  0
    2.2030   -4.1782    1.7536 C   0  0  0  0  0  0  0  0  0  0  0  0
    2.3264   -4.8705    0.9053 H   0  0  0  0  0  0  0  0  0  0  0  0
    3.2257   -3.8876    2.0432 H   0  0  0  0  0  0  0  0  0  0  0  0
    1.8327   -4.8004    2.5839 H   0  0  0  0  0  0  0  0  0  0  0  0
    0.0005   -3.1873    1.6465 N   0  0  0  0  0  0  0  0  0  0  0  0
   -0.9949   -2.1807    1.3864 C   0  0  2  0  0  0  0  0  0  0  0  0
   -0.3083   -0.8216    1.4164 C   0  0  0  0  0  0  0  0  0  0  0  0
    0.7533   -0.6191    2.0022 O   0  0  0  0  0  0  0  0  0  0  0  0
   -2.1232   -2.2423    2.4042 C   0  0  0  0  0  0  0  0  0  0  0  0
   -0.3048   -4.0823    2.0245 H   0  0  0  0  0  0  0  0  0  0  0  0
   -1.3830   -2.3724    0.3801 H   0  0  0  0  0  0  0  0  0  0  0  0
   -1.7534   -2.0527    3.4185 H   0  0  0  0  0  0  0  0  0  0  0  0
   -2.8936   -1.4947    2.1882 H   0  0  0  0  0  0  0  0  0  0  0  0
   -2.5964   -3.2301    2.4022 H   0  0  0  0  0  0  0  0  0  0  0  0
   -1.0412    0.1517    0.7482 N   0  0  0  0  0  0  0  0  0  0  0  0
   -0.6079    1.5223    0.6467 C   0  0  2  0  0  0  0  0  0  0  0  0
   -1.4540    2.3613    1.6035 C   0  0  0  0  0  0  0  0  0  0  0  0
   -0.9765    3.2308    2.3298 O   0  0  0  0  0  0  0  0  0  0  0  0
   -0.6435    2.0617   -0.8036 C   0  0  2  0  0  0  0  0  0  0  0  0
    0.3242    1.2985   -1.7350 C   0  0  0  0  0  0  0  0  0  0  0  0
   -0.3658    3.5708   -0.8129 C   0  0  0  0  0  0  0  0  0  0  0  0
    0.1253    1.6190   -3.2109 C   0  0  0  0  0  0  0  0  0  0  0  0
   -1.9022   -0.1128    0.2753 H   0  0  0  0  0  0  0  0  0  0  0  0
    0.4233    1.5395    1.0220 H   0  0  0  0  0  0  0  0  0  0  0  0
   -1.6609    1.9206   -1.1922 H   0  0  0  0  0  0  0  0  0  0  0  0
    1.3589    1.5518   -1.4768 H   0  0  0  0  0  0  0  0  0  0  0  0
    0.2177    0.2165   -1.5932 H   0  0  0  0  0  0  0  0  0  0  0  0
    0.6398    3.7840   -0.4345 H   0  0  0  0  0  0  0  0  0  0  0  0
   -0.4187    3.9771   -1.8276 H   0  0  0  0  0  0  0  0  0  0  0  0
   -1.0850    4.1155   -0.1925 H   0  0  0  0  0  0  0  0  0  0  0  0
   -0.8922    1.3893   -3.5396 H   0  0  0  0  0  0  0  0  0  0  0  0
    0.8104    1.0196   -3.8195 H   0  0  0  0  0  0  0  0  0  0  0  0
    0.3279    2.6750   -3.4150 H   0  0  0  0  0  0  0  0  0  0  0  0
   -2.8029    2.0457    1.5240 N   0  0  0  0  0  0  0  0  0  0  0  0
   -3.8196    2.7073    2.3095 C   0  0  2  0  0  0  0  0  0  0  0  0
   -5.1329    2.6271    1.5425 C   0  0  0  0  0  0  0  0  0  0  0  0
   -5.1901    2.4577    0.3263 O   0  0  0  0  0  0  0  0  0  0  0  0
   -3.4446    4.1531    2.5954 C   0  0  0  0  0  0  0  0  0  0  0  0
   -3.0899    1.3133    0.8816 H   0  0  0  0  0  0  0  0  0  0  0  0
   -3.9089    2.1477    3.2471 H   0  0  0  0  0  0  0  0  0  0  0  0
   -3.3506    4.7295    1.6679 H   0  0  0  0  0  0  0  0  0  0  0  0
   -4.2022    4.6445    3.2147 H   0  0  0  0  0  0  0  0  0  0  0  0
   -2.4852    4.2102    3.1209 H   0  0  0  0  0  0  0  0  0  0  0  0
   -6.2323    2.8100    2.3695 N   0  0  0  0  0  0  0  0  0  0  0  0
   -7.5900    2.7906    1.8772 C   0  0  0  0  0  0  0  0  0  0  0  0
   -6.0922    2.9252    3.3689 H   0  0  0  0  0  0  0  0  0  0  0  0
   -7.9053    3.8148    1.6292 H   0  0  0  0  0  0  0  0  0  0  0  0
   -7.6442    2.1620    0.9761 H   0  0  0  0  0  0  0  0  0  0  0  0
   -8.2548    2.3797    2.6514 H   0  0  0  0  0  0  0  0  0  0  0  0
  1  3  1  0  0  0  0
  1  7  1  0  0  0  0
  1  2  2  0  0  0  0
 37 38  1  0  0  0  0
 38 46  1  0  0  0  0
 38 39  2  0  0  0  0
  8  9  1  0  0  0  0
  9 17  1  0  0  0  0
  9 10  2  0  0  0  0
 18 19  1  0  0  0  0
 19 36  1  0  0  0  0
 19 20  2  0  0  0  0
 22 24  1  0  0  0  0
 37 40  1  0  0  0  0
  8 11  1  0  0  0  0
 21 23  1  0  0  0  0
 46 47  1  0  0  0  0
 21 22  1  0  0  0  0
 36 37  1  0  0  0  0
  7  8  1  0  0  0  0
 18 21  1  0  0  0  0
 17 18  1  0  0  0  0
  3  4  1  0  0  0  0
  3  5  1  0  0  0  0
  3  6  1  0  0  0  0
 24 33  1  0  0  0  0
 24 34  1  0  0  0  0
 24 35  1  0  0  0  0
 40 43  1  0  0  0  0
 40 44  1  0  0  0  0
 40 45  1  0  0  0  0
 11 14  1  0  0  0  0
 11 15  1  0  0  0  0
 11 16  1  0  0  0  0
 23 30  1  0  0  0  0
 23 31  1  0  0  0  0
 23 32  1  0  0  0  0
 47 49  1  0  0  0  0
 47 50  1  0  0  0  0
 47 51  1  0  0  0  0
 22 28  1  0  0  0  0
 22 29  1  0  0  0  0
 37 42  1  0  0  0  0
  8 13  1  0  0  0  0
 18 26  1  0  0  0  0
 21 27  1  0  0  0  0
 46 48  1  0  0  0  0
  7 12  1  0  0  0  0
 36 41  1  0  0  0  0
 17 25  1  0  0  0  0
M  END
$$$$

  -OEChem-05262214473D

 51 50  0     1  0  0  0  0  0999 V2000
    1.3524   -3.0009    1.4091 C   0  0  0  0  0  0  0  0  0  0  0  0
    1.8758   -1.9880    0.9598 O   0  0  0  0  0  0  0  0  0  0  0  0
    2.2030   -4.1782    1.7536 C   0  0  0  0  0  0  0  0  0  0  0  0
    2.3264   -4.8705    0.9053 H   0  0  0  0  0  0  0  0  0  0  0  0
    3.2257   -3.8876    2.0432 H   0  0  0  0  0  0  0  0  0  0  0  0
    1.8327   -4.8004    2.5839 H   0  0  0  0  0  0  0  0  0  0  0  0
    0.0005   -3.1873    1.6465 N   0  0  0  0  0  0  0  0  0  0  0  0
   -0.9949   -2.1807    1.3864 C   0  0  2  0  0  0  0  0  0  0  0  0
   -0.3083   -0.8216    1.4164 C   0  0  0  0  0  0  0  0  0  0  0  0
    0.7533   -0.6191    2.0022 O   0  0  0  0  0  0  0  0  0  0  0  0
   -2.1232   -2.2423    2.4042 C   0  0  0  0  0  0  0  0  0  0  0  0
   -0.3048   -4.0823    2.0245 H   0  0  0  0  0  0  0  0  0  0  0  0
   -1.3830   -2.3724    0.3801 H   0  0  0  0  0  0  0  0  0  0  0  0
   -1.7534   -2.0527    3.4185 H   0  0  0  0  0  0  0  0  0  0  0  0
   -2.8936   -1.4947    2.1882 H   0  0  0  0  0  0  0  0  0  0  0  0
   -2.5964   -3.2301    2.4022 H   0  0  0  0  0  0  0  0  0  0  0  0
   -1.0412    0.1517    0.7482 N   0  0  0  0  0  0  0  0  0  0  0  0
   -0.6079    1.5223    0.6467 C   0  0  2  0  0  0  0  0  0  0  0  0
   -1.4540    2.3613    1.6035 C   0  0  0  0  0  0  0  0  0  0  0  0
   -1.0431    3.3951    2.1268 O   0  0  0  0  0  0  0  0  0  0  0  0
   -0.6435    2.0617   -0.8036 C   0  0  2  0  0  0  0  0  0  0  0  0
    0.3242    1.2985   -1.7350 C   0  0  0  0  0  0  0  0  0  0  0  0
   -0.3658    3.5708   -0.8129 C   0  0  0  0  0  0  0  0  0  0  0  0
    0.1253    1.6190   -3.2109 C   0  0  0  0  0  0  0  0  0  0  0  0
   -1.9022   -0.1128    0.2753 H   0  0  0  0  0  0  0  0  0  0  0  0
    0.4233    1.5395    1.0220 H   0  0  0  0  0  0  0  0  0  0  0  0
   -1.6609    1.9206   -1.1922 H   0  0  0  0  0  0  0  0  0  0  0  0
    1.3589    1.5518   -1.4768 H   0  0  0  0  0  0  0  0  0  0  0  0
    0.2177    0.2165   -1.5932 H   0  0  0  0  0  0  0  0  0  0  0  0
    0.6398    3.7840   -0.4345 H   0  0  0  0  0  0  0  0  0  0  0  0
   -0.4187    3.9771   -1.8276 H   0  0  0  0  0  0  0  0  0  0  0  0
   -1.0850    4.1155   -0.1925 H   0  0  0  0  0  0  0  0  0  0  0  0
   -0.8922    1.3893   -3.5396 H   0  0  0  0  0  0  0  0  0  0  0  0
    0.8104    1.0196   -3.8195 H   0  0  0  0  0  0  0  0  0  0  0  0
    0.3279    2.6750   -3.4150 H   0  0  0  0  0  0  0  0  0  0  0  0
   -2.7269    1.8363    1.7748 N   0  0  0  0  0  0  0  0  0  0  0  0
   -3.7314    2.4496    2.6135 C   0  0  2  0  0  0  0  0  0  0  0  0
   -5.0997    2.0532    2.0750 C   0  0  0  0  0  0  0  0  0  0  0  0
   -5.2848    1.6907    0.9151 O   0  0  0  0  0  0  0  0  0  0  0  0
   -3.5772    3.9622    2.6455 C   0  0  0  0  0  0  0  0  0  0  0  0
   -2.9647    0.9781    1.2862 H   0  0  0  0  0  0  0  0  0  0  0  0
   -3.5999    2.0352    3.6190 H   0  0  0  0  0  0  0  0  0  0  0  0
   -3.7057    4.3954    1.6469 H   0  0  0  0  0  0  0  0  0  0  0  0
   -4.3210    4.4230    3.3039 H   0  0  0  0  0  0  0  0  0  0  0  0
   -2.5819    4.2450    3.0049 H   0  0  0  0  0  0  0  0  0  0  0  0
   -6.0970    2.1932    3.0300 N   0  0  0  0  0  0  0  0  0  0  0  0
   -7.4834    1.8920    2.7595 C   0  0  0  0  0  0  0  0  0  0  0  0
   -5.8498    2.4818    3.9720 H   0  0  0  0  0  0  0  0  0  0  0  0
   -8.0002    2.8055    2.4304 H   0  0  0  0  0  0  0  0  0  0  0  0
   -7.5453    1.1305    1.9681 H   0  0  0  0  0  0  0  0  0  0  0  0
   -7.9607    1.5101    3.6740 H   0  0  0  0  0  0  0  0  0  0  0  0
  1  3  1  0  0  0  0
  1  7  1  0  0  0  0
  1  2  2  0  0  0  0
 37 38  1  0  0  0  0
 38 46  1  0  0  0  0
 38 39  2  0  0  0  0
  8  9  1  0  0  0  0
  9 17  1  0  0  0  0
  9 10  2  0  0  0  0
 18 19  1  0  0  0  0
 19 36  1  0  0  0  0
 19 20  2  0  0  0  0
 22 24  1  0  0  0  0
 37 40  1  0  0  0  0
  8 11  1  0  0  0  0
 21 23  1  0  0  0  0
 46 47  1  0  0  0  0
 21 22  1  0  0  0  0
 36 37  1  0  0  0  0
  7  8  1  0  0  0  0
 18 21  1  0  0  0  0
 17 18  1  0  0  0  0
  3  4  1  0  0  0  0
  3  5  1  0  0  0  0
  3  6  1  0  0  0  0
 24 33  1  0  0  0  0
 24 34  1  0  0  0  0
 24 35  1  0  0  0  0
 40 43  1  0  0  0  0
 40 44  1  0  0  0  0
 40 45  1  0  0  0  0
 11 14  1  0  0  0  0
 11 15  1  0  0  0  0
 11 16  1  0  0  0  0
 23 30  1  0  0  0  0
 23 31  1  0  0  0  0
 23 32  1  0  0  0  0
 47 49  1  0  0  0  0
 47 50  1  0  0  0  0
 47 51  1  0  0  0  0
 22 28  1  0  0  0  0
 22 29  1  0  0  0  0
 37 42  1  0  0  0  0
  8 13  1  0  0  0  0
 18 26  1  0  0  0  0
 21 27  1  0  0  0  0
 46 48  1  0  0  0  0
  7 12  1  0  0  0  0
 36 41  1  0  0  0  0
 17 25  1  0  0  0  0
M  END
$$$$

  -OEChem-05262214473D

 51 50  0     1  0  0  0  0  0999 V2000
    1.3524   -3.0009    1.4091 C   0  0  0  0  0  0  0  0  0  0  0  0
    1.8758   -1.9880    0.9598 O   0  0  0  0  0  0  0  0  0  0  0  0
    2.2030   -4.1782    1.7536 C   0  0  0  0  0  0  0  0  0  0  0  0
    2.3264   -4.8705    0.9053 H   0  0  0  0  0  0  0  0  0  0  0  0
    3.2257   -3.8876    2.0432 H   0  0  0  0  0  0  0  0  0  0  0  0
    1.8327   -4.8004    2.5839 H   0  0  0  0  0  0  0  0  0  0  0  0
    0.0005   -3.1873    1.6465 N   0  0  0  0  0  0  0  0  0  0  0  0
   -0.9949   -2.1807    1.3864 C   0  0  2  0  0  0  0  0  0  0  0  0
   -0.3083   -0.8216    1.4164 C   0  0  0  0  0  0  0  0  0  0  0  0
    0.7533   -0.6191    2.0022 O   0  0  0  0  0  0  0  0  0  0  0  0
   -2.1232   -2.2423    2.4042 C   0  0  0  0  0  0  0  0  0  0  0  0
   -0.3048   -4.0823    2.0245 H   0  0  0  0  0  0  0  0  0  0  0  0
   -1.3830   -2.3724    0.3801 H   0  0  0  0  0  0  0  0  0  0  0  0
   -1.7534   -2.0527    3.4185 H   0  0  0  0  0  0  0  0  0  0  0  0
   -2.8936   -1.4947    2.1882 H   0  0  0  0  0  0  0  0  0  0  0  0
   -2.5964   -3.2301    2.4022 H   0  0  0  0  0  0  0  0  0  0  0  0
   -1.0412    0.1517    0.7482 N   0  0  0  0  0  0  0  0  0  0  0  0
   -0.6079    1.5223    0.6467 C   0  0  2  0  0  0  0  0  0  0  0  0
   -1.4540    2.3613    1.6035 C   0  0  0  0  0  0  0  0  0  0  0  0
   -1.1628    3.5140    1.9167 O   0  0  0  0  0  0  0  0  0  0  0  0
   -0.6435    2.0617   -0.8036 C   0  0  2  0  0  0  0  0  0  0  0  0
    0.3242    1.2985   -1.7350 C   0  0  0  0  0  0  0  0  0  0  0  0
   -0.3658    3.5708   -0.8129 C   0  0  0  0  0  0  0  0  0  0  0  0
    0.1253    1.6190   -3.2109 C   0  0  0  0  0  0  0  0  0  0  0  0
   -1.9022   -0.1128    0.2753 H   0  0  0  0  0  0  0  0  0  0  0  0
    0.4233    1.5395    1.0220 H   0  0  0  0  0  0  0  0  0  0  0  0
   -1.6609    1.9206   -1.1922 H   0  0  0  0  0  0  0  0  0  0  0  0
    1.3589    1.5518   -1.4768 H   0  0  0  0  0  0  0  0  0  0  0  0
    0.2177    0.2165   -1.5932 H   0  0  0  0  0  0  0  0  0  0  0  0
    0.6398    3.7840   -0.4345 H   0  0  0  0  0  0  0  0  0  0  0  0
   -0.4187    3.9771   -1.8276 H   0  0  0  0  0  0  0  0  0  0  0  0
   -1.0850    4.1155   -0.1925 H   0  0  0  0  0  0  0  0  0  0  0  0
   -0.8922    1.3893   -3.5396 H   0  0  0  0  0  0  0  0  0  0  0  0
    0.8104    1.0196   -3.8195 H   0  0  0  0  0  0  0  0  0  0  0  0
    0.3279    2.6750   -3.4150 H   0  0  0  0  0  0  0  0  0  0  0  0
   -2.5840    1.6822    2.0362 N   0  0  0  0  0  0  0  0  0  0  0  0
   -3.5612    2.2586    2.9315 C   0  0  2  0  0  0  0  0  0  0  0  0
   -4.8990    1.5806    2.6669 C   0  0  0  0  0  0  0  0  0  0  0  0
   -5.1684    1.0188    1.6072 O   0  0  0  0  0  0  0  0  0  0  0  0
   -3.6673    3.7635    2.7401 C   0  0  0  0  0  0  0  0  0  0  0  0
   -2.7318    0.7327    1.7073 H   0  0  0  0  0  0  0  0  0  0  0  0
   -3.2304    2.0298    3.9504 H   0  0  0  0  0  0  0  0  0  0  0  0
   -3.9975    4.0121    1.7249 H   0  0  0  0  0  0  0  0  0  0  0  0
   -4.3872    4.2025    3.4386 H   0  0  0  0  0  0  0  0  0  0  0  0
   -2.6974    4.2462    2.9016 H   0  0  0  0  0  0  0  0  0  0  0  0
   -5.7724    1.7139    3.7372 N   0  0  0  0  0  0  0  0  0  0  0  0
   -7.1094    1.1677    3.7253 C   0  0  0  0  0  0  0  0  0  0  0  0
   -5.4581    2.1793    4.5836 H   0  0  0  0  0  0  0  0  0  0  0  0
   -7.8143    1.9301    3.3623 H   0  0  0  0  0  0  0  0  0  0  0  0
   -7.1417    0.2922    3.0600 H   0  0  0  0  0  0  0  0  0  0  0  0
   -7.3904    0.8642    4.7446 H   0  0  0  0  0  0  0  0  0  0  0  0
  1  3  1  0  0  0  0
  1  7  1  0  0  0  0
  1  2  2  0  0  0  0
 37 38  1  0  0  0  0
 38 46  1  0  0  0  0
 38 39  2  0  0  0  0
  8  9  1  0  0  0  0
  9 17  1  0  0  0  0
  9 10  2  0  0  0  0
 18 19  1  0  0  0  0
 19 36  1  0  0  0  0
 19 20  2  0  0  0  0
 22 24  1  0  0  0  0
 37 40  1  0  0  0  0
  8 11  1  0  0  0  0
 21 23  1  0  0  0  0
 46 47  1  0  0  0  0
 21 22  1  0  0  0  0
 36 37  1  0  0  0  0
  7  8  1  0  0  0  0
 18 21  1  0  0  0  0
 17 18  1  0  0  0  0
  3  4  1  0  0  0  0
  3  5  1  0  0  0  0
  3  6  1  0  0  0  0
 24 33  1  0  0  0  0
 24 34  1  0  0  0  0
 24 35  1  0  0  0  0
 40 43  1  0  0  0  0
 40 44  1  0  0  0  0
 40 45  1  0  0  0  0
 11 14  1  0  0  0  0
 11 15  1  0  0  0  0
 11 16  1  0  0  0  0
 23 30  1  0  0  0  0
 23 31  1  0  0  0  0
 23 32  1  0  0  0  0
 47 49  1  0  0  0  0
 47 50  1  0  0  0  0
 47 51  1  0  0  0  0
 22 28  1  0  0  0  0
 22 29  1  0  0  0  0
 37 42  1  0  0  0  0
  8 13  1  0  0  0  0
 18 26  1  0  0  0  0
 21 27  1  0  0  0  0
 46 48  1  0  0  0  0
  7 12  1  0  0  0  0
 36 41  1  0  0  0  0
 17 25  1  0  0  0  0
M  END
$$$$

  -OEChem-05262214473D

 51 50  0     1  0  0  0  0  0999 V2000
    1.3524   -3.0009    1.4091 C   0  0  0  0  0  0  0  0  0  0  0  0
    1.8758   -1.9880    0.9598 O   0  0  0  0  0  0  0  0  0  0  0  0
    2.2030   -4.1782    1.7536 C   0  0  0  0  0  0  0  0  0  0  0  0
    2.3264   -4.8705    0.9053 H   0  0  0  0  0  0  0  0  0  0  0  0
    3.2257   -3.8876    2.0432 H   0  0  0  0  0  0  0  0  0  0  0  0
    1.8327   -4.8004    2.5839 H   0  0  0  0  0  0  0  0  0  0  0  0
    0.0005   -3.1873    1.6465 N   0  0  0  0  0  0  0  0  0  0  0  0
   -0.9949   -2.1807    1.3864 C   0  0  2  0  0  0  0  0  0  0  0  0
   -0.3083   -0.8216    1.4164 C   0  0  0  0  0  0  0  0  0  0  0  0
    0.7533   -0.6191    2.0022 O   0  0  0  0  0  0  0  0  0  0  0  0
   -2.1232   -2.2423    2.4042 C   0  0  0  0  0  0  0  0  0  0  0  0
   -0.3048   -4.0823    2.0245 H   0  0  0  0  0  0  0  0  0  0  0  0
   -1.3830   -2.3724    0.3801 H   0  0  0  0  0  0  0  0  0  0  0  0
   -1.7534   -2.0527    3.4185 H   0  0  0  0  0  0  0  0  0  0  0  0
   -2.8936   -1.4947    2.1882 H   0  0  0  0  0  0  0  0  0  0  0  0
   -2.5964   -3.2301    2.4022 H   0  0  0  0  0  0  0  0  0  0  0  0
   -1.0412    0.1517    0.7482 N   0  0  0  0  0  0  0  0  0  0  0  0
   -0.6079    1.5223    0.6467 C   0  0  2  0  0  0  0  0  0  0  0  0
   -1.4540    2.3613    1.6035 C   0  0  0  0  0  0  0  0  0  0  0  0
   -1.3276    3.5792    1.7137 O   0  0  0  0  0  0  0  0  0  0  0  0
   -0.6435    2.0617   -0.8036 C   0  0  2  0  0  0  0  0  0  0  0  0
    0.3242    1.2985   -1.7350 C   0  0  0  0  0  0  0  0  0  0  0  0
   -0.3658    3.5708   -0.8129 C   0  0  0  0  0  0  0  0  0  0  0  0
    0.1253    1.6190   -3.2109 C   0  0  0  0  0  0  0  0  0  0  0  0
   -1.9022   -0.1128    0.2753 H   0  0  0  0  0  0  0  0  0  0  0  0
    0.4233    1.5395    1.0220 H   0  0  0  0  0  0  0  0  0  0  0  0
   -1.6609    1.9206   -1.1922 H   0  0  0  0  0  0  0  0  0  0  0  0
    1.3589    1.5518   -1.4768 H   0  0  0  0  0  0  0  0  0  0  0  0
    0.2177    0.2165   -1.5932 H   0  0  0  0  0  0  0  0  0  0  0  0
    0.6398    3.7840   -0.4345 H   0  0  0  0  0  0  0  0  0  0  0  0
   -0.4187    3.9771   -1.8276 H   0  0  0  0  0  0  0  0  0  0  0  0
   -1.0850    4.1155   -0.1925 H   0  0  0  0  0  0  0  0  0  0  0  0
   -0.8922    1.3893   -3.5396 H   0  0  0  0  0  0  0  0  0  0  0  0
    0.8104    1.0196   -3.8195 H   0  0  0  0  0  0  0  0  0  0  0  0
    0.3279    2.6750   -3.4150 H   0  0  0  0  0  0  0  0  0  0  0  0
   -2.3839    1.5940    2.2905 N   0  0  0  0  0  0  0  0  0  0  0  0
   -3.3207    2.1472    3.2418 C   0  0  2  0  0  0  0  0  0  0  0  0
   -4.5445    1.2414    3.2779 C   0  0  0  0  0  0  0  0  0  0  0  0
   -4.8487    0.4878    2.3555 O   0  0  0  0  0  0  0  0  0  0  0  0
   -3.7087    3.5705    2.8727 C   0  0  0  0  0  0  0  0  0  0  0  0
   -2.4073    0.5937    2.1161 H   0  0  0  0  0  0  0  0  0  0  0  0
   -2.8255    2.1320    4.2188 H   0  0  0  0  0  0  0  0  0  0  0  0
   -4.2062    3.6058    1.8967 H   0  0  0  0  0  0  0  0  0  0  0  0
   -4.3962    3.9982    3.6098 H   0  0  0  0  0  0  0  0  0  0  0  0
   -2.8239    4.2140    2.8181 H   0  0  0  0  0  0  0  0  0  0  0  0
   -5.2808    1.4050    4.4429 N   0  0  0  0  0  0  0  0  0  0  0  0
   -6.4935    0.6671    4.7088 C   0  0  0  0  0  0  0  0  0  0  0  0
   -4.9438    2.0381    5.1622 H   0  0  0  0  0  0  0  0  0  0  0  0
   -7.3605    1.2481    4.3616 H   0  0  0  0  0  0  0  0  0  0  0  0
   -6.4608   -0.2956    4.1775 H   0  0  0  0  0  0  0  0  0  0  0  0
   -6.5828    0.4862    5.7902 H   0  0  0  0  0  0  0  0  0  0  0  0
  1  3  1  0  0  0  0
  1  7  1  0  0  0  0
  1  2  2  0  0  0  0
 37 38  1  0  0  0  0
 38 46  1  0  0  0  0
 38 39  2  0  0  0  0
  8  9  1  0  0  0  0
  9 17  1  0  0  0  0
  9 10  2  0  0  0  0
 18 19  1  0  0  0  0
 19 36  1  0  0  0  0
 19 20  2  0  0  0  0
 22 24  1  0  0  0  0
 37 40  1  0  0  0  0
  8 11  1  0  0  0  0
 21 23  1  0  0  0  0
 46 47  1  0  0  0  0
 21 22  1  0  0  0  0
 36 37  1  0  0  0  0
  7  8  1  0  0  0  0
 18 21  1  0  0  0  0
 17 18  1  0  0  0  0
  3  4  1  0  0  0  0
  3  5  1  0  0  0  0
  3  6  1  0  0  0  0
 24 33  1  0  0  0  0
 24 34  1  0  0  0  0
 24 35  1  0  0  0  0
 40 43  1  0  0  0  0
 40 44  1  0  0  0  0
 40 45  1  0  0  0  0
 11 14  1  0  0  0  0
 11 15  1  0  0  0  0
 11 16  1  0  0  0  0
 23 30  1  0  0  0  0
 23 31  1  0  0  0  0
 23 32  1  0  0  0  0
 47 49  1  0  0  0  0
 47 50  1  0  0  0  0
 47 51  1  0  0  0  0
 22 28  1  0  0  0  0
 22 29  1  0  0  0  0
 37 42  1  0  0  0  0
  8 13  1  0  0  0  0
 18 26  1  0  0  0  0
 21 27  1  0  0  0  0
 46 48  1  0  0  0  0
  7 12  1  0  0  0  0
 36 41  1  0  0  0  0
 17 25  1  0  0  0  0
M  END
$$$$

  -OEChem-05262214473D

 51 50  0     1  0  0  0  0  0999 V2000
    1.3524   -3.0009    1.4091 C   0  0  0  0  0  0  0  0  0  0  0  0
    1.8758   -1.9880    0.9598 O   0  0  0  0  0  0  0  0  0  0  0  0
    2.2030   -4.1782    1.7536 C   0  0  0  0  0  0  0  0  0  0  0  0
    2.3264   -4.8705    0.9053 H   0  0  0  0  0  0  0  0  0  0  0  0
    3.2257   -3.8876    2.0432 H   0  0  0  0  0  0  0  0  0  0  0  0
    1.8327   -4.8004    2.5839 H   0  0  0  0  0  0  0  0  0  0  0  0
    0.0005   -3.1873    1.6465 N   0  0  0  0  0  0  0  0  0  0  0  0
   -0.9949   -2.1807    1.3864 C   0  0  2  0  0  0  0  0  0  0  0  0
   -0.3083   -0.8216    1.4164 C   0  0  0  0  0  0  0  0  0  0  0  0
    0.7533   -0.6191    2.0022 O   0  0  0  0  0  0  0  0  0  0  0  0
   -2.1232   -2.2423    2.4042 C   0  0  0  0  0  0  0  0  0  0  0  0
   -0.3048   -4.0823    2.0245 H   0  0  0  0  0  0  0  0  0  0  0  0
   -1.3830   -2.3724    0.3801 H   0  0  0  0  0  0  0  0  0  0  0  0
   -1.7534   -2.0527    3.4185 H   0  0  0  0  0  0  0  0  0  0  0  0
   -2.8936   -1.4947    2.1882 H   0  0  0  0  0  0  0  0  0  0  0  0
   -2.5964   -3.2301    2.4022 H   0  0  0  0  0  0  0  0  0  0  0  0
   -1.0412    0.1517    0.7482 N   0  0  0  0  0  0  0  0  0  0  0  0
   -0.6079    1.5223    0.6467 C   0  0  2  0  0  0  0  0  0  0  0  0
   -1.4540    2.3613    1.6035 C   0  0  0  0  0  0  0  0  0  0  0  0
   -1.5263    3.5865    1.5318 O   0  0  0  0  0  0  0  0  0  0  0  0
   -0.6435    2.0617   -0.8036 C   0  0  2  0  0  0  0  0  0  0  0  0
    0.3242    1.2985   -1.7350 C   0  0  0  0  0  0  0  0  0  0  0  0
   -0.3658    3.5708   -0.8129 C   0  0  0  0  0  0  0  0  0  0  0  0
    0.1253    1.6190   -3.2109 C   0  0  0  0  0  0  0  0  0  0  0  0
   -1.9022   -0.1128    0.2753 H   0  0  0  0  0  0  0  0  0  0  0  0
    0.4233    1.5395    1.0220 H   0  0  0  0  0  0  0  0  0  0  0  0
   -1.6609    1.9206   -1.1922 H   0  0  0  0  0  0  0  0  0  0  0  0
    1.3589    1.5518   -1.4768 H   0  0  0  0  0  0  0  0  0  0  0  0
    0.2177    0.2165   -1.5932 H   0  0  0  0  0  0  0  0  0  0  0  0
    0.6398    3.7840   -0.4345 H   0  0  0  0  0  0  0  0  0  0  0  0
   -0.4187    3.9771   -1.8276 H   0  0  0  0  0  0  0  0  0  0  0  0
   -1.0850    4.1155   -0.1925 H   0  0  0  0  0  0  0  0  0  0  0  0
   -0.8922    1.3893   -3.5396 H   0  0  0  0  0  0  0  0  0  0  0  0
    0.8104    1.0196   -3.8195 H   0  0  0  0  0  0  0  0  0  0  0  0
    0.3279    2.6750   -3.4150 H   0  0  0  0  0  0  0  0  0  0  0  0
   -2.1401    1.5777    2.5204 N   0  0  0  0  0  0  0  0  0  0  0  0
   -3.0262    2.1231    3.5234 C   0  0  2  0  0  0  0  0  0  0  0  0
   -4.0602    1.0587    3.8662 C   0  0  0  0  0  0  0  0  0  0  0  0
   -4.3475    0.1340    3.1089 O   0  0  0  0  0  0  0  0  0  0  0  0
   -3.6985    3.3964    3.0343 C   0  0  0  0  0  0  0  0  0  0  0  0
   -2.0132    0.5706    2.4848 H   0  0  0  0  0  0  0  0  0  0  0  0
   -2.4128    2.3348    4.4059 H   0  0  0  0  0  0  0  0  0  0  0  0
   -4.3176    3.2041    2.1505 H   0  0  0  0  0  0  0  0  0  0  0  0
   -4.3475    3.8239    3.8057 H   0  0  0  0  0  0  0  0  0  0  0  0
   -2.9527    4.1503    2.7600 H   0  0  0  0  0  0  0  0  0  0  0  0
   -4.6555    1.2874    5.0989 N   0  0  0  0  0  0  0  0  0  0  0  0
   -5.6777    0.4242    5.6431 C   0  0  0  0  0  0  0  0  0  0  0  0
   -4.3420    2.0680    5.6681 H   0  0  0  0  0  0  0  0  0  0  0  0
   -6.6697    0.8061    5.3600 H   0  0  0  0  0  0  0  0  0  0  0  0
   -5.5491   -0.5929    5.2444 H   0  0  0  0  0  0  0  0  0  0  0  0
   -5.5928    0.4017    6.7396 H   0  0  0  0  0  0  0  0  0  0  0  0
  1  3  1  0  0  0  0
  1  7  1  0  0  0  0
  1  2  2  0  0  0  0
 37 38  1  0  0  0  0
 38 46  1  0  0  0  0
 38 39  2  0  0  0  0
  8  9  1  0  0  0  0
  9 17  1  0  0  0  0
  9 10  2  0  0  0  0
 18 19  1  0  0  0  0
 19 36  1  0  0  0  0
 19 20  2  0  0  0  0
 22 24  1  0  0  0  0
 37 40  1  0  0  0  0
  8 11  1  0  0  0  0
 21 23  1  0  0  0  0
 46 47  1  0  0  0  0
 21 22  1  0  0  0  0
 36 37  1  0  0  0  0
  7  8  1  0  0  0  0
 18 21  1  0  0  0  0
 17 18  1  0  0  0  0
  3  4  1  0  0  0  0
  3  5  1  0  0  0  0
  3  6  1  0  0  0  0
 24 33  1  0  0  0  0
 24 34  1  0  0  0  0
 24 35  1  0  0  0  0
 40 43  1  0  0  0  0
 40 44  1  0  0  0  0
 40 45  1  0  0  0  0
 11 14  1  0  0  0  0
 11 15  1  0  0  0  0
 11 16  1  0  0  0  0
 23 30  1  0  0  0  0
 23 31  1  0  0  0  0
 23 32  1  0  0  0  0
 47 49  1  0  0  0  0
 47 50  1  0  0  0  0
 47 51  1  0  0  0  0
 22 28  1  0  0  0  0
 22 29  1  0  0  0  0
 37 42  1  0  0  0  0
  8 13  1  0  0  0  0
 18 26  1  0  0  0  0
 21 27  1  0  0  0  0
 46 48  1  0  0  0  0
  7 12  1  0  0  0  0
 36 41  1  0  0  0  0
 17 25  1  0  0  0  0
M  END
$$$$

  -OEChem-05262214473D

 51 50  0     1  0  0  0  0  0999 V2000
    1.3524   -3.0009    1.4091 C   0  0  0  0  0  0  0  0  0  0  0  0
    1.8758   -1.9880    0.9598 O   0  0  0  0  0  0  0  0  0  0  0  0
    2.2030   -4.1782    1.7536 C   0  0  0  0  0  0  0  0  0  0  0  0
    2.3264   -4.8705    0.9053 H   0  0  0  0  0  0  0  0  0  0  0  0
    3.2257   -3.8876    2.0432 H   0  0  0  0  0  0  0  0  0  0  0  0
    1.8327   -4.8004    2.5839 H   0  0  0  0  0  0  0  0  0  0  0  0
    0.0005   -3.1873    1.6465 N   0  0  0  0  0  0  0  0  0  0  0  0
   -0.9949   -2.1807    1.3864 C   0  0  2  0  0  0  0  0  0  0  0  0
   -0.3083   -0.8216    1.4164 C   0  0  0  0  0  0  0  0  0  0  0  0
    0.7533   -0.6191    2.0022 O   0  0  0  0  0  0  0  0  0  0  0  0
   -2.1232   -2.2423    2.4042 C   0  0  0  0  0  0  0  0  0  0  0  0
   -0.3048   -4.0823    2.0245 H   0  0  0  0  0  0  0  0  0  0  0  0
   -1.3830   -2.3724    0.3801 H   0  0  0  0  0  0  0  0  0  0  0  0
   -1.7534   -2.0527    3.4185 H   0  0  0  0  0  0  0  0  0  0  0  0
   -2.8936   -1.4947    2.1882 H   0  0  0  0  0  0  0  0  0  0  0  0
   -2.5964   -3.2301    2.4022 H   0  0  0  0  0  0  0  0  0  0  0  0
   -1.0412    0.1517    0.7482 N   0  0  0  0  0  0  0  0  0  0  0  0
   -0.6079    1.5223    0.6467 C   0  0  2  0  0  0  0  0  0  0  0  0
   -1.4540    2.3613    1.6035 C   0  0  0  0  0  0  0  0  0  0  0  0
   -1.7451    3.5352    1.3832 O   0  0  0  0  0  0  0  0  0  0  0  0
   -0.6435    2.0617   -0.8036 C   0  0  2  0  0  0  0  0  0  0  0  0
    0.3242    1.2985   -1.7350 C   0  0  0  0  0  0  0  0  0  0  0  0
   -0.3658    3.5708   -0.8129 C   0  0  0  0  0  0  0  0  0  0  0  0
    0.1253    1.6190   -3.2109 C   0  0  0  0  0  0  0  0  0  0  0  0
   -1.9022   -0.1128    0.2753 H   0  0  0  0  0  0  0  0  0  0  0  0
    0.4233    1.5395    1.0220 H   0  0  0  0  0  0  0  0  0  0  0  0
   -1.6609    1.9206   -1.1922 H   0  0  0  0  0  0  0  0  0  0  0  0
    1.3589    1.5518   -1.4768 H   0  0  0  0  0  0  0  0  0  0  0  0
    0.2177    0.2165   -1.5932 H   0  0  0  0  0  0  0  0  0  0  0  0
    0.6398    3.7840   -0.4345 H   0  0  0  0  0  0  0  0  0  0  0  0
   -0.4187    3.9771   -1.8276 H   0  0  0  0  0  0  0  0  0  0  0  0
   -1.0850    4.1155   -0.1925 H   0  0  0  0  0  0  0  0  0  0  0  0
   -0.8922    1.3893   -3.5396 H   0  0  0  0  0  0  0  0  0  0  0  0
    0.8104    1.0196   -3.8195 H   0  0  0  0  0  0  0  0  0  0  0  0
    0.3279    2.6750   -3.4150 H   0  0  0  0  0  0  0  0  0  0  0  0
   -1.8693    1.6344    2.7101 N   0  0  0  0  0  0  0  0  0  0  0  0
   -2.6978    2.1878    3.7570 C   0  0  2  0  0  0  0  0  0  0  0  0
   -3.4792    1.0451    4.3919 C   0  0  0  0  0  0  0  0  0  0  0  0
   -3.6990   -0.0186    3.8162 O   0  0  0  0  0  0  0  0  0  0  0  0
   -3.6375    3.2531    3.2140 C   0  0  0  0  0  0  0  0  0  0  0  0
   -1.5764    0.6650    2.7883 H   0  0  0  0  0  0  0  0  0  0  0  0
   -2.0204    2.6244    4.4989 H   0  0  0  0  0  0  0  0  0  0  0  0
   -4.3240    2.8344    2.4690 H   0  0  0  0  0  0  0  0  0  0  0  0
   -4.2444    3.6915    4.0130 H   0  0  0  0  0  0  0  0  0  0  0  0
   -3.0750    4.0596    2.7314 H   0  0  0  0  0  0  0  0  0  0  0  0
   -3.9393    1.3690    5.6606 N   0  0  0  0  0  0  0  0  0  0  0  0
   -4.7176    0.4558    6.4644 C   0  0  0  0  0  0  0  0  0  0  0  0
   -3.6936    2.2669    6.0670 H   0  0  0  0  0  0  0  0  0  0  0  0
   -5.7889    0.6342    6.2896 H   0  0  0  0  0  0  0  0  0  0  0  0
   -4.4686   -0.5794    6.1880 H   0  0  0  0  0  0  0  0  0  0  0  0
   -4.4880    0.6166    7.5281 H   0  0  0  0  0  0  0  0  0  0  0  0
  1  3  1  0  0  0  0
  1  7  1  0  0  0  0
  1  2  2  0  0  0  0
 37 38  1  0  0  0  0
 38 46  1  0  0  0  0
 38 39  2  0  0  0  0
  8  9  1  0  0  0  0
  9 17  1  0  0  0  0
  9 10  2  0  0  0  0
 18 19  1  0  0  0  0
 19 36  1  0  0  0  0
 19 20  2  0  0  0  0
 22 24  1  0  0  0  0
 37 40  1  0  0  0  0
  8 11  1  0  0  0  0
 21 23  1  0  0  0  0
 46 47  1  0  0  0  0
 21 22  1  0  0  0  0
 36 37  1  0  0  0  0
  7  8  1  0  0  0  0
 18 21  1  0  0  0  0
 17 18  1  0  0  0  0
  3  4  1  0  0  0  0
  3  5  1  0  0  0  0
  3  6  1  0  0  0  0
 24 33  1  0  0  0  0
 24 34  1  0  0  0  0
 24 35  1  0  0  0  0
 40 43  1  0  0  0  0
 40 44  1  0  0  0  0
 40 45  1  0  0  0  0
 11 14  1  0  0  0  0
 11 15  1  0  0  0  0
 11 16  1  0  0  0  0
 23 30  1  0  0  0  0
 23 31  1  0  0  0  0
 23 32  1  0  0  0  0
 47 49  1  0  0  0  0
 47 50  1  0  0  0  0
 47 51  1  0  0  0  0
 22 28  1  0  0  0  0
 22 29  1  0  0  0  0
 37 42  1  0  0  0  0
  8 13  1  0  0  0  0
 18 26  1  0  0  0  0
 21 27  1  0  0  0  0
 46 48  1  0  0  0  0
  7 12  1  0  0  0  0
 36 41  1  0  0  0  0
 17 25  1  0  0  0  0
M  END
$$$$

  -OEChem-05262214473D

 51 50  0     1  0  0  0  0  0999 V2000
    1.3524   -3.0009    1.4091 C   0  0  0  0  0  0  0  0  0  0  0  0
    1.8758   -1.9880    0.9598 O   0  0  0  0  0  0  0  0  0  0  0  0
    2.2030   -4.1782    1.7536 C   0  0  0  0  0  0  0  0  0  0  0  0
    2.3264   -4.8705    0.9053 H   0  0  0  0  0  0  0  0  0  0  0  0
    3.2257   -3.8876    2.0432 H   0  0  0  0  0  0  0  0  0  0  0  0
    1.8327   -4.8004    2.5839 H   0  0  0  0  0  0  0  0  0  0  0  0
    0.0005   -3.1873    1.6465 N   0  0  0  0  0  0  0  0  0  0  0  0
   -0.9949   -2.1807    1.3864 C   0  0  2  0  0  0  0  0  0  0  0  0
   -0.3083   -0.8216    1.4164 C   0  0  0  0  0  0  0  0  0  0  0  0
    0.7533   -0.6191    2.0022 O   0  0  0  0  0  0  0  0  0  0  0  0
   -2.1232   -2.2423    2.4042 C   0  0  0  0  0  0  0  0  0  0  0  0
   -0.3048   -4.0823    2.0245 H   0  0  0  0  0  0  0  0  0  0  0  0
   -1.3830   -2.3724    0.3801 H   0  0  0  0  0  0  0  0  0  0  0  0
   -1.7534   -2.0527    3.4185 H   0  0  0  0  0  0  0  0  0  0  0  0
   -2.8936   -1.4947    2.1882 H   0  0  0  0  0  0  0  0  0  0  0  0
   -2.5964   -3.2301    2.4022 H   0  0  0  0  0  0  0  0  0  0  0  0
   -1.0412    0.1517    0.7482 N   0  0  0  0  0  0  0  0  0  0  0  0
   -0.6079    1.5223    0.6467 C   0  0  2  0  0  0  0  0  0  0  0  0
   -1.4540    2.3613    1.6035 C   0  0  0  0  0  0  0  0  0  0  0  0
   -1.9694    3.4290    1.2781 O   0  0  0  0  0  0  0  0  0  0  0  0
   -0.6435    2.0617   -0.8036 C   0  0  2  0  0  0  0  0  0  0  0  0
    0.3242    1.2985   -1.7350 C   0  0  0  0  0  0  0  0  0  0  0  0
   -0.3658    3.5708   -0.8129 C   0  0  0  0  0  0  0  0  0  0  0  0
    0.1253    1.6190   -3.2109 C   0  0  0  0  0  0  0  0  0  0  0  0
   -1.9022   -0.1128    0.2753 H   0  0  0  0  0  0  0  0  0  0  0  0
    0.4233    1.5395    1.0220 H   0  0  0  0  0  0  0  0  0  0  0  0
   -1.6609    1.9206   -1.1922 H   0  0  0  0  0  0  0  0  0  0  0  0
    1.3589    1.5518   -1.4768 H   0  0  0  0  0  0  0  0  0  0  0  0
    0.2177    0.2165   -1.5932 H   0  0  0  0  0  0  0  0  0  0  0  0
    0.6398    3.7840   -0.4345 H   0  0  0  0  0  0  0  0  0  0  0  0
   -0.4187    3.9771   -1.8276 H   0  0  0  0  0  0  0  0  0  0  0  0
   -1.0850    4.1155   -0.1925 H   0  0  0  0  0  0  0  0  0  0  0  0
   -0.8922    1.3893   -3.5396 H   0  0  0  0  0  0  0  0  0  0  0  0
    0.8104    1.0196   -3.8195 H   0  0  0  0  0  0  0  0  0  0  0  0
    0.3279    2.6750   -3.4150 H   0  0  0  0  0  0  0  0  0  0  0  0
   -1.5900    1.7602    2.8468 N   0  0  0  0  0  0  0  0  0  0  0  0
   -2.3580    2.3370    3.9266 C   0  0  2  0  0  0  0  0  0  0  0  0
   -2.8412    1.2014    4.8190 C   0  0  0  0  0  0  0  0  0  0  0  0
   -2.9473    0.0405    4.4290 O   0  0  0  0  0  0  0  0  0  0  0  0
   -3.5299    3.1503    3.3993 C   0  0  0  0  0  0  0  0  0  0  0  0
   -1.1267    0.8704    3.0058 H   0  0  0  0  0  0  0  0  0  0  0  0
   -1.6751    2.9810    4.4915 H   0  0  0  0  0  0  0  0  0  0  0  0
   -4.2249    2.5219    2.8305 H   0  0  0  0  0  0  0  0  0  0  0  0
   -4.0939    3.6100    4.2176 H   0  0  0  0  0  0  0  0  0  0  0  0
   -3.1826    3.9481    2.7340 H   0  0  0  0  0  0  0  0  0  0  0  0
   -3.1809    1.6445    6.0896 N   0  0  0  0  0  0  0  0  0  0  0  0
   -3.6787    0.7595    7.1167 C   0  0  0  0  0  0  0  0  0  0  0  0
   -3.0429    2.6213    6.3317 H   0  0  0  0  0  0  0  0  0  0  0  0
   -4.7781    0.7441    7.0870 H   0  0  0  0  0  0  0  0  0  0  0  0
   -3.2930   -0.2561    6.9439 H   0  0  0  0  0  0  0  0  0  0  0  0
   -3.3436    1.1162    8.1019 H   0  0  0  0  0  0  0  0  0  0  0  0
  1  3  1  0  0  0  0
  1  7  1  0  0  0  0
  1  2  2  0  0  0  0
 37 38  1  0  0  0  0
 38 46  1  0  0  0  0
 38 39  2  0  0  0  0
  8  9  1  0  0  0  0
  9 17  1  0  0  0  0
  9 10  2  0  0  0  0
 18 19  1  0  0  0  0
 19 36  1  0  0  0  0
 19 20  2  0  0  0  0
 22 24  1  0  0  0  0
 37 40  1  0  0  0  0
  8 11  1  0  0  0  0
 21 23  1  0  0  0  0
 46 47  1  0  0  0  0
 21 22  1  0  0  0  0
 36 37  1  0  0  0  0
  7  8  1  0  0  0  0
 18 21  1  0  0  0  0
 17 18  1  0  0  0  0
  3  4  1  0  0  0  0
  3  5  1  0  0  0  0
  3  6  1  0  0  0  0
 24 33  1  0  0  0  0
 24 34  1  0  0  0  0
 24 35  1  0  0  0  0
 40 43  1  0  0  0  0
 40 44  1  0  0  0  0
 40 45  1  0  0  0  0
 11 14  1  0  0  0  0
 11 15  1  0  0  0  0
 11 16  1  0  0  0  0
 23 30  1  0  0  0  0
 23 31  1  0  0  0  0
 23 32  1  0  0  0  0
 47 49  1  0  0  0  0
 47 50  1  0  0  0  0
 47 51  1  0  0  0  0
 22 28  1  0  0  0  0
 22 29  1  0  0  0  0
 37 42  1  0  0  0  0
  8 13  1  0  0  0  0
 18 26  1  0  0  0  0
 21 27  1  0  0  0  0
 46 48  1  0  0  0  0
  7 12  1  0  0  0  0
 36 41  1  0  0  0  0
 17 25  1  0  0  0  0
M  END
$$$$

  -OEChem-05262214473D

 51 50  0     1  0  0  0  0  0999 V2000
    1.3524   -3.0009    1.4091 C   0  0  0  0  0  0  0  0  0  0  0  0
    1.8758   -1.9880    0.9598 O   0  0  0  0  0  0  0  0  0  0  0  0
    2.2030   -4.1782    1.7536 C   0  0  0  0  0  0  0  0  0  0  0  0
    2.3264   -4.8705    0.9053 H   0  0  0  0  0  0  0  0  0  0  0  0
    3.2257   -3.8876    2.0432 H   0  0  0  0  0  0  0  0  0  0  0  0
    1.8327   -4.8004    2.5839 H   0  0  0  0  0  0  0  0  0  0  0  0
    0.0005   -3.1873    1.6465 N   0  0  0  0  0  0  0  0  0  0  0  0
   -0.9949   -2.1807    1.3864 C   0  0  2  0  0  0  0  0  0  0  0  0
   -0.3083   -0.8216    1.4164 C   0  0  0  0  0  0  0  0  0  0  0  0
    0.7533   -0.6191    2.0022 O   0  0  0  0  0  0  0  0  0  0  0  0
   -2.1232   -2.2423    2.4042 C   0  0  0  0  0  0  0  0  0  0  0  0
   -0.3048   -4.0823    2.0245 H   0  0  0  0  0  0  0  0  0  0  0  0
   -1.3830   -2.3724    0.3801 H   0  0  0  0  0  0  0  0  0  0  0  0
   -1.7534   -2.0527    3.4185 H   0  0  0  0  0  0  0  0  0  0  0  0
   -2.8936   -1.4947    2.1882 H   0  0  0  0  0  0  0  0  0  0  0  0
   -2.5964   -3.2301    2.4022 H   0  0  0  0  0  0  0  0  0  0  0  0
   -1.0412    0.1517    0.7482 N   0  0  0  0  0  0  0  0  0  0  0  0
   -0.6079    1.5223    0.6467 C   0  0  2  0  0  0  0  0  0  0  0  0
   -1.4540    2.3613    1.6035 C   0  0  0  0  0  0  0  0  0  0  0  0
   -2.1837    3.2749    1.2237 O   0  0  0  0  0  0  0  0  0  0  0  0
   -0.6435    2.0617   -0.8036 C   0  0  2  0  0  0  0  0  0  0  0  0
    0.3242    1.2985   -1.7350 C   0  0  0  0  0  0  0  0  0  0  0  0
   -0.3658    3.5708   -0.8129 C   0  0  0  0  0  0  0  0  0  0  0  0
    0.1253    1.6190   -3.2109 C   0  0  0  0  0  0  0  0  0  0  0  0
   -1.9022   -0.1128    0.2753 H   0  0  0  0  0  0  0  0  0  0  0  0
    0.4233    1.5395    1.0220 H   0  0  0  0  0  0  0  0  0  0  0  0
   -1.6609    1.9206   -1.1922 H   0  0  0  0  0  0  0  0  0  0  0  0
    1.3589    1.5518   -1.4768 H   0  0  0  0  0  0  0  0  0  0  0  0
    0.2177    0.2165   -1.5932 H   0  0  0  0  0  0  0  0  0  0  0  0
    0.6398    3.7840   -0.4345 H   0  0  0  0  0  0  0  0  0  0  0  0
   -0.4187    3.9771   -1.8276 H   0  0  0  0  0  0  0  0  0  0  0  0
   -1.0850    4.1155   -0.1925 H   0  0  0  0  0  0  0  0  0  0  0  0
   -0.8922    1.3893   -3.5396 H   0  0  0  0  0  0  0  0  0  0  0  0
    0.8104    1.0196   -3.8195 H   0  0  0  0  0  0  0  0  0  0  0  0
    0.3279    2.6750   -3.4150 H   0  0  0  0  0  0  0  0  0  0  0  0
   -1.3212    1.9466    2.9211 N   0  0  0  0  0  0  0  0  0  0  0  0
   -2.0297    2.5606    4.0208 C   0  0  2  0  0  0  0  0  0  0  0  0
   -2.1895    1.5170    5.1185 C   0  0  0  0  0  0  0  0  0  0  0  0
   -2.1438    0.3072    4.9057 O   0  0  0  0  0  0  0  0  0  0  0  0
   -3.3829    3.0949    3.5778 C   0  0  0  0  0  0  0  0  0  0  0  0
   -0.6947    1.1729    3.1226 H   0  0  0  0  0  0  0  0  0  0  0  0
   -1.4005    3.3803    4.3842 H   0  0  0  0  0  0  0  0  0  0  0  0
   -4.0273    2.2879    3.2105 H   0  0  0  0  0  0  0  0  0  0  0  0
   -3.9062    3.5850    4.4054 H   0  0  0  0  0  0  0  0  0  0  0  0
   -3.2680    3.8233    2.7679 H   0  0  0  0  0  0  0  0  0  0  0  0
   -2.4320    2.0950    6.3568 N   0  0  0  0  0  0  0  0  0  0  0  0
   -2.6316    1.3147    7.5557 C   0  0  0  0  0  0  0  0  0  0  0  0
   -2.4341    3.1070    6.4441 H   0  0  0  0  0  0  0  0  0  0  0  0
   -3.7063    1.1283    7.6978 H   0  0  0  0  0  0  0  0  0  0  0  0
   -2.1025    0.3550    7.4608 H   0  0  0  0  0  0  0  0  0  0  0  0
   -2.2376    1.8665    8.4219 H   0  0  0  0  0  0  0  0  0  0  0  0
  1  3  1  0  0  0  0
  1  7  1  0  0  0  0
  1  2  2  0  0  0  0
 37 38  1  0  0  0  0
 38 46  1  0  0  0  0
 38 39  2  0  0  0  0
  8  9  1  0  0  0  0
  9 17  1  0  0  0  0
  9 10  2  0  0  0  0
 18 19  1  0  0  0  0
 19 36  1  0  0  0  0
 19 20  2  0  0  0  0
 22 24  1  0  0  0  0
 37 40  1  0  0  0  0
  8 11  1  0  0  0  0
 21 23  1  0  0  0  0
 46 47  1  0  0  0  0
 21 22  1  0  0  0  0
 36 37  1  0  0  0  0
  7  8  1  0  0  0  0
 18 21  1  0  0  0  0
 17 18  1  0  0  0  0
  3  4  1  0  0  0  0
  3  5  1  0  0  0  0
  3  6  1  0  0  0  0
 24 33  1  0  0  0  0
 24 34  1  0  0  0  0
 24 35  1  0  0  0  0
 40 43  1  0  0  0  0
 40 44  1  0  0  0  0
 40 45  1  0  0  0  0
 11 14  1  0  0  0  0
 11 15  1  0  0  0  0
 11 16  1  0  0  0  0
 23 30  1  0  0  0  0
 23 31  1  0  0  0  0
 23 32  1  0  0  0  0
 47 49  1  0  0  0  0
 47 50  1  0  0  0  0
 47 51  1  0  0  0  0
 22 28  1  0  0  0  0
 22 29  1  0  0  0  0
 37 42  1  0  0  0  0
  8 13  1  0  0  0  0
 18 26  1  0  0  0  0
 21 27  1  0  0  0  0
 46 48  1  0  0  0  0
  7 12  1  0  0  0  0
 36 41  1  0  0  0  0
 17 25  1  0  0  0  0
M  END
$$$$

  -OEChem-05262214473D

 51 50  0     1  0  0  0  0  0999 V2000
    1.3524   -3.0009    1.4091 C   0  0  0  0  0  0  0  0  0  0  0  0
    1.8758   -1.9880    0.9598 O   0  0  0  0  0  0  0  0  0  0  0  0
    2.2030   -4.1782    1.7536 C   0  0  0  0  0  0  0  0  0  0  0  0
    2.3264   -4.8705    0.9053 H   0  0  0  0  0  0  0  0  0  0  0  0
    3.2257   -3.8876    2.0432 H   0  0  0  0  0  0  0  0  0  0  0  0
    1.8327   -4.8004    2.5839 H   0  0  0  0  0  0  0  0  0  0  0  0
    0.0005   -3.1873    1.6465 N   0  0  0  0  0  0  0  0  0  0  0  0
   -0.9949   -2.1807    1.3864 C   0  0  2  0  0  0  0  0  0  0  0  0
   -0.3083   -0.8216    1.4164 C   0  0  0  0  0  0  0  0  0  0  0  0
    0.7533   -0.6191    2.0022 O   0  0  0  0  0  0  0  0  0  0  0  0
   -2.1232   -2.2423    2.4042 C   0  0  0  0  0  0  0  0  0  0  0  0
   -0.3048   -4.0823    2.0245 H   0  0  0  0  0  0  0  0  0  0  0  0
   -1.3830   -2.3724    0.3801 H   0  0  0  0  0  0  0  0  0  0  0  0
   -1.7534   -2.0527    3.4185 H   0  0  0  0  0  0  0  0  0  0  0  0
   -2.8936   -1.4947    2.1882 H   0  0  0  0  0  0  0  0  0  0  0  0
   -2.5964   -3.2301    2.4022 H   0  0  0  0  0  0  0  0  0  0  0  0
   -1.0412    0.1517    0.7482 N   0  0  0  0  0  0  0  0  0  0  0  0
   -0.6079    1.5223    0.6467 C   0  0  2  0  0  0  0  0  0  0  0  0
   -1.4540    2.3613    1.6035 C   0  0  0  0  0  0  0  0  0  0  0  0
   -2.3734    3.0836    1.2237 O   0  0  0  0  0  0  0  0  0  0  0  0
   -0.6435    2.0617   -0.8036 C   0  0  2  0  0  0  0  0  0  0  0  0
    0.3242    1.2985   -1.7350 C   0  0  0  0  0  0  0  0  0  0  0  0
   -0.3658    3.5708   -0.8129 C   0  0  0  0  0  0  0  0  0  0  0  0
    0.1253    1.6190   -3.2109 C   0  0  0  0  0  0  0  0  0  0  0  0
   -1.9022   -0.1128    0.2753 H   0  0  0  0  0  0  0  0  0  0  0  0
    0.4233    1.5395    1.0220 H   0  0  0  0  0  0  0  0  0  0  0  0
   -1.6609    1.9206   -1.1922 H   0  0  0  0  0  0  0  0  0  0  0  0
    1.3589    1.5518   -1.4768 H   0  0  0  0  0  0  0  0  0  0  0  0
    0.2177    0.2165   -1.5932 H   0  0  0  0  0  0  0  0  0  0  0  0
    0.6398    3.7840   -0.4345 H   0  0  0  0  0  0  0  0  0  0  0  0
   -0.4187    3.9771   -1.8276 H   0  0  0  0  0  0  0  0  0  0  0  0
   -1.0850    4.1155   -0.1925 H   0  0  0  0  0  0  0  0  0  0  0  0
   -0.8922    1.3893   -3.5396 H   0  0  0  0  0  0  0  0  0  0  0  0
    0.8104    1.0196   -3.8195 H   0  0  0  0  0  0  0  0  0  0  0  0
    0.3279    2.6750   -3.4150 H   0  0  0  0  0  0  0  0  0  0  0  0
   -1.0811    2.1808    2.9279 N   0  0  0  0  0  0  0  0  0  0  0  0
   -1.7355    2.8432    4.0332 C   0  0  2  0  0  0  0  0  0  0  0  0
   -1.5685    1.9704    5.2700 C   0  0  0  0  0  0  0  0  0  0  0  0
   -1.3431    0.7633    5.2137 O   0  0  0  0  0  0  0  0  0  0  0  0
   -3.2065    3.0909    3.7373 C   0  0  0  0  0  0  0  0  0  0  0  0
   -0.3098    1.5518    3.1306 H   0  0  0  0  0  0  0  0  0  0  0  0
   -1.2151    3.7952    4.1843 H   0  0  0  0  0  0  0  0  0  0  0  0
   -3.7445    2.1484    3.5829 H   0  0  0  0  0  0  0  0  0  0  0  0
   -3.6942    3.6182    4.5638 H   0  0  0  0  0  0  0  0  0  0  0  0
   -3.3255    3.6938    2.8306 H   0  0  0  0  0  0  0  0  0  0  0  0
   -1.7437    2.6897    6.4439 N   0  0  0  0  0  0  0  0  0  0  0  0
   -1.6478    2.0836    7.7514 C   0  0  0  0  0  0  0  0  0  0  0  0
   -1.9089    3.6908    6.3966 H   0  0  0  0  0  0  0  0  0  0  0  0
   -2.6465    1.7606    8.0805 H   0  0  0  0  0  0  0  0  0  0  0  0
   -0.9782    1.2123    7.7032 H   0  0  0  0  0  0  0  0  0  0  0  0
   -1.2454    2.8163    8.4664 H   0  0  0  0  0  0  0  0  0  0  0  0
  1  3  1  0  0  0  0
  1  7  1  0  0  0  0
  1  2  2  0  0  0  0
 37 38  1  0  0  0  0
 38 46  1  0  0  0  0
 38 39  2  0  0  0  0
  8  9  1  0  0  0  0
  9 17  1  0  0  0  0
  9 10  2  0  0  0  0
 18 19  1  0  0  0  0
 19 36  1  0  0  0  0
 19 20  2  0  0  0  0
 22 24  1  0  0  0  0
 37 40  1  0  0  0  0
  8 11  1  0  0  0  0
 21 23  1  0  0  0  0
 46 47  1  0  0  0  0
 21 22  1  0  0  0  0
 36 37  1  0  0  0  0
  7  8  1  0  0  0  0
 18 21  1  0  0  0  0
 17 18  1  0  0  0  0
  3  4  1  0  0  0  0
  3  5  1  0  0  0  0
  3  6  1  0  0  0  0
 24 33  1  0  0  0  0
 24 34  1  0  0  0  0
 24 35  1  0  0  0  0
 40 43  1  0  0  0  0
 40 44  1  0  0  0  0
 40 45  1  0  0  0  0
 11 14  1  0  0  0  0
 11 15  1  0  0  0  0
 11 16  1  0  0  0  0
 23 30  1  0  0  0  0
 23 31  1  0  0  0  0
 23 32  1  0  0  0  0
 47 49  1  0  0  0  0
 47 50  1  0  0  0  0
 47 51  1  0  0  0  0
 22 28  1  0  0  0  0
 22 29  1  0  0  0  0
 37 42  1  0  0  0  0
  8 13  1  0  0  0  0
 18 26  1  0  0  0  0
 21 27  1  0  0  0  0
 46 48  1  0  0  0  0
  7 12  1  0  0  0  0
 36 41  1  0  0  0  0
 17 25  1  0  0  0  0
M  END
$$$$

  -OEChem-05262214473D

 51 50  0     1  0  0  0  0  0999 V2000
    1.3524   -3.0009    1.4091 C   0  0  0  0  0  0  0  0  0  0  0  0
    1.8758   -1.9880    0.9598 O   0  0  0  0  0  0  0  0  0  0  0  0
    2.2030   -4.1782    1.7536 C   0  0  0  0  0  0  0  0  0  0  0  0
    2.3264   -4.8705    0.9053 H   0  0  0  0  0  0  0  0  0  0  0  0
    3.2257   -3.8876    2.0432 H   0  0  0  0  0  0  0  0  0  0  0  0
    1.8327   -4.8004    2.5839 H   0  0  0  0  0  0  0  0  0  0  0  0
    0.0005   -3.1873    1.6465 N   0  0  0  0  0  0  0  0  0  0  0  0
   -0.9949   -2.1807    1.3864 C   0  0  2  0  0  0  0  0  0  0  0  0
   -0.3083   -0.8216    1.4164 C   0  0  0  0  0  0  0  0  0  0  0  0
    0.7533   -0.6191    2.0022 O   0  0  0  0  0  0  0  0  0  0  0  0
   -2.1232   -2.2423    2.4042 C   0  0  0  0  0  0  0  0  0  0  0  0
   -0.3048   -4.0823    2.0245 H   0  0  0  0  0  0  0  0  0  0  0  0
   -1.3830   -2.3724    0.3801 H   0  0  0  0  0  0  0  0  0  0  0  0
   -1.7534   -2.0527    3.4185 H   0  0  0  0  0  0  0  0  0  0  0  0
   -2.8936   -1.4947    2.1882 H   0  0  0  0  0  0  0  0  0  0  0  0
   -2.5964   -3.2301    2.4022 H   0  0  0  0  0  0  0  0  0  0  0  0
   -1.0412    0.1517    0.7482 N   0  0  0  0  0  0  0  0  0  0  0  0
   -0.6079    1.5223    0.6467 C   0  0  2  0  0  0  0  0  0  0  0  0
   -1.4540    2.3613    1.6035 C   0  0  0  0  0  0  0  0  0  0  0  0
   -2.5257    2.8680    1.2780 O   0  0  0  0  0  0  0  0  0  0  0  0
   -0.6435    2.0617   -0.8036 C   0  0  2  0  0  0  0  0  0  0  0  0
    0.3242    1.2985   -1.7350 C   0  0  0  0  0  0  0  0  0  0  0  0
   -0.3658    3.5708   -0.8129 C   0  0  0  0  0  0  0  0  0  0  0  0
    0.1253    1.6190   -3.2109 C   0  0  0  0  0  0  0  0  0  0  0  0
   -1.9022   -0.1128    0.2753 H   0  0  0  0  0  0  0  0  0  0  0  0
    0.4233    1.5395    1.0220 H   0  0  0  0  0  0  0  0  0  0  0  0
   -1.6609    1.9206   -1.1922 H   0  0  0  0  0  0  0  0  0  0  0  0
    1.3589    1.5518   -1.4768 H   0  0  0  0  0  0  0  0  0  0  0  0
    0.2177    0.2165   -1.5932 H   0  0  0  0  0  0  0  0  0  0  0  0
    0.6398    3.7840   -0.4345 H   0  0  0  0  0  0  0  0  0  0  0  0
   -0.4187    3.9771   -1.8276 H   0  0  0  0  0  0  0  0  0  0  0  0
   -1.0850    4.1155   -0.1925 H   0  0  0  0  0  0  0  0  0  0  0  0
   -0.8922    1.3893   -3.5396 H   0  0  0  0  0  0  0  0  0  0  0  0
    0.8104    1.0196   -3.8195 H   0  0  0  0  0  0  0  0  0  0  0  0
    0.3279    2.6750   -3.4150 H   0  0  0  0  0  0  0  0  0  0  0  0
   -0.8863    2.4470    2.8668 N   0  0  0  0  0  0  0  0  0  0  0  0
   -1.4954    3.1656    3.9628 C   0  0  2  0  0  0  0  0  0  0  0  0
   -1.0207    2.5306    5.2631 C   0  0  0  0  0  0  0  0  0  0  0  0
   -0.5998    1.3777    5.3322 O   0  0  0  0  0  0  0  0  0  0  0  0
   -3.0129    3.1384    3.8668 C   0  0  0  0  0  0  0  0  0  0  0  0
    0.0016    1.9814    3.0294 H   0  0  0  0  0  0  0  0  0  0  0  0
   -1.1318    4.1973    3.9054 H   0  0  0  0  0  0  0  0  0  0  0  0
   -3.3957    2.1128    3.9225 H   0  0  0  0  0  0  0  0  0  0  0  0
   -3.4723    3.7073    4.6819 H   0  0  0  0  0  0  0  0  0  0  0  0
   -3.3512    3.5684    2.9179 H   0  0  0  0  0  0  0  0  0  0  0  0
   -1.1628    3.3882    6.3450 N   0  0  0  0  0  0  0  0  0  0  0  0
   -0.7944    3.0138    7.6904 C   0  0  0  0  0  0  0  0  0  0  0  0
   -1.5029    4.3331    6.1923 H   0  0  0  0  0  0  0  0  0  0  0  0
   -1.6709    2.5980    8.2089 H   0  0  0  0  0  0  0  0  0  0  0  0
    0.0034    2.2573    7.6548 H   0  0  0  0  0  0  0  0  0  0  0  0
   -0.4347    3.9009    8.2323 H   0  0  0  0  0  0  0  0  0  0  0  0
  1  3  1  0  0  0  0
  1  7  1  0  0  0  0
  1  2  2  0  0  0  0
 37 38  1  0  0  0  0
 38 46  1  0  0  0  0
 38 39  2  0  0  0  0
  8  9  1  0  0  0  0
  9 17  1  0  0  0  0
  9 10  2  0  0  0  0
 18 19  1  0  0  0  0
 19 36  1  0  0  0  0
 19 20  2  0  0  0  0
 22 24  1  0  0  0  0
 37 40  1  0  0  0  0
  8 11  1  0  0  0  0
 21 23  1  0  0  0  0
 46 47  1  0  0  0  0
 21 22  1  0  0  0  0
 36 37  1  0  0  0  0
  7  8  1  0  0  0  0
 18 21  1  0  0  0  0
 17 18  1  0  0  0  0
  3  4  1  0  0  0  0
  3  5  1  0  0  0  0
  3  6  1  0  0  0  0
 24 33  1  0  0  0  0
 24 34  1  0  0  0  0
 24 35  1  0  0  0  0
 40 43  1  0  0  0  0
 40 44  1  0  0  0  0
 40 45  1  0  0  0  0
 11 14  1  0  0  0  0
 11 15  1  0  0  0  0
 11 16  1  0  0  0  0
 23 30  1  0  0  0  0
 23 31  1  0  0  0  0
 23 32  1  0  0  0  0
 47 49  1  0  0  0  0
 47 50  1  0  0  0  0
 47 51  1  0  0  0  0
 22 28  1  0  0  0  0
 22 29  1  0  0  0  0
 37 42  1  0  0  0  0
  8 13  1  0  0  0  0
 18 26  1  0  0  0  0
 21 27  1  0  0  0  0
 46 48  1  0  0  0  0
  7 12  1  0  0  0  0
 36 41  1  0  0  0  0
 17 25  1  0  0  0  0
M  END
$$$$

  -OEChem-05262214473D

 51 50  0     1  0  0  0  0  0999 V2000
    1.3524   -3.0009    1.4091 C   0  0  0  0  0  0  0  0  0  0  0  0
    1.8758   -1.9880    0.9598 O   0  0  0  0  0  0  0  0  0  0  0  0
    2.2030   -4.1782    1.7536 C   0  0  0  0  0  0  0  0  0  0  0  0
    2.3264   -4.8705    0.9053 H   0  0  0  0  0  0  0  0  0  0  0  0
    3.2257   -3.8876    2.0432 H   0  0  0  0  0  0  0  0  0  0  0  0
    1.8327   -4.8004    2.5839 H   0  0  0  0  0  0  0  0  0  0  0  0
    0.0005   -3.1873    1.6465 N   0  0  0  0  0  0  0  0  0  0  0  0
   -0.9949   -2.1807    1.3864 C   0  0  2  0  0  0  0  0  0  0  0  0
   -0.3083   -0.8216    1.4164 C   0  0  0  0  0  0  0  0  0  0  0  0
    0.7533   -0.6191    2.0022 O   0  0  0  0  0  0  0  0  0  0  0  0
   -2.1232   -2.2423    2.4042 C   0  0  0  0  0  0  0  0  0  0  0  0
   -0.3048   -4.0823    2.0245 H   0  0  0  0  0  0  0  0  0  0  0  0
   -1.3830   -2.3724    0.3801 H   0  0  0  0  0  0  0  0  0  0  0  0
   -1.7534   -2.0527    3.4185 H   0  0  0  0  0  0  0  0  0  0  0  0
   -2.8936   -1.4947    2.1882 H   0  0  0  0  0  0  0  0  0  0  0  0
   -2.5964   -3.2301    2.4022 H   0  0  0  0  0  0  0  0  0  0  0  0
   -1.0412    0.1517    0.7482 N   0  0  0  0  0  0  0  0  0  0  0  0
   -0.6079    1.5223    0.6467 C   0  0  2  0  0  0  0  0  0  0  0  0
   -1.4540    2.3613    1.6035 C   0  0  0  0  0  0  0  0  0  0  0  0
   -2.6302    2.6429    1.3830 O   0  0  0  0  0  0  0  0  0  0  0  0
   -0.6435    2.0617   -0.8036 C   0  0  2  0  0  0  0  0  0  0  0  0
    0.3242    1.2985   -1.7350 C   0  0  0  0  0  0  0  0  0  0  0  0
   -0.3658    3.5708   -0.8129 C   0  0  0  0  0  0  0  0  0  0  0  0
    0.1253    1.6190   -3.2109 C   0  0  0  0  0  0  0  0  0  0  0  0
   -1.9022   -0.1128    0.2753 H   0  0  0  0  0  0  0  0  0  0  0  0
    0.4233    1.5395    1.0220 H   0  0  0  0  0  0  0  0  0  0  0  0
   -1.6609    1.9206   -1.1922 H   0  0  0  0  0  0  0  0  0  0  0  0
    1.3589    1.5518   -1.4768 H   0  0  0  0  0  0  0  0  0  0  0  0
    0.2177    0.2165   -1.5932 H   0  0  0  0  0  0  0  0  0  0  0  0
    0.6398    3.7840   -0.4345 H   0  0  0  0  0  0  0  0  0  0  0  0
   -0.4187    3.9771   -1.8276 H   0  0  0  0  0  0  0  0  0  0  0  0
   -1.0850    4.1155   -0.1925 H   0  0  0  0  0  0  0  0  0  0  0  0
   -0.8922    1.3893   -3.5396 H   0  0  0  0  0  0  0  0  0  0  0  0
    0.8104    1.0196   -3.8195 H   0  0  0  0  0  0  0  0  0  0  0  0
    0.3279    2.6750   -3.4150 H   0  0  0  0  0  0  0  0  0  0  0  0
   -0.7499    2.7269    2.7420 N   0  0  0  0  0  0  0  0  0  0  0  0
   -1.3257    3.5059    3.8145 C   0  0  2  0  0  0  0  0  0  0  0  0
   -0.5834    3.1596    5.0984 C   0  0  0  0  0  0  0  0  0  0  0  0
    0.0354    2.1087    5.2529 O   0  0  0  0  0  0  0  0  0  0  0  0
   -2.8152    3.2342    3.9576 C   0  0  0  0  0  0  0  0  0  0  0  0
    0.2185    2.4322    2.8258 H   0  0  0  0  0  0  0  0  0  0  0  0
   -1.1560    4.5593    3.5666 H   0  0  0  0  0  0  0  0  0  0  0  0
   -3.0049    2.1836    4.2060 H   0  0  0  0  0  0  0  0  0  0  0  0
   -3.2556    3.8463    4.7517 H   0  0  0  0  0  0  0  0  0  0  0  0
   -3.3432    3.4556    3.0239 H   0  0  0  0  0  0  0  0  0  0  0  0
   -0.7290    4.1429    6.0669 N   0  0  0  0  0  0  0  0  0  0  0  0
   -0.1294    4.0418    7.3769 C   0  0  0  0  0  0  0  0  0  0  0  0
   -1.2438    4.9901    5.8454 H   0  0  0  0  0  0  0  0  0  0  0  0
   -0.8460    3.5833    8.0743 H   0  0  0  0  0  0  0  0  0  0  0  0
    0.7753    3.4189    7.3189 H   0  0  0  0  0  0  0  0  0  0  0  0
    0.1395    5.0464    7.7355 H   0  0  0  0  0  0  0  0  0  0  0  0
  1  3  1  0  0  0  0
  1  7  1  0  0  0  0
  1  2  2  0  0  0  0
 37 38  1  0  0  0  0
 38 46  1  0  0  0  0
 38 39  2  0  0  0  0
  8  9  1  0  0  0  0
  9 17  1  0  0  0  0
  9 10  2  0  0  0  0
 18 19  1  0  0  0  0
 19 36  1  0  0  0  0
 19 20  2  0  0  0  0
 22 24  1  0  0  0  0
 37 40  1  0  0  0  0
  8 11  1  0  0  0  0
 21 23  1  0  0  0  0
 46 47  1  0  0  0  0
 21 22  1  0  0  0  0
 36 37  1  0  0  0  0
  7  8  1  0  0  0  0
 18 21  1  0  0  0  0
 17 18  1  0  0  0  0
  3  4  1  0  0  0  0
  3  5  1  0  0  0  0
  3  6  1  0  0  0  0
 24 33  1  0  0  0  0
 24 34  1  0  0  0  0
 24 35  1  0  0  0  0
 40 43  1  0  0  0  0
 40 44  1  0  0  0  0
 40 45  1  0  0  0  0
 11 14  1  0  0  0  0
 11 15  1  0  0  0  0
 11 16  1  0  0  0  0
 23 30  1  0  0  0  0
 23 31  1  0  0  0  0
 23 32  1  0  0  0  0
 47 49  1  0  0  0  0
 47 50  1  0  0  0  0
 47 51  1  0  0  0  0
 22 28  1  0  0  0  0
 22 29  1  0  0  0  0
 37 42  1  0  0  0  0
  8 13  1  0  0  0  0
 18 26  1  0  0  0  0
 21 27  1  0  0  0  0
 46 48  1  0  0  0  0
  7 12  1  0  0  0  0
 36 41  1  0  0  0  0
 17 25  1  0  0  0  0
M  END
$$$$

  -OEChem-05262214473D

 51 50  0     1  0  0  0  0  0999 V2000
    1.3524   -3.0009    1.4091 C   0  0  0  0  0  0  0  0  0  0  0  0
    1.8758   -1.9880    0.9598 O   0  0  0  0  0  0  0  0  0  0  0  0
    2.2030   -4.1782    1.7536 C   0  0  0  0  0  0  0  0  0  0  0  0
    2.3264   -4.8705    0.9053 H   0  0  0  0  0  0  0  0  0  0  0  0
    3.2257   -3.8876    2.0432 H   0  0  0  0  0  0  0  0  0  0  0  0
    1.8327   -4.8004    2.5839 H   0  0  0  0  0  0  0  0  0  0  0  0
    0.0005   -3.1873    1.6465 N   0  0  0  0  0  0  0  0  0  0  0  0
   -0.9949   -2.1807    1.3864 C   0  0  2  0  0  0  0  0  0  0  0  0
   -0.3083   -0.8216    1.4164 C   0  0  0  0  0  0  0  0  0  0  0  0
    0.7533   -0.6191    2.0022 O   0  0  0  0  0  0  0  0  0  0  0  0
   -2.1232   -2.2423    2.4042 C   0  0  0  0  0  0  0  0  0  0  0  0
   -0.3048   -4.0823    2.0245 H   0  0  0  0  0  0  0  0  0  0  0  0
   -1.3830   -2.3724    0.3801 H   0  0  0  0  0  0  0  0  0  0  0  0
   -1.7534   -2.0527    3.4185 H   0  0  0  0  0  0  0  0  0  0  0  0
   -2.8936   -1.4947    2.1882 H   0  0  0  0  0  0  0  0  0  0  0  0
   -2.5964   -3.2301    2.4022 H   0  0  0  0  0  0  0  0  0  0  0  0
   -1.0412    0.1517    0.7482 N   0  0  0  0  0  0  0  0  0  0  0  0
   -0.6079    1.5223    0.6467 C   0  0  2  0  0  0  0  0  0  0  0  0
   -1.4540    2.3613    1.6035 C   0  0  0  0  0  0  0  0  0  0  0  0
   -2.6797    2.4236    1.5316 O   0  0  0  0  0  0  0  0  0  0  0  0
   -0.6435    2.0617   -0.8036 C   0  0  2  0  0  0  0  0  0  0  0  0
    0.3242    1.2985   -1.7350 C   0  0  0  0  0  0  0  0  0  0  0  0
   -0.3658    3.5708   -0.8129 C   0  0  0  0  0  0  0  0  0  0  0  0
    0.1253    1.6190   -3.2109 C   0  0  0  0  0  0  0  0  0  0  0  0
   -1.9022   -0.1128    0.2753 H   0  0  0  0  0  0  0  0  0  0  0  0
    0.4233    1.5395    1.0220 H   0  0  0  0  0  0  0  0  0  0  0  0
   -1.6609    1.9206   -1.1922 H   0  0  0  0  0  0  0  0  0  0  0  0
    1.3589    1.5518   -1.4768 H   0  0  0  0  0  0  0  0  0  0  0  0
    0.2177    0.2165   -1.5932 H   0  0  0  0  0  0  0  0  0  0  0  0
    0.6398    3.7840   -0.4345 H   0  0  0  0  0  0  0  0  0  0  0  0
   -0.4187    3.9771   -1.8276 H   0  0  0  0  0  0  0  0  0  0  0  0
   -1.0850    4.1155   -0.1925 H   0  0  0  0  0  0  0  0  0  0  0  0
   -0.8922    1.3893   -3.5396 H   0  0  0  0  0  0  0  0  0  0  0  0
    0.8104    1.0196   -3.8195 H   0  0  0  0  0  0  0  0  0  0  0  0
    0.3279    2.6750   -3.4150 H   0  0  0  0  0  0  0  0  0  0  0  0
   -0.6812    3.0014    2.5620 N   0  0  0  0  0  0  0  0  0  0  0  0
   -1.2380    3.8408    3.5983 C   0  0  2  0  0  0  0  0  0  0  0  0
   -0.2862    3.8144    4.7870 C   0  0  0  0  0  0  0  0  0  0  0  0
    0.5192    2.9063    4.9813 O   0  0  0  0  0  0  0  0  0  0  0  0
   -2.6268    3.3719    4.0035 C   0  0  0  0  0  0  0  0  0  0  0  0
    0.3260    2.8737    2.5337 H   0  0  0  0  0  0  0  0  0  0  0  0
   -1.2863    4.8565    3.1908 H   0  0  0  0  0  0  0  0  0  0  0  0
   -2.5985    2.3560    4.4142 H   0  0  0  0  0  0  0  0  0  0  0  0
   -3.0588    4.0256    4.7684 H   0  0  0  0  0  0  0  0  0  0  0  0
   -3.3022    3.3631    3.1412 H   0  0  0  0  0  0  0  0  0  0  0  0
   -0.4718    4.9023    5.6284 N   0  0  0  0  0  0  0  0  0  0  0  0
    0.3018    5.0977    6.8324 C   0  0  0  0  0  0  0  0  0  0  0  0
   -1.1493    5.6169    5.3793 H   0  0  0  0  0  0  0  0  0  0  0  0
   -0.2279    4.6495    7.6859 H   0  0  0  0  0  0  0  0  0  0  0  0
    1.2850    4.6178    6.7182 H   0  0  0  0  0  0  0  0  0  0  0  0
    0.4378    6.1747    7.0099 H   0  0  0  0  0  0  0  0  0  0  0  0
  1  3  1  0  0  0  0
  1  7  1  0  0  0  0
  1  2  2  0  0  0  0
 37 38  1  0  0  0  0
 38 46  1  0  0  0  0
 38 39  2  0  0  0  0
  8  9  1  0  0  0  0
  9 17  1  0  0  0  0
  9 10  2  0  0  0  0
 18 19  1  0  0  0  0
 19 36  1  0  0  0  0
 19 20  2  0  0  0  0
 22 24  1  0  0  0  0
 37 40  1  0  0  0  0
  8 11  1  0  0  0  0
 21 23  1  0  0  0  0
 46 47  1  0  0  0  0
 21 22  1  0  0  0  0
 36 37  1  0  0  0  0
  7  8  1  0  0  0  0
 18 21  1  0  0  0  0
 17 18  1  0  0  0  0
  3  4  1  0  0  0  0
  3  5  1  0  0  0  0
  3  6  1  0  0  0  0
 24 33  1  0  0  0  0
 24 34  1  0  0  0  0
 24 35  1  0  0  0  0
 40 43  1  0  0  0  0
 40 44  1  0  0  0  0
 40 45  1  0  0  0  0
 11 14  1  0  0  0  0
 11 15  1  0  0  0  0
 11 16  1  0  0  0  0
 23 30  1  0  0  0  0
 23 31  1  0  0  0  0
 23 32  1  0  0  0  0
 47 49  1  0  0  0  0
 47 50  1  0  0  0  0
 47 51  1  0  0  0  0
 22 28  1  0  0  0  0
 22 29  1  0  0  0  0
 37 42  1  0  0  0  0
  8 13  1  0  0  0  0
 18 26  1  0  0  0  0
 21 27  1  0  0  0  0
 46 48  1  0  0  0  0
  7 12  1  0  0  0  0
 36 41  1  0  0  0  0
 17 25  1  0  0  0  0
M  END
$$$$

  -OEChem-05262214473D

 51 50  0     1  0  0  0  0  0999 V2000
    1.3524   -3.0009    1.4091 C   0  0  0  0  0  0  0  0  0  0  0  0
    1.8758   -1.9880    0.9598 O   0  0  0  0  0  0  0  0  0  0  0  0
    2.2030   -4.1782    1.7536 C   0  0  0  0  0  0  0  0  0  0  0  0
    2.3264   -4.8705    0.9053 H   0  0  0  0  0  0  0  0  0  0  0  0
    3.2257   -3.8876    2.0432 H   0  0  0  0  0  0  0  0  0  0  0  0
    1.8327   -4.8004    2.5839 H   0  0  0  0  0  0  0  0  0  0  0  0
    0.0005   -3.1873    1.6465 N   0  0  0  0  0  0  0  0  0  0  0  0
   -0.9949   -2.1807    1.3864 C   0  0  2  0  0  0  0  0  0  0  0  0
   -0.3083   -0.8216    1.4164 C   0  0  0  0  0  0  0  0  0  0  0  0
    0.7533   -0.6191    2.0022 O   0  0  0  0  0  0  0  0  0  0  0  0
   -2.1232   -2.2423    2.4042 C   0  0  0  0  0  0  0  0  0  0  0  0
   -0.3048   -4.0823    2.0245 H   0  0  0  0  0  0  0  0  0  0  0  0
   -1.3830   -2.3724    0.3801 H   0  0  0  0  0  0  0  0  0  0  0  0
   -1.7534   -2.0527    3.4185 H   0  0  0  0  0  0  0  0  0  0  0  0
   -2.8936   -1.4947    2.1882 H   0  0  0  0  0  0  0  0  0  0  0  0
   -2.5964   -3.2301    2.4022 H   0  0  0  0  0  0  0  0  0  0  0  0
   -1.0412    0.1517    0.7482 N   0  0  0  0  0  0  0  0  0  0  0  0
   -0.6079    1.5223    0.6467 C   0  0  2  0  0  0  0  0  0  0  0  0
   -1.4540    2.3613    1.6035 C   0  0  0  0  0  0  0  0  0  0  0  0
   -2.6708    2.2250    1.7135 O   0  0  0  0  0  0  0  0  0  0  0  0
   -0.6435    2.0617   -0.8036 C   0  0  2  0  0  0  0  0  0  0  0  0
    0.3242    1.2985   -1.7350 C   0  0  0  0  0  0  0  0  0  0  0  0
   -0.3658    3.5708   -0.8129 C   0  0  0  0  0  0  0  0  0  0  0  0
    0.1253    1.6190   -3.2109 C   0  0  0  0  0  0  0  0  0  0  0  0
   -1.9022   -0.1128    0.2753 H   0  0  0  0  0  0  0  0  0  0  0  0
    0.4233    1.5395    1.0220 H   0  0  0  0  0  0  0  0  0  0  0  0
   -1.6609    1.9206   -1.1922 H   0  0  0  0  0  0  0  0  0  0  0  0
    1.3589    1.5518   -1.4768 H   0  0  0  0  0  0  0  0  0  0  0  0
    0.2177    0.2165   -1.5932 H   0  0  0  0  0  0  0  0  0  0  0  0
    0.6398    3.7840   -0.4345 H   0  0  0  0  0  0  0  0  0  0  0  0
   -0.4187    3.9771   -1.8276 H   0  0  0  0  0  0  0  0  0  0  0  0
   -1.0850    4.1155   -0.1925 H   0  0  0  0  0  0  0  0  0  0  0  0
   -0.8922    1.3893   -3.5396 H   0  0  0  0  0  0  0  0  0  0  0  0
    0.8104    1.0196   -3.8195 H   0  0  0  0  0  0  0  0  0  0  0  0
    0.3279    2.6750   -3.4150 H   0  0  0  0  0  0  0  0  0  0  0  0
   -0.6849    3.2520    2.3390 N   0  0  0  0  0  0  0  0  0  0  0  0
   -1.2383    4.1475    3.3291 C   0  0  2  0  0  0  0  0  0  0  0  0
   -0.1496    4.4504    4.3501 C   0  0  0  0  0  0  0  0  0  0  0  0
    0.8187    3.7162    4.5359 O   0  0  0  0  0  0  0  0  0  0  0  0
   -2.4606    3.5419    4.0014 C   0  0  0  0  0  0  0  0  0  0  0  0
    0.3168    3.2757    2.1731 H   0  0  0  0  0  0  0  0  0  0  0  0
   -1.5136    5.0686    2.8038 H   0  0  0  0  0  0  0  0  0  0  0  0
   -2.2044    2.6181    4.5328 H   0  0  0  0  0  0  0  0  0  0  0  0
   -2.8955    4.2331    4.7308 H   0  0  0  0  0  0  0  0  0  0  0  0
   -3.2309    3.2973    3.2620 H   0  0  0  0  0  0  0  0  0  0  0  0
   -0.4087    5.6147    5.0595 N   0  0  0  0  0  0  0  0  0  0  0  0
    0.4697    6.1094    6.0938 C   0  0  0  0  0  0  0  0  0  0  0  0
   -1.2259    6.1709    4.8258 H   0  0  0  0  0  0  0  0  0  0  0  0
    0.1410    5.7238    7.0701 H   0  0  0  0  0  0  0  0  0  0  0  0
    1.4976    5.7724    5.8938 H   0  0  0  0  0  0  0  0  0  0  0  0
    0.4400    7.2089    6.1050 H   0  0  0  0  0  0  0  0  0  0  0  0
  1  3  1  0  0  0  0
  1  7  1  0  0  0  0
  1  2  2  0  0  0  0
 37 38  1  0  0  0  0
 38 46  1  0  0  0  0
 38 39  2  0  0  0  0
  8  9  1  0  0  0  0
  9 17  1  0  0  0  0
  9 10  2  0  0  0  0
 18 19  1  0  0  0  0
 19 36  1  0  0  0  0
 19 20  2  0  0  0  0
 22 24  1  0  0  0  0
 37 40  1  0  0  0  0
  8 11  1  0  0  0  0
 21 23  1  0  0  0  0
 46 47  1  0  0  0  0
 21 22  1  0  0  0  0
 36 37  1  0  0  0  0
  7  8  1  0  0  0  0
 18 21  1  0  0  0  0
 17 18  1  0  0  0  0
  3  4  1  0  0  0  0
  3  5  1  0  0  0  0
  3  6  1  0  0  0  0
 24 33  1  0  0  0  0
 24 34  1  0  0  0  0
 24 35  1  0  0  0  0
 40 43  1  0  0  0  0
 40 44  1  0  0  0  0
 40 45  1  0  0  0  0
 11 14  1  0  0  0  0
 11 15  1  0  0  0  0
 11 16  1  0  0  0  0
 23 30  1  0  0  0  0
 23 31  1  0  0  0  0
 23 32  1  0  0  0  0
 47 49  1  0  0  0  0
 47 50  1  0  0  0  0
 47 51  1  0  0  0  0
 22 28  1  0  0  0  0
 22 29  1  0  0  0  0
 37 42  1  0  0  0  0
  8 13  1  0  0  0  0
 18 26  1  0  0  0  0
 21 27  1  0  0  0  0
 46 48  1  0  0  0  0
  7 12  1  0  0  0  0
 36 41  1  0  0  0  0
 17 25  1  0  0  0  0
M  END
$$$$

  -OEChem-05262214473D

 51 50  0     1  0  0  0  0  0999 V2000
    1.3524   -3.0009    1.4091 C   0  0  0  0  0  0  0  0  0  0  0  0
    1.8758   -1.9880    0.9598 O   0  0  0  0  0  0  0  0  0  0  0  0
    2.2030   -4.1782    1.7536 C   0  0  0  0  0  0  0  0  0  0  0  0
    2.3264   -4.8705    0.9053 H   0  0  0  0  0  0  0  0  0  0  0  0
    3.2257   -3.8876    2.0432 H   0  0  0  0  0  0  0  0  0  0  0  0
    1.8327   -4.8004    2.5839 H   0  0  0  0  0  0  0  0  0  0  0  0
    0.0005   -3.1873    1.6465 N   0  0  0  0  0  0  0  0  0  0  0  0
   -0.9949   -2.1807    1.3864 C   0  0  2  0  0  0  0  0  0  0  0  0
   -0.3083   -0.8216    1.4164 C   0  0  0  0  0  0  0  0  0  0  0  0
    0.7533   -0.6191    2.0022 O   0  0  0  0  0  0  0  0  0  0  0  0
   -2.1232   -2.2423    2.4042 C   0  0  0  0  0  0  0  0  0  0  0  0
   -0.3048   -4.0823    2.0245 H   0  0  0  0  0  0  0  0  0  0  0  0
   -1.3830   -2.3724    0.3801 H   0  0  0  0  0  0  0  0  0  0  0  0
   -1.7534   -2.0527    3.4185 H   0  0  0  0  0  0  0  0  0  0  0  0
   -2.8936   -1.4947    2.1882 H   0  0  0  0  0  0  0  0  0  0  0  0
   -2.5964   -3.2301    2.4022 H   0  0  0  0  0  0  0  0  0  0  0  0
   -1.0412    0.1517    0.7482 N   0  0  0  0  0  0  0  0  0  0  0  0
   -0.6079    1.5223    0.6467 C   0  0  2  0  0  0  0  0  0  0  0  0
   -1.4540    2.3613    1.6035 C   0  0  0  0  0  0  0  0  0  0  0  0
   -2.6042    2.0607    1.9165 O   0  0  0  0  0  0  0  0  0  0  0  0
   -0.6435    2.0617   -0.8036 C   0  0  2  0  0  0  0  0  0  0  0  0
    0.3242    1.2985   -1.7350 C   0  0  0  0  0  0  0  0  0  0  0  0
   -0.3658    3.5708   -0.8129 C   0  0  0  0  0  0  0  0  0  0  0  0
    0.1253    1.6190   -3.2109 C   0  0  0  0  0  0  0  0  0  0  0  0
   -1.9022   -0.1128    0.2753 H   0  0  0  0  0  0  0  0  0  0  0  0
    0.4233    1.5395    1.0220 H   0  0  0  0  0  0  0  0  0  0  0  0
   -1.6609    1.9206   -1.1922 H   0  0  0  0  0  0  0  0  0  0  0  0
    1.3589    1.5518   -1.4768 H   0  0  0  0  0  0  0  0  0  0  0  0
    0.2177    0.2165   -1.5932 H   0  0  0  0  0  0  0  0  0  0  0  0
    0.6398    3.7840   -0.4345 H   0  0  0  0  0  0  0  0  0  0  0  0
   -0.4187    3.9771   -1.8276 H   0  0  0  0  0  0  0  0  0  0  0  0
   -1.0850    4.1155   -0.1925 H   0  0  0  0  0  0  0  0  0  0  0  0
   -0.8922    1.3893   -3.5396 H   0  0  0  0  0  0  0  0  0  0  0  0
    0.8104    1.0196   -3.8195 H   0  0  0  0  0  0  0  0  0  0  0  0
    0.3279    2.6750   -3.4150 H   0  0  0  0  0  0  0  0  0  0  0  0
   -0.7609    3.4614    2.0882 N   0  0  0  0  0  0  0  0  0  0  0  0
   -1.3266    4.4052    3.0251 C   0  0  2  0  0  0  0  0  0  0  0  0
   -0.1827    5.0243    3.8176 C   0  0  0  0  0  0  0  0  0  0  0  0
    0.9135    4.4833    3.9471 O   0  0  0  0  0  0  0  0  0  0  0  0
   -2.3280    3.7328    3.9513 C   0  0  0  0  0  0  0  0  0  0  0  0
    0.1915    3.6109    1.7684 H   0  0  0  0  0  0  0  0  0  0  0  0
   -1.8226    5.1811    2.4319 H   0  0  0  0  0  0  0  0  0  0  0  0
   -1.8493    2.9523    4.5538 H   0  0  0  0  0  0  0  0  0  0  0  0
   -2.7767    4.4546    4.6416 H   0  0  0  0  0  0  0  0  0  0  0  0
   -3.1342    3.2625    3.3780 H   0  0  0  0  0  0  0  0  0  0  0  0
   -0.5441    6.2315    4.3990 N   0  0  0  0  0  0  0  0  0  0  0  0
    0.3631    7.0080    5.2115 C   0  0  0  0  0  0  0  0  0  0  0  0
   -1.4683    6.6143    4.2227 H   0  0  0  0  0  0  0  0  0  0  0  0
    0.2359    6.7331    6.2690 H   0  0  0  0  0  0  0  0  0  0  0  0
    1.3987    6.8039    4.9018 H   0  0  0  0  0  0  0  0  0  0  0  0
    0.1460    8.0786    5.0824 H   0  0  0  0  0  0  0  0  0  0  0  0
  1  3  1  0  0  0  0
  1  7  1  0  0  0  0
  1  2  2  0  0  0  0
 37 38  1  0  0  0  0
 38 46  1  0  0  0  0
 38 39  2  0  0  0  0
  8  9  1  0  0  0  0
  9 17  1  0  0  0  0
  9 10  2  0  0  0  0
 18 19  1  0  0  0  0
 19 36  1  0  0  0  0
 19 20  2  0  0  0  0
 22 24  1  0  0  0  0
 37 40  1  0  0  0  0
  8 11  1  0  0  0  0
 21 23  1  0  0  0  0
 46 47  1  0  0  0  0
 21 22  1  0  0  0  0
 36 37  1  0  0  0  0
  7  8  1  0  0  0  0
 18 21  1  0  0  0  0
 17 18  1  0  0  0  0
  3  4  1  0  0  0  0
  3  5  1  0  0  0  0
  3  6  1  0  0  0  0
 24 33  1  0  0  0  0
 24 34  1  0  0  0  0
 24 35  1  0  0  0  0
 40 43  1  0  0  0  0
 40 44  1  0  0  0  0
 40 45  1  0  0  0  0
 11 14  1  0  0  0  0
 11 15  1  0  0  0  0
 11 16  1  0  0  0  0
 23 30  1  0  0  0  0
 23 31  1  0  0  0  0
 23 32  1  0  0  0  0
 47 49  1  0  0  0  0
 47 50  1  0  0  0  0
 47 51  1  0  0  0  0
 22 28  1  0  0  0  0
 22 29  1  0  0  0  0
 37 42  1  0  0  0  0
  8 13  1  0  0  0  0
 18 26  1  0  0  0  0
 21 27  1  0  0  0  0
 46 48  1  0  0  0  0
  7 12  1  0  0  0  0
 36 41  1  0  0  0  0
 17 25  1  0  0  0  0
M  END
$$$$

  -OEChem-05262214473D

 51 50  0     1  0  0  0  0  0999 V2000
    1.3524   -3.0009    1.4091 C   0  0  0  0  0  0  0  0  0  0  0  0
    1.8758   -1.9880    0.9598 O   0  0  0  0  0  0  0  0  0  0  0  0
    2.2030   -4.1782    1.7536 C   0  0  0  0  0  0  0  0  0  0  0  0
    2.3264   -4.8705    0.9053 H   0  0  0  0  0  0  0  0  0  0  0  0
    3.2257   -3.8876    2.0432 H   0  0  0  0  0  0  0  0  0  0  0  0
    1.8327   -4.8004    2.5839 H   0  0  0  0  0  0  0  0  0  0  0  0
    0.0005   -3.1873    1.6465 N   0  0  0  0  0  0  0  0  0  0  0  0
   -0.9949   -2.1807    1.3864 C   0  0  2  0  0  0  0  0  0  0  0  0
   -0.3083   -0.8216    1.4164 C   0  0  0  0  0  0  0  0  0  0  0  0
    0.7533   -0.6191    2.0022 O   0  0  0  0  0  0  0  0  0  0  0  0
   -2.1232   -2.2423    2.4042 C   0  0  0  0  0  0  0  0  0  0  0  0
   -0.3048   -4.0823    2.0245 H   0  0  0  0  0  0  0  0  0  0  0  0
   -1.3830   -2.3724    0.3801 H   0  0  0  0  0  0  0  0  0  0  0  0
   -1.7534   -2.0527    3.4185 H   0  0  0  0  0  0  0  0  0  0  0  0
   -2.8936   -1.4947    2.1882 H   0  0  0  0  0  0  0  0  0  0  0  0
   -2.5964   -3.2301    2.4022 H   0  0  0  0  0  0  0  0  0  0  0  0
   -1.0412    0.1517    0.7482 N   0  0  0  0  0  0  0  0  0  0  0  0
   -0.6079    1.5223    0.6467 C   0  0  2  0  0  0  0  0  0  0  0  0
   -1.4540    2.3613    1.6035 C   0  0  0  0  0  0  0  0  0  0  0  0
   -2.4845    1.9419    2.1266 O   0  0  0  0  0  0  0  0  0  0  0  0
   -0.6435    2.0617   -0.8036 C   0  0  2  0  0  0  0  0  0  0  0  0
    0.3242    1.2985   -1.7350 C   0  0  0  0  0  0  0  0  0  0  0  0
   -0.3658    3.5708   -0.8129 C   0  0  0  0  0  0  0  0  0  0  0  0
    0.1253    1.6190   -3.2109 C   0  0  0  0  0  0  0  0  0  0  0  0
   -1.9022   -0.1128    0.2753 H   0  0  0  0  0  0  0  0  0  0  0  0
    0.4233    1.5395    1.0220 H   0  0  0  0  0  0  0  0  0  0  0  0
   -1.6609    1.9206   -1.1922 H   0  0  0  0  0  0  0  0  0  0  0  0
    1.3589    1.5518   -1.4768 H   0  0  0  0  0  0  0  0  0  0  0  0
    0.2177    0.2165   -1.5932 H   0  0  0  0  0  0  0  0  0  0  0  0
    0.6398    3.7840   -0.4345 H   0  0  0  0  0  0  0  0  0  0  0  0
   -0.4187    3.9771   -1.8276 H   0  0  0  0  0  0  0  0  0  0  0  0
   -1.0850    4.1155   -0.1925 H   0  0  0  0  0  0  0  0  0  0  0  0
   -0.8922    1.3893   -3.5396 H   0  0  0  0  0  0  0  0  0  0  0  0
    0.8104    1.0196   -3.8195 H   0  0  0  0  0  0  0  0  0  0  0  0
    0.3279    2.6750   -3.4150 H   0  0  0  0  0  0  0  0  0  0  0  0
   -0.9038    3.6155    1.8267 N   0  0  0  0  0  0  0  0  0  0  0  0
   -1.4967    4.5962    2.7071 C   0  0  2  0  0  0  0  0  0  0  0  0
   -0.3834    5.4969    3.2256 C   0  0  0  0  0  0  0  0  0  0  0  0
    0.7970    5.1552    3.2550 O   0  0  0  0  0  0  0  0  0  0  0  0
   -2.2379    3.9315    3.8567 C   0  0  0  0  0  0  0  0  0  0  0  0
   -0.0413    3.8563    1.3473 H   0  0  0  0  0  0  0  0  0  0  0  0
   -2.1921    5.1865    2.1005 H   0  0  0  0  0  0  0  0  0  0  0  0
   -1.5574    3.3355    4.4758 H   0  0  0  0  0  0  0  0  0  0  0  0
   -2.7106    4.6751    4.5069 H   0  0  0  0  0  0  0  0  0  0  0  0
   -3.0187    3.2612    3.4813 H   0  0  0  0  0  0  0  0  0  0  0  0
   -0.8686    6.7108    3.6918 N   0  0  0  0  0  0  0  0  0  0  0  0
   -0.0109    7.7323    4.2457 C   0  0  0  0  0  0  0  0  0  0  0  0
   -1.8600    6.9168    3.6110 H   0  0  0  0  0  0  0  0  0  0  0  0
    0.0500    7.6085    5.3370 H   0  0  0  0  0  0  0  0  0  0  0  0
    0.9951    7.6422    3.8099 H   0  0  0  0  0  0  0  0  0  0  0  0
   -0.4243    8.7244    4.0118 H   0  0  0  0  0  0  0  0  0  0  0  0
  1  3  1  0  0  0  0
  1  7  1  0  0  0  0
  1  2  2  0  0  0  0
 37 38  1  0  0  0  0
 38 46  1  0  0  0  0
 38 39  2  0  0  0  0
  8  9  1  0  0  0  0
  9 17  1  0  0  0  0
  9 10  2  0  0  0  0
 18 19  1  0  0  0  0
 19 36  1  0  0  0  0
 19 20  2  0  0  0  0
 22 24  1  0  0  0  0
 37 40  1  0  0  0  0
  8 11  1  0  0  0  0
 21 23  1  0  0  0  0
 46 47  1  0  0  0  0
 21 22  1  0  0  0  0
 36 37  1  0  0  0  0
  7  8  1  0  0  0  0
 18 21  1  0  0  0  0
 17 18  1  0  0  0  0
  3  4  1  0  0  0  0
  3  5  1  0  0  0  0
  3  6  1  0  0  0  0
 24 33  1  0  0  0  0
 24 34  1  0  0  0  0
 24 35  1  0  0  0  0
 40 43  1  0  0  0  0
 40 44  1  0  0  0  0
 40 45  1  0  0  0  0
 11 14  1  0  0  0  0
 11 15  1  0  0  0  0
 11 16  1  0  0  0  0
 23 30  1  0  0  0  0
 23 31  1  0  0  0  0
 23 32  1  0  0  0  0
 47 49  1  0  0  0  0
 47 50  1  0  0  0  0
 47 51  1  0  0  0  0
 22 28  1  0  0  0  0
 22 29  1  0  0  0  0
 37 42  1  0  0  0  0
  8 13  1  0  0  0  0
 18 26  1  0  0  0  0
 21 27  1  0  0  0  0
 46 48  1  0  0  0  0
  7 12  1  0  0  0  0
 36 41  1  0  0  0  0
 17 25  1  0  0  0  0
M  END
$$$$

  -OEChem-05262214473D

 51 50  0     1  0  0  0  0  0999 V2000
    1.3524   -3.0009    1.4091 C   0  0  0  0  0  0  0  0  0  0  0  0
    1.8758   -1.9880    0.9598 O   0  0  0  0  0  0  0  0  0  0  0  0
    2.2030   -4.1782    1.7536 C   0  0  0  0  0  0  0  0  0  0  0  0
    2.3264   -4.8705    0.9053 H   0  0  0  0  0  0  0  0  0  0  0  0
    3.2257   -3.8876    2.0432 H   0  0  0  0  0  0  0  0  0  0  0  0
    1.8327   -4.8004    2.5839 H   0  0  0  0  0  0  0  0  0  0  0  0
    0.0005   -3.1873    1.6465 N   0  0  0  0  0  0  0  0  0  0  0  0
   -0.9949   -2.1807    1.3864 C   0  0  2  0  0  0  0  0  0  0  0  0
   -0.3083   -0.8216    1.4164 C   0  0  0  0  0  0  0  0  0  0  0  0
    0.7533   -0.6191    2.0022 O   0  0  0  0  0  0  0  0  0  0  0  0
   -2.1232   -2.2423    2.4042 C   0  0  0  0  0  0  0  0  0  0  0  0
   -0.3048   -4.0823    2.0245 H   0  0  0  0  0  0  0  0  0  0  0  0
   -1.3830   -2.3724    0.3801 H   0  0  0  0  0  0  0  0  0  0  0  0
   -1.7534   -2.0527    3.4185 H   0  0  0  0  0  0  0  0  0  0  0  0
   -2.8936   -1.4947    2.1882 H   0  0  0  0  0  0  0  0  0  0  0  0
   -2.5964   -3.2301    2.4022 H   0  0  0  0  0  0  0  0  0  0  0  0
   -1.0412    0.1517    0.7482 N   0  0  0  0  0  0  0  0  0  0  0  0
   -0.6079    1.5223    0.6467 C   0  0  2  0  0  0  0  0  0  0  0  0
   -1.1694    2.2891    1.8434 C   0  0  0  0  0  0  0  0  0  0  0  0
   -1.8437    1.7552    2.7219 O   0  0  0  0  0  0  0  0  0  0  0  0
   -0.9833    2.1765   -0.7049 C   0  0  2  0  0  0  0  0  0  0  0  0
   -0.2955    1.4821   -1.9013 C   0  0  0  0  0  0  0  0  0  0  0  0
   -0.6743    3.6790   -0.6684 C   0  0  0  0  0  0  0  0  0  0  0  0
   -0.8416    1.9215   -3.2539 C   0  0  0  0  0  0  0  0  0  0  0  0
   -1.9022   -0.1128    0.2753 H   0  0  0  0  0  0  0  0  0  0  0  0
    0.4839    1.5006    0.7560 H   0  0  0  0  0  0  0  0  0  0  0  0
   -2.0685    2.0755   -0.8398 H   0  0  0  0  0  0  0  0  0  0  0  0
    0.7775    1.7051   -1.8882 H   0  0  0  0  0  0  0  0  0  0  0  0
   -0.3942    0.3932   -1.8197 H   0  0  0  0  0  0  0  0  0  0  0  0
    0.3990    3.8527   -0.5351 H   0  0  0  0  0  0  0  0  0  0  0  0
   -0.9633    4.1658   -1.6050 H   0  0  0  0  0  0  0  0  0  0  0  0
   -1.2037    4.1783    0.1497 H   0  0  0  0  0  0  0  0  0  0  0  0
   -1.9147    1.7274   -3.3375 H   0  0  0  0  0  0  0  0  0  0  0  0
   -0.3438    1.3670   -4.0562 H   0  0  0  0  0  0  0  0  0  0  0  0
   -0.6658    2.9887   -3.4213 H   0  0  0  0  0  0  0  0  0  0  0  0
   -0.8004    3.6267    1.8282 N   0  0  0  0  0  0  0  0  0  0  0  0
   -1.1836    4.5666    2.8569 C   0  0  2  0  0  0  0  0  0  0  0  0
   -0.1303    5.6655    2.9060 C   0  0  0  0  0  0  0  0  0  0  0  0
    1.0166    5.5144    2.4902 O   0  0  0  0  0  0  0  0  0  0  0  0
   -1.3192    3.8829    4.2085 C   0  0  0  0  0  0  0  0  0  0  0  0
   -0.2325    3.9618    1.0557 H   0  0  0  0  0  0  0  0  0  0  0  0
   -2.1448    4.9946    2.5520 H   0  0  0  0  0  0  0  0  0  0  0  0
   -0.3660    3.4480    4.5306 H   0  0  0  0  0  0  0  0  0  0  0  0
   -1.6373    4.5907    4.9811 H   0  0  0  0  0  0  0  0  0  0  0  0
   -2.0556    3.0733    4.1637 H   0  0  0  0  0  0  0  0  0  0  0  0
   -0.6090    6.8208    3.5078 N   0  0  0  0  0  0  0  0  0  0  0  0
    0.2034    8.0017    3.6850 C   0  0  0  0  0  0  0  0  0  0  0  0
   -1.5791    6.8639    3.8059 H   0  0  0  0  0  0  0  0  0  0  0  0
    0.6851    7.9711    4.6735 H   0  0  0  0  0  0  0  0  0  0  0  0
    0.9753    8.0365    2.9021 H   0  0  0  0  0  0  0  0  0  0  0  0
   -0.4313    8.8973    3.6142 H   0  0  0  0  0  0  0  0  0  0  0  0
  1  3  1  0  0  0  0
  1  7  1  0  0  0  0
  1  2  2  0  0  0  0
 37 38  1  0  0  0  0
 38 46  1  0  0  0  0
 38 39  2  0  0  0  0
  8  9  1  0  0  0  0
  9 17  1  0  0  0  0
  9 10  2  0  0  0  0
 18 19  1  0  0  0  0
 19 36  1  0  0  0  0
 19 20  2  0  0  0  0
 22 24  1  0  0  0  0
 37 40  1  0  0  0  0
  8 11  1  0  0  0  0
 21 23  1  0  0  0  0
 46 47  1  0  0  0  0
 21 22  1  0  0  0  0
 36 37  1  0  0  0  0
  7  8  1  0  0  0  0
 18 21  1  0  0  0  0
 17 18  1  0  0  0  0
  3  4  1  0  0  0  0
  3  5  1  0  0  0  0
  3  6  1  0  0  0  0
 24 33  1  0  0  0  0
 24 34  1  0  0  0  0
 24 35  1  0  0  0  0
 40 43  1  0  0  0  0
 40 44  1  0  0  0  0
 40 45  1  0  0  0  0
 11 14  1  0  0  0  0
 11 15  1  0  0  0  0
 11 16  1  0  0  0  0
 23 30  1  0  0  0  0
 23 31  1  0  0  0  0
 23 32  1  0  0  0  0
 47 49  1  0  0  0  0
 47 50  1  0  0  0  0
 47 51  1  0  0  0  0
 22 28  1  0  0  0  0
 22 29  1  0  0  0  0
 37 42  1  0  0  0  0
  8 13  1  0  0  0  0
 18 26  1  0  0  0  0
 21 27  1  0  0  0  0
 46 48  1  0  0  0  0
  7 12  1  0  0  0  0
 36 41  1  0  0  0  0
 17 25  1  0  0  0  0
M  END
$$$$

  -OEChem-05262214473D

 51 50  0     1  0  0  0  0  0999 V2000
    1.3524   -3.0009    1.4091 C   0  0  0  0  0  0  0  0  0  0  0  0
    1.8758   -1.9880    0.9598 O   0  0  0  0  0  0  0  0  0  0  0  0
    2.2030   -4.1782    1.7536 C   0  0  0  0  0  0  0  0  0  0  0  0
    2.3264   -4.8705    0.9053 H   0  0  0  0  0  0  0  0  0  0  0  0
    3.2257   -3.8876    2.0432 H   0  0  0  0  0  0  0  0  0  0  0  0
    1.8327   -4.8004    2.5839 H   0  0  0  0  0  0  0  0  0  0  0  0
    0.0005   -3.1873    1.6465 N   0  0  0  0  0  0  0  0  0  0  0  0
   -0.9949   -2.1807    1.3864 C   0  0  2  0  0  0  0  0  0  0  0  0
   -0.3083   -0.8216    1.4164 C   0  0  0  0  0  0  0  0  0  0  0  0
    0.7533   -0.6191    2.0022 O   0  0  0  0  0  0  0  0  0  0  0  0
   -2.1232   -2.2423    2.4042 C   0  0  0  0  0  0  0  0  0  0  0  0
   -0.3048   -4.0823    2.0245 H   0  0  0  0  0  0  0  0  0  0  0  0
   -1.3830   -2.3724    0.3801 H   0  0  0  0  0  0  0  0  0  0  0  0
   -1.7534   -2.0527    3.4185 H   0  0  0  0  0  0  0  0  0  0  0  0
   -2.8936   -1.4947    2.1882 H   0  0  0  0  0  0  0  0  0  0  0  0
   -2.5964   -3.2301    2.4022 H   0  0  0  0  0  0  0  0  0  0  0  0
   -1.0412    0.1517    0.7482 N   0  0  0  0  0  0  0  0  0  0  0  0
   -0.6079    1.5223    0.6467 C   0  0  2  0  0  0  0  0  0  0  0  0
   -1.1694    2.2891    1.8434 C   0  0  0  0  0  0  0  0  0  0  0  0
   -1.6067    1.7317    2.8481 O   0  0  0  0  0  0  0  0  0  0  0  0
   -0.9833    2.1765   -0.7049 C   0  0  2  0  0  0  0  0  0  0  0  0
   -0.2955    1.4821   -1.9013 C   0  0  0  0  0  0  0  0  0  0  0  0
   -0.6743    3.6790   -0.6684 C   0  0  0  0  0  0  0  0  0  0  0  0
   -0.8416    1.9215   -3.2539 C   0  0  0  0  0  0  0  0  0  0  0  0
   -1.9022   -0.1128    0.2753 H   0  0  0  0  0  0  0  0  0  0  0  0
    0.4839    1.5006    0.7560 H   0  0  0  0  0  0  0  0  0  0  0  0
   -2.0685    2.0755   -0.8398 H   0  0  0  0  0  0  0  0  0  0  0  0
    0.7775    1.7051   -1.8882 H   0  0  0  0  0  0  0  0  0  0  0  0
   -0.3942    0.3932   -1.8197 H   0  0  0  0  0  0  0  0  0  0  0  0
    0.3990    3.8527   -0.5351 H   0  0  0  0  0  0  0  0  0  0  0  0
   -0.9633    4.1658   -1.6050 H   0  0  0  0  0  0  0  0  0  0  0  0
   -1.2037    4.1783    0.1497 H   0  0  0  0  0  0  0  0  0  0  0  0
   -1.9147    1.7274   -3.3375 H   0  0  0  0  0  0  0  0  0  0  0  0
   -0.3438    1.3670   -4.0562 H   0  0  0  0  0  0  0  0  0  0  0  0
   -0.6658    2.9887   -3.4213 H   0  0  0  0  0  0  0  0  0  0  0  0
   -1.0925    3.6634    1.6676 N   0  0  0  0  0  0  0  0  0  0  0  0
   -1.5374    4.6157    2.6594 C   0  0  2  0  0  0  0  0  0  0  0  0
   -0.7389    5.8988    2.4709 C   0  0  0  0  0  0  0  0  0  0  0  0
    0.3559    5.9317    1.9128 O   0  0  0  0  0  0  0  0  0  0  0  0
   -1.3638    4.0695    4.0680 C   0  0  0  0  0  0  0  0  0  0  0  0
   -0.7043    4.0177    0.7985 H   0  0  0  0  0  0  0  0  0  0  0  0
   -2.5963    4.8110    2.4579 H   0  0  0  0  0  0  0  0  0  0  0  0
   -0.3092    3.8677    4.2883 H   0  0  0  0  0  0  0  0  0  0  0  0
   -1.7277    4.7806    4.8170 H   0  0  0  0  0  0  0  0  0  0  0  0
   -1.9148    3.1310    4.1928 H   0  0  0  0  0  0  0  0  0  0  0  0
   -1.3726    6.9959    3.0373 N   0  0  0  0  0  0  0  0  0  0  0  0
   -0.8096    8.3255    3.0022 C   0  0  0  0  0  0  0  0  0  0  0  0
   -2.2873    6.8797    3.4634 H   0  0  0  0  0  0  0  0  0  0  0  0
   -0.2170    8.4975    3.9128 H   0  0  0  0  0  0  0  0  0  0  0  0
   -0.1618    8.4260    2.1189 H   0  0  0  0  0  0  0  0  0  0  0  0
   -1.6213    9.0659    2.9478 H   0  0  0  0  0  0  0  0  0  0  0  0
  1  3  1  0  0  0  0
  1  7  1  0  0  0  0
  1  2  2  0  0  0  0
 37 38  1  0  0  0  0
 38 46  1  0  0  0  0
 38 39  2  0  0  0  0
  8  9  1  0  0  0  0
  9 17  1  0  0  0  0
  9 10  2  0  0  0  0
 18 19  1  0  0  0  0
 19 36  1  0  0  0  0
 19 20  2  0  0  0  0
 22 24  1  0  0  0  0
 37 40  1  0  0  0  0
  8 11  1  0  0  0  0
 21 23  1  0  0  0  0
 46 47  1  0  0  0  0
 21 22  1  0  0  0  0
 36 37  1  0  0  0  0
  7  8  1  0  0  0  0
 18 21  1  0  0  0  0
 17 18  1  0  0  0  0
  3  4  1  0  0  0  0
  3  5  1  0  0  0  0
  3  6  1  0  0  0  0
 24 33  1  0  0  0  0
 24 34  1  0  0  0  0
 24 35  1  0  0  0  0
 40 43  1  0  0  0  0
 40 44  1  0  0  0  0
 40 45  1  0  0  0  0
 11 14  1  0  0  0  0
 11 15  1  0  0  0  0
 11 16  1  0  0  0  0
 23 30  1  0  0  0  0
 23 31  1  0  0  0  0
 23 32  1  0  0  0  0
 47 49  1  0  0  0  0
 47 50  1  0  0  0  0
 47 51  1  0  0  0  0
 22 28  1  0  0  0  0
 22 29  1  0  0  0  0
 37 42  1  0  0  0  0
  8 13  1  0  0  0  0
 18 26  1  0  0  0  0
 21 27  1  0  0  0  0
 46 48  1  0  0  0  0
  7 12  1  0  0  0  0
 36 41  1  0  0  0  0
 17 25  1  0  0  0  0
M  END
$$$$

  -OEChem-05262214473D

 51 50  0     1  0  0  0  0  0999 V2000
    1.3524   -3.0009    1.4091 C   0  0  0  0  0  0  0  0  0  0  0  0
    1.8758   -1.9880    0.9598 O   0  0  0  0  0  0  0  0  0  0  0  0
    2.2030   -4.1782    1.7536 C   0  0  0  0  0  0  0  0  0  0  0  0
    2.3264   -4.8705    0.9053 H   0  0  0  0  0  0  0  0  0  0  0  0
    3.2257   -3.8876    2.0432 H   0  0  0  0  0  0  0  0  0  0  0  0
    1.8327   -4.8004    2.5839 H   0  0  0  0  0  0  0  0  0  0  0  0
    0.0005   -3.1873    1.6465 N   0  0  0  0  0  0  0  0  0  0  0  0
   -0.9949   -2.1807    1.3864 C   0  0  2  0  0  0  0  0  0  0  0  0
   -0.3083   -0.8216    1.4164 C   0  0  0  0  0  0  0  0  0  0  0  0
    0.7533   -0.6191    2.0022 O   0  0  0  0  0  0  0  0  0  0  0  0
   -2.1232   -2.2423    2.4042 C   0  0  0  0  0  0  0  0  0  0  0  0
   -0.3048   -4.0823    2.0245 H   0  0  0  0  0  0  0  0  0  0  0  0
   -1.3830   -2.3724    0.3801 H   0  0  0  0  0  0  0  0  0  0  0  0
   -1.7534   -2.0527    3.4185 H   0  0  0  0  0  0  0  0  0  0  0  0
   -2.8936   -1.4947    2.1882 H   0  0  0  0  0  0  0  0  0  0  0  0
   -2.5964   -3.2301    2.4022 H   0  0  0  0  0  0  0  0  0  0  0  0
   -1.0412    0.1517    0.7482 N   0  0  0  0  0  0  0  0  0  0  0  0
   -0.6079    1.5223    0.6467 C   0  0  2  0  0  0  0  0  0  0  0  0
   -1.1694    2.2891    1.8434 C   0  0  0  0  0  0  0  0  0  0  0  0
   -1.3567    1.7690    2.9415 O   0  0  0  0  0  0  0  0  0  0  0  0
   -0.9833    2.1765   -0.7049 C   0  0  2  0  0  0  0  0  0  0  0  0
   -0.2955    1.4821   -1.9013 C   0  0  0  0  0  0  0  0  0  0  0  0
   -0.6743    3.6790   -0.6684 C   0  0  0  0  0  0  0  0  0  0  0  0
   -0.8416    1.9215   -3.2539 C   0  0  0  0  0  0  0  0  0  0  0  0
   -1.9022   -0.1128    0.2753 H   0  0  0  0  0  0  0  0  0  0  0  0
    0.4839    1.5006    0.7560 H   0  0  0  0  0  0  0  0  0  0  0  0
   -2.0685    2.0755   -0.8398 H   0  0  0  0  0  0  0  0  0  0  0  0
    0.7775    1.7051   -1.8882 H   0  0  0  0  0  0  0  0  0  0  0  0
   -0.3942    0.3932   -1.8197 H   0  0  0  0  0  0  0  0  0  0  0  0
    0.3990    3.8527   -0.5351 H   0  0  0  0  0  0  0  0  0  0  0  0
   -0.9633    4.1658   -1.6050 H   0  0  0  0  0  0  0  0  0  0  0  0
   -1.2037    4.1783    0.1497 H   0  0  0  0  0  0  0  0  0  0  0  0
   -1.9147    1.7274   -3.3375 H   0  0  0  0  0  0  0  0  0  0  0  0
   -0.3438    1.3670   -4.0562 H   0  0  0  0  0  0  0  0  0  0  0  0
   -0.6658    2.9887   -3.4213 H   0  0  0  0  0  0  0  0  0  0  0  0
   -1.4031    3.6244    1.5469 N   0  0  0  0  0  0  0  0  0  0  0  0
   -1.9147    4.5727    2.5100 C   0  0  2  0  0  0  0  0  0  0  0  0
   -1.4305    5.9594    2.1075 C   0  0  0  0  0  0  0  0  0  0  0  0
   -0.4418    6.1459    1.4012 O   0  0  0  0  0  0  0  0  0  0  0  0
   -1.4630    4.2273    3.9204 C   0  0  0  0  0  0  0  0  0  0  0  0
   -1.2046    3.9517    0.6060 H   0  0  0  0  0  0  0  0  0  0  0  0
   -3.0074    4.5331    2.4430 H   0  0  0  0  0  0  0  0  0  0  0  0
   -0.3708    4.2617    4.0069 H   0  0  0  0  0  0  0  0  0  0  0  0
   -1.8748    4.9300    4.6522 H   0  0  0  0  0  0  0  0  0  0  0  0
   -1.7867    3.2181    4.1971 H   0  0  0  0  0  0  0  0  0  0  0  0
   -2.2068    6.9656    2.6654 N   0  0  0  0  0  0  0  0  0  0  0  0
   -1.9424    8.3680    2.4434 C   0  0  0  0  0  0  0  0  0  0  0  0
   -3.0191    6.7189    3.2231 H   0  0  0  0  0  0  0  0  0  0  0  0
   -1.2939    8.7508    3.2452 H   0  0  0  0  0  0  0  0  0  0  0  0
   -1.4407    8.4974    1.4731 H   0  0  0  0  0  0  0  0  0  0  0  0
   -2.8914    8.9243    2.4426 H   0  0  0  0  0  0  0  0  0  0  0  0
  1  3  1  0  0  0  0
  1  7  1  0  0  0  0
  1  2  2  0  0  0  0
 37 38  1  0  0  0  0
 38 46  1  0  0  0  0
 38 39  2  0  0  0  0
  8  9  1  0  0  0  0
  9 17  1  0  0  0  0
  9 10  2  0  0  0  0
 18 19  1  0  0  0  0
 19 36  1  0  0  0  0
 19 20  2  0  0  0  0
 22 24  1  0  0  0  0
 37 40  1  0  0  0  0
  8 11  1  0  0  0  0
 21 23  1  0  0  0  0
 46 47  1  0  0  0  0
 21 22  1  0  0  0  0
 36 37  1  0  0  0  0
  7  8  1  0  0  0  0
 18 21  1  0  0  0  0
 17 18  1  0  0  0  0
  3  4  1  0  0  0  0
  3  5  1  0  0  0  0
  3  6  1  0  0  0  0
 24 33  1  0  0  0  0
 24 34  1  0  0  0  0
 24 35  1  0  0  0  0
 40 43  1  0  0  0  0
 40 44  1  0  0  0  0
 40 45  1  0  0  0  0
 11 14  1  0  0  0  0
 11 15  1  0  0  0  0
 11 16  1  0  0  0  0
 23 30  1  0  0  0  0
 23 31  1  0  0  0  0
 23 32  1  0  0  0  0
 47 49  1  0  0  0  0
 47 50  1  0  0  0  0
 47 51  1  0  0  0  0
 22 28  1  0  0  0  0
 22 29  1  0  0  0  0
 37 42  1  0  0  0  0
  8 13  1  0  0  0  0
 18 26  1  0  0  0  0
 21 27  1  0  0  0  0
 46 48  1  0  0  0  0
  7 12  1  0  0  0  0
 36 41  1  0  0  0  0
 17 25  1  0  0  0  0
M  END
$$$$

  -OEChem-05262214473D

 51 50  0     1  0  0  0  0  0999 V2000
    1.3524   -3.0009    1.4091 C   0  0  0  0  0  0  0  0  0  0  0  0
    1.8758   -1.9880    0.9598 O   0  0  0  0  0  0  0  0  0  0  0  0
    2.2030   -4.1782    1.7536 C   0  0  0  0  0  0  0  0  0  0  0  0
    2.3264   -4.8705    0.9053 H   0  0  0  0  0  0  0  0  0  0  0  0
    3.2257   -3.8876    2.0432 H   0  0  0  0  0  0  0  0  0  0  0  0
    1.8327   -4.8004    2.5839 H   0  0  0  0  0  0  0  0  0  0  0  0
    0.0005   -3.1873    1.6465 N   0  0  0  0  0  0  0  0  0  0  0  0
   -0.9949   -2.1807    1.3864 C   0  0  2  0  0  0  0  0  0  0  0  0
   -0.3083   -0.8216    1.4164 C   0  0  0  0  0  0  0  0  0  0  0  0
    0.7533   -0.6191    2.0022 O   0  0  0  0  0  0  0  0  0  0  0  0
   -2.1232   -2.2423    2.4042 C   0  0  0  0  0  0  0  0  0  0  0  0
   -0.3048   -4.0823    2.0245 H   0  0  0  0  0  0  0  0  0  0  0  0
   -1.3830   -2.3724    0.3801 H   0  0  0  0  0  0  0  0  0  0  0  0
   -1.7534   -2.0527    3.4185 H   0  0  0  0  0  0  0  0  0  0  0  0
   -2.8936   -1.4947    2.1882 H   0  0  0  0  0  0  0  0  0  0  0  0
   -2.5964   -3.2301    2.4022 H   0  0  0  0  0  0  0  0  0  0  0  0
   -1.0412    0.1517    0.7482 N   0  0  0  0  0  0  0  0  0  0  0  0
   -0.6079    1.5223    0.6467 C   0  0  2  0  0  0  0  0  0  0  0  0
   -1.1694    2.2891    1.8434 C   0  0  0  0  0  0  0  0  0  0  0  0
   -1.1107    1.8646    2.9957 O   0  0  0  0  0  0  0  0  0  0  0  0
   -0.9833    2.1765   -0.7049 C   0  0  2  0  0  0  0  0  0  0  0  0
   -0.2955    1.4821   -1.9013 C   0  0  0  0  0  0  0  0  0  0  0  0
   -0.6743    3.6790   -0.6684 C   0  0  0  0  0  0  0  0  0  0  0  0
   -0.8416    1.9215   -3.2539 C   0  0  0  0  0  0  0  0  0  0  0  0
   -1.9022   -0.1128    0.2753 H   0  0  0  0  0  0  0  0  0  0  0  0
    0.4839    1.5006    0.7560 H   0  0  0  0  0  0  0  0  0  0  0  0
   -2.0685    2.0755   -0.8398 H   0  0  0  0  0  0  0  0  0  0  0  0
    0.7775    1.7051   -1.8882 H   0  0  0  0  0  0  0  0  0  0  0  0
   -0.3942    0.3932   -1.8197 H   0  0  0  0  0  0  0  0  0  0  0  0
    0.3990    3.8527   -0.5351 H   0  0  0  0  0  0  0  0  0  0  0  0
   -0.9633    4.1658   -1.6050 H   0  0  0  0  0  0  0  0  0  0  0  0
   -1.2037    4.1783    0.1497 H   0  0  0  0  0  0  0  0  0  0  0  0
   -1.9147    1.7274   -3.3375 H   0  0  0  0  0  0  0  0  0  0  0  0
   -0.3438    1.3670   -4.0562 H   0  0  0  0  0  0  0  0  0  0  0  0
   -0.6658    2.9887   -3.4213 H   0  0  0  0  0  0  0  0  0  0  0  0
   -1.7108    3.5123    1.4743 N   0  0  0  0  0  0  0  0  0  0  0  0
   -2.2899    4.4404    2.4187 C   0  0  2  0  0  0  0  0  0  0  0  0
   -2.1580    5.8432    1.8406 C   0  0  0  0  0  0  0  0  0  0  0  0
   -1.3222    6.1425    0.9903 O   0  0  0  0  0  0  0  0  0  0  0  0
   -1.6100    4.3455    3.7756 C   0  0  0  0  0  0  0  0  0  0  0  0
   -1.6995    3.7681    0.4914 H   0  0  0  0  0  0  0  0  0  0  0  0
   -3.3502    4.1800    2.5084 H   0  0  0  0  0  0  0  0  0  0  0  0
   -0.5468    4.6030    3.7057 H   0  0  0  0  0  0  0  0  0  0  0  0
   -2.0686    5.0289    4.4979 H   0  0  0  0  0  0  0  0  0  0  0  0
   -1.6800    3.3285    4.1764 H   0  0  0  0  0  0  0  0  0  0  0  0
   -3.0547    6.7318    2.4173 N   0  0  0  0  0  0  0  0  0  0  0  0
   -3.1178    8.1263    2.0468 C   0  0  0  0  0  0  0  0  0  0  0  0
   -3.7245    6.3924    3.1013 H   0  0  0  0  0  0  0  0  0  0  0  0
   -2.4721    8.7137    2.7161 H   0  0  0  0  0  0  0  0  0  0  0  0
   -2.7744    8.2456    1.0085 H   0  0  0  0  0  0  0  0  0  0  0  0
   -4.1551    8.4819    2.1331 H   0  0  0  0  0  0  0  0  0  0  0  0
  1  3  1  0  0  0  0
  1  7  1  0  0  0  0
  1  2  2  0  0  0  0
 37 38  1  0  0  0  0
 38 46  1  0  0  0  0
 38 39  2  0  0  0  0
  8  9  1  0  0  0  0
  9 17  1  0  0  0  0
  9 10  2  0  0  0  0
 18 19  1  0  0  0  0
 19 36  1  0  0  0  0
 19 20  2  0  0  0  0
 22 24  1  0  0  0  0
 37 40  1  0  0  0  0
  8 11  1  0  0  0  0
 21 23  1  0  0  0  0
 46 47  1  0  0  0  0
 21 22  1  0  0  0  0
 36 37  1  0  0  0  0
  7  8  1  0  0  0  0
 18 21  1  0  0  0  0
 17 18  1  0  0  0  0
  3  4  1  0  0  0  0
  3  5  1  0  0  0  0
  3  6  1  0  0  0  0
 24 33  1  0  0  0  0
 24 34  1  0  0  0  0
 24 35  1  0  0  0  0
 40 43  1  0  0  0  0
 40 44  1  0  0  0  0
 40 45  1  0  0  0  0
 11 14  1  0  0  0  0
 11 15  1  0  0  0  0
 11 16  1  0  0  0  0
 23 30  1  0  0  0  0
 23 31  1  0  0  0  0
 23 32  1  0  0  0  0
 47 49  1  0  0  0  0
 47 50  1  0  0  0  0
 47 51  1  0  0  0  0
 22 28  1  0  0  0  0
 22 29  1  0  0  0  0
 37 42  1  0  0  0  0
  8 13  1  0  0  0  0
 18 26  1  0  0  0  0
 21 27  1  0  0  0  0
 46 48  1  0  0  0  0
  7 12  1  0  0  0  0
 36 41  1  0  0  0  0
 17 25  1  0  0  0  0
M  END
$$$$

  -OEChem-05262214473D

 51 50  0     1  0  0  0  0  0999 V2000
    1.3524   -3.0009    1.4091 C   0  0  0  0  0  0  0  0  0  0  0  0
    1.8758   -1.9880    0.9598 O   0  0  0  0  0  0  0  0  0  0  0  0
    2.2030   -4.1782    1.7536 C   0  0  0  0  0  0  0  0  0  0  0  0
    2.3264   -4.8705    0.9053 H   0  0  0  0  0  0  0  0  0  0  0  0
    3.2257   -3.8876    2.0432 H   0  0  0  0  0  0  0  0  0  0  0  0
    1.8327   -4.8004    2.5839 H   0  0  0  0  0  0  0  0  0  0  0  0
    0.0005   -3.1873    1.6465 N   0  0  0  0  0  0  0  0  0  0  0  0
   -0.9949   -2.1807    1.3864 C   0  0  2  0  0  0  0  0  0  0  0  0
   -0.3083   -0.8216    1.4164 C   0  0  0  0  0  0  0  0  0  0  0  0
    0.7533   -0.6191    2.0022 O   0  0  0  0  0  0  0  0  0  0  0  0
   -2.1232   -2.2423    2.4042 C   0  0  0  0  0  0  0  0  0  0  0  0
   -0.3048   -4.0823    2.0245 H   0  0  0  0  0  0  0  0  0  0  0  0
   -1.3830   -2.3724    0.3801 H   0  0  0  0  0  0  0  0  0  0  0  0
   -1.7534   -2.0527    3.4185 H   0  0  0  0  0  0  0  0  0  0  0  0
   -2.8936   -1.4947    2.1882 H   0  0  0  0  0  0  0  0  0  0  0  0
   -2.5964   -3.2301    2.4022 H   0  0  0  0  0  0  0  0  0  0  0  0
   -1.0412    0.1517    0.7482 N   0  0  0  0  0  0  0  0  0  0  0  0
   -0.6079    1.5223    0.6467 C   0  0  2  0  0  0  0  0  0  0  0  0
   -1.1694    2.2891    1.8434 C   0  0  0  0  0  0  0  0  0  0  0  0
   -0.8854    2.0120    3.0070 O   0  0  0  0  0  0  0  0  0  0  0  0
   -0.9833    2.1765   -0.7049 C   0  0  2  0  0  0  0  0  0  0  0  0
   -0.2955    1.4821   -1.9013 C   0  0  0  0  0  0  0  0  0  0  0  0
   -0.6743    3.6790   -0.6684 C   0  0  0  0  0  0  0  0  0  0  0  0
   -0.8416    1.9215   -3.2539 C   0  0  0  0  0  0  0  0  0  0  0  0
   -1.9022   -0.1128    0.2753 H   0  0  0  0  0  0  0  0  0  0  0  0
    0.4839    1.5006    0.7560 H   0  0  0  0  0  0  0  0  0  0  0  0
   -2.0685    2.0755   -0.8398 H   0  0  0  0  0  0  0  0  0  0  0  0
    0.7775    1.7051   -1.8882 H   0  0  0  0  0  0  0  0  0  0  0  0
   -0.3942    0.3932   -1.8197 H   0  0  0  0  0  0  0  0  0  0  0  0
    0.3990    3.8527   -0.5351 H   0  0  0  0  0  0  0  0  0  0  0  0
   -0.9633    4.1658   -1.6050 H   0  0  0  0  0  0  0  0  0  0  0  0
   -1.2037    4.1783    0.1497 H   0  0  0  0  0  0  0  0  0  0  0  0
   -1.9147    1.7274   -3.3375 H   0  0  0  0  0  0  0  0  0  0  0  0
   -0.3438    1.3670   -4.0562 H   0  0  0  0  0  0  0  0  0  0  0  0
   -0.6658    2.9887   -3.4213 H   0  0  0  0  0  0  0  0  0  0  0  0
   -1.9948    3.3348    1.4548 N   0  0  0  0  0  0  0  0  0  0  0  0
   -2.6373    4.2279    2.3918 C   0  0  2  0  0  0  0  0  0  0  0  0
   -2.8718    5.5582    1.6883 C   0  0  0  0  0  0  0  0  0  0  0  0
   -2.2253    5.9217    0.7080 O   0  0  0  0  0  0  0  0  0  0  0  0
   -1.7947    4.4162    3.6437 C   0  0  0  0  0  0  0  0  0  0  0  0
   -2.1553    3.4796    0.4624 H   0  0  0  0  0  0  0  0  0  0  0  0
   -3.6011    3.7757    2.6498 H   0  0  0  0  0  0  0  0  0  0  0  0
   -0.8250    4.8683    3.4051 H   0  0  0  0  0  0  0  0  0  0  0  0
   -2.2959    5.0705    4.3646 H   0  0  0  0  0  0  0  0  0  0  0  0
   -1.6020    3.4549    4.1320 H   0  0  0  0  0  0  0  0  0  0  0  0
   -3.8585    6.3106    2.3100 N   0  0  0  0  0  0  0  0  0  0  0  0
   -4.2556    7.6169    1.8392 C   0  0  0  0  0  0  0  0  0  0  0  0
   -4.3556    5.9224    3.1063 H   0  0  0  0  0  0  0  0  0  0  0  0
   -3.6713    8.3888    2.3616 H   0  0  0  0  0  0  0  0  0  0  0  0
   -4.0720    7.6880    0.7570 H   0  0  0  0  0  0  0  0  0  0  0  0
   -5.3264    7.7691    2.0402 H   0  0  0  0  0  0  0  0  0  0  0  0
  1  3  1  0  0  0  0
  1  7  1  0  0  0  0
  1  2  2  0  0  0  0
 37 38  1  0  0  0  0
 38 46  1  0  0  0  0
 38 39  2  0  0  0  0
  8  9  1  0  0  0  0
  9 17  1  0  0  0  0
  9 10  2  0  0  0  0
 18 19  1  0  0  0  0
 19 36  1  0  0  0  0
 19 20  2  0  0  0  0
 22 24  1  0  0  0  0
 37 40  1  0  0  0  0
  8 11  1  0  0  0  0
 21 23  1  0  0  0  0
 46 47  1  0  0  0  0
 21 22  1  0  0  0  0
 36 37  1  0  0  0  0
  7  8  1  0  0  0  0
 18 21  1  0  0  0  0
 17 18  1  0  0  0  0
  3  4  1  0  0  0  0
  3  5  1  0  0  0  0
  3  6  1  0  0  0  0
 24 33  1  0  0  0  0
 24 34  1  0  0  0  0
 24 35  1  0  0  0  0
 40 43  1  0  0  0  0
 40 44  1  0  0  0  0
 40 45  1  0  0  0  0
 11 14  1  0  0  0  0
 11 15  1  0  0  0  0
 11 16  1  0  0  0  0
 23 30  1  0  0  0  0
 23 31  1  0  0  0  0
 23 32  1  0  0  0  0
 47 49  1  0  0  0  0
 47 50  1  0  0  0  0
 47 51  1  0  0  0  0
 22 28  1  0  0  0  0
 22 29  1  0  0  0  0
 37 42  1  0  0  0  0
  8 13  1  0  0  0  0
 18 26  1  0  0  0  0
 21 27  1  0  0  0  0
 46 48  1  0  0  0  0
  7 12  1  0  0  0  0
 36 41  1  0  0  0  0
 17 25  1  0  0  0  0
M  END
$$$$

  -OEChem-05262214473D

 51 50  0     1  0  0  0  0  0999 V2000
    1.3524   -3.0009    1.4091 C   0  0  0  0  0  0  0  0  0  0  0  0
    1.8758   -1.9880    0.9598 O   0  0  0  0  0  0  0  0  0  0  0  0
    2.2030   -4.1782    1.7536 C   0  0  0  0  0  0  0  0  0  0  0  0
    2.3264   -4.8705    0.9053 H   0  0  0  0  0  0  0  0  0  0  0  0
    3.2257   -3.8876    2.0432 H   0  0  0  0  0  0  0  0  0  0  0  0
    1.8327   -4.8004    2.5839 H   0  0  0  0  0  0  0  0  0  0  0  0
    0.0005   -3.1873    1.6465 N   0  0  0  0  0  0  0  0  0  0  0  0
   -0.9949   -2.1807    1.3864 C   0  0  2  0  0  0  0  0  0  0  0  0
   -0.3083   -0.8216    1.4164 C   0  0  0  0  0  0  0  0  0  0  0  0
    0.7533   -0.6191    2.0022 O   0  0  0  0  0  0  0  0  0  0  0  0
   -2.1232   -2.2423    2.4042 C   0  0  0  0  0  0  0  0  0  0  0  0
   -0.3048   -4.0823    2.0245 H   0  0  0  0  0  0  0  0  0  0  0  0
   -1.3830   -2.3724    0.3801 H   0  0  0  0  0  0  0  0  0  0  0  0
   -1.7534   -2.0527    3.4185 H   0  0  0  0  0  0  0  0  0  0  0  0
   -2.8936   -1.4947    2.1882 H   0  0  0  0  0  0  0  0  0  0  0  0
   -2.5964   -3.2301    2.4022 H   0  0  0  0  0  0  0  0  0  0  0  0
   -1.0412    0.1517    0.7482 N   0  0  0  0  0  0  0  0  0  0  0  0
   -0.6079    1.5223    0.6467 C   0  0  2  0  0  0  0  0  0  0  0  0
   -1.1694    2.2891    1.8434 C   0  0  0  0  0  0  0  0  0  0  0  0
   -0.6961    2.2011    2.9746 O   0  0  0  0  0  0  0  0  0  0  0  0
   -0.9833    2.1765   -0.7049 C   0  0  2  0  0  0  0  0  0  0  0  0
   -0.2955    1.4821   -1.9013 C   0  0  0  0  0  0  0  0  0  0  0  0
   -0.6743    3.6790   -0.6684 C   0  0  0  0  0  0  0  0  0  0  0  0
   -0.8416    1.9215   -3.2539 C   0  0  0  0  0  0  0  0  0  0  0  0
   -1.9022   -0.1128    0.2753 H   0  0  0  0  0  0  0  0  0  0  0  0
    0.4839    1.5006    0.7560 H   0  0  0  0  0  0  0  0  0  0  0  0
   -2.0685    2.0755   -0.8398 H   0  0  0  0  0  0  0  0  0  0  0  0
    0.7775    1.7051   -1.8882 H   0  0  0  0  0  0  0  0  0  0  0  0
   -0.3942    0.3932   -1.8197 H   0  0  0  0  0  0  0  0  0  0  0  0
    0.3990    3.8527   -0.5351 H   0  0  0  0  0  0  0  0  0  0  0  0
   -0.9633    4.1658   -1.6050 H   0  0  0  0  0  0  0  0  0  0  0  0
   -1.2037    4.1783    0.1497 H   0  0  0  0  0  0  0  0  0  0  0  0
   -1.9147    1.7274   -3.3375 H   0  0  0  0  0  0  0  0  0  0  0  0
   -0.3438    1.3670   -4.0562 H   0  0  0  0  0  0  0  0  0  0  0  0
   -0.6658    2.9887   -3.4213 H   0  0  0  0  0  0  0  0  0  0  0  0
   -2.2356    3.1039    1.4898 N   0  0  0  0  0  0  0  0  0  0  0  0
   -2.9333    3.9497    2.4312 C   0  0  2  0  0  0  0  0  0  0  0  0
   -3.5234    5.1237    1.6610 C   0  0  0  0  0  0  0  0  0  0  0  0
   -3.0896    5.4985    0.5736 O   0  0  0  0  0  0  0  0  0  0  0  0
   -2.0045    4.4345    3.5335 C   0  0  0  0  0  0  0  0  0  0  0  0
   -2.5408    3.1058    0.5211 H   0  0  0  0  0  0  0  0  0  0  0  0
   -3.7433    3.3477    2.8573 H   0  0  0  0  0  0  0  0  0  0  0  0
   -1.1866    5.0396    3.1256 H   0  0  0  0  0  0  0  0  0  0  0  0
   -2.5411    5.0519    4.2615 H   0  0  0  0  0  0  0  0  0  0  0  0
   -1.5580    3.5885    4.0670 H   0  0  0  0  0  0  0  0  0  0  0  0
   -4.5635    5.7306    2.3509 N   0  0  0  0  0  0  0  0  0  0  0  0
   -5.2785    6.8746    1.8350 C   0  0  0  0  0  0  0  0  0  0  0  0
   -4.8692    5.3411    3.2378 H   0  0  0  0  0  0  0  0  0  0  0  0
   -4.8099    7.7981    2.2058 H   0  0  0  0  0  0  0  0  0  0  0  0
   -5.2450    6.8624    0.7356 H   0  0  0  0  0  0  0  0  0  0  0  0
   -6.3253    6.8344    2.1705 H   0  0  0  0  0  0  0  0  0  0  0  0
  1  3  1  0  0  0  0
  1  7  1  0  0  0  0
  1  2  2  0  0  0  0
 37 38  1  0  0  0  0
 38 46  1  0  0  0  0
 38 39  2  0  0  0  0
  8  9  1  0  0  0  0
  9 17  1  0  0  0  0
  9 10  2  0  0  0  0
 18 19  1  0  0  0  0
 19 36  1  0  0  0  0
 19 20  2  0  0  0  0
 22 24  1  0  0  0  0
 37 40  1  0  0  0  0
  8 11  1  0  0  0  0
 21 23  1  0  0  0  0
 46 47  1  0  0  0  0
 21 22  1  0  0  0  0
 36 37  1  0  0  0  0
  7  8  1  0  0  0  0
 18 21  1  0  0  0  0
 17 18  1  0  0  0  0
  3  4  1  0  0  0  0
  3  5  1  0  0  0  0
  3  6  1  0  0  0  0
 24 33  1  0  0  0  0
 24 34  1  0  0  0  0
 24 35  1  0  0  0  0
 40 43  1  0  0  0  0
 40 44  1  0  0  0  0
 40 45  1  0  0  0  0
 11 14  1  0  0  0  0
 11 15  1  0  0  0  0
 11 16  1  0  0  0  0
 23 30  1  0  0  0  0
 23 31  1  0  0  0  0
 23 32  1  0  0  0  0
 47 49  1  0  0  0  0
 47 50  1  0  0  0  0
 47 51  1  0  0  0  0
 22 28  1  0  0  0  0
 22 29  1  0  0  0  0
 37 42  1  0  0  0  0
  8 13  1  0  0  0  0
 18 26  1  0  0  0  0
 21 27  1  0  0  0  0
 46 48  1  0  0  0  0
  7 12  1  0  0  0  0
 36 41  1  0  0  0  0
 17 25  1  0  0  0  0
M  END
$$$$

  -OEChem-05262214473D

 51 50  0     1  0  0  0  0  0999 V2000
    1.3524   -3.0009    1.4091 C   0  0  0  0  0  0  0  0  0  0  0  0
    1.8758   -1.9880    0.9598 O   0  0  0  0  0  0  0  0  0  0  0  0
    2.2030   -4.1782    1.7536 C   0  0  0  0  0  0  0  0  0  0  0  0
    2.3264   -4.8705    0.9053 H   0  0  0  0  0  0  0  0  0  0  0  0
    3.2257   -3.8876    2.0432 H   0  0  0  0  0  0  0  0  0  0  0  0
    1.8327   -4.8004    2.5839 H   0  0  0  0  0  0  0  0  0  0  0  0
    0.0005   -3.1873    1.6465 N   0  0  0  0  0  0  0  0  0  0  0  0
   -0.9949   -2.1807    1.3864 C   0  0  2  0  0  0  0  0  0  0  0  0
   -0.3083   -0.8216    1.4164 C   0  0  0  0  0  0  0  0  0  0  0  0
    0.7533   -0.6191    2.0022 O   0  0  0  0  0  0  0  0  0  0  0  0
   -2.1232   -2.2423    2.4042 C   0  0  0  0  0  0  0  0  0  0  0  0
   -0.3048   -4.0823    2.0245 H   0  0  0  0  0  0  0  0  0  0  0  0
   -1.3830   -2.3724    0.3801 H   0  0  0  0  0  0  0  0  0  0  0  0
   -1.7534   -2.0527    3.4185 H   0  0  0  0  0  0  0  0  0  0  0  0
   -2.8936   -1.4947    2.1882 H   0  0  0  0  0  0  0  0  0  0  0  0
   -2.5964   -3.2301    2.4022 H   0  0  0  0  0  0  0  0  0  0  0  0
   -1.0412    0.1517    0.7482 N   0  0  0  0  0  0  0  0  0  0  0  0
   -0.6079    1.5223    0.6467 C   0  0  2  0  0  0  0  0  0  0  0  0
   -1.1694    2.2891    1.8434 C   0  0  0  0  0  0  0  0  0  0  0  0
   -0.5559    2.4190    2.9008 O   0  0  0  0  0  0  0  0  0  0  0  0
   -0.9833    2.1765   -0.7049 C   0  0  2  0  0  0  0  0  0  0  0  0
   -0.2955    1.4821   -1.9013 C   0  0  0  0  0  0  0  0  0  0  0  0
   -0.6743    3.6790   -0.6684 C   0  0  0  0  0  0  0  0  0  0  0  0
   -0.8416    1.9215   -3.2539 C   0  0  0  0  0  0  0  0  0  0  0  0
   -1.9022   -0.1128    0.2753 H   0  0  0  0  0  0  0  0  0  0  0  0
    0.4839    1.5006    0.7560 H   0  0  0  0  0  0  0  0  0  0  0  0
   -2.0685    2.0755   -0.8398 H   0  0  0  0  0  0  0  0  0  0  0  0
    0.7775    1.7051   -1.8882 H   0  0  0  0  0  0  0  0  0  0  0  0
   -0.3942    0.3932   -1.8197 H   0  0  0  0  0  0  0  0  0  0  0  0
    0.3990    3.8527   -0.5351 H   0  0  0  0  0  0  0  0  0  0  0  0
   -0.9633    4.1658   -1.6050 H   0  0  0  0  0  0  0  0  0  0  0  0
   -1.2037    4.1783    0.1497 H   0  0  0  0  0  0  0  0  0  0  0  0
   -1.9147    1.7274   -3.3375 H   0  0  0  0  0  0  0  0  0  0  0  0
   -0.3438    1.3670   -4.0562 H   0  0  0  0  0  0  0  0  0  0  0  0
   -0.6658    2.9887   -3.4213 H   0  0  0  0  0  0  0  0  0  0  0  0
   -2.4168    2.8354    1.5768 N   0  0  0  0  0  0  0  0  0  0  0  0
   -3.1578    3.6248    2.5341 C   0  0  2  0  0  0  0  0  0  0  0  0
   -4.0682    4.5693    1.7606 C   0  0  0  0  0  0  0  0  0  0  0  0
   -3.8561    4.9018    0.5963 O   0  0  0  0  0  0  0  0  0  0  0  0
   -2.2253    4.3992    3.4525 C   0  0  0  0  0  0  0  0  0  0  0  0
   -2.8298    2.6722    0.6633 H   0  0  0  0  0  0  0  0  0  0  0  0
   -3.7669    2.9252    3.1170 H   0  0  0  0  0  0  0  0  0  0  0  0
   -1.6069    5.1052    2.8864 H   0  0  0  0  0  0  0  0  0  0  0  0
   -2.7876    4.9744    4.1954 H   0  0  0  0  0  0  0  0  0  0  0  0
   -1.5511    3.7203    3.9858 H   0  0  0  0  0  0  0  0  0  0  0  0
   -5.1217    5.0313    2.5370 N   0  0  0  0  0  0  0  0  0  0  0  0
   -6.1165    5.9498    2.0344 C   0  0  0  0  0  0  0  0  0  0  0  0
   -5.2305    4.6880    3.4868 H   0  0  0  0  0  0  0  0  0  0  0  0
   -5.8102    6.9820    2.2594 H   0  0  0  0  0  0  0  0  0  0  0  0
   -6.2135    5.8253    0.9457 H   0  0  0  0  0  0  0  0  0  0  0  0
   -7.0838    5.7414    2.5149 H   0  0  0  0  0  0  0  0  0  0  0  0
  1  3  1  0  0  0  0
  1  7  1  0  0  0  0
  1  2  2  0  0  0  0
 37 38  1  0  0  0  0
 38 46  1  0  0  0  0
 38 39  2  0  0  0  0
  8  9  1  0  0  0  0
  9 17  1  0  0  0  0
  9 10  2  0  0  0  0
 18 19  1  0  0  0  0
 19 36  1  0  0  0  0
 19 20  2  0  0  0  0
 22 24  1  0  0  0  0
 37 40  1  0  0  0  0
  8 11  1  0  0  0  0
 21 23  1  0  0  0  0
 46 47  1  0  0  0  0
 21 22  1  0  0  0  0
 36 37  1  0  0  0  0
  7  8  1  0  0  0  0
 18 21  1  0  0  0  0
 17 18  1  0  0  0  0
  3  4  1  0  0  0  0
  3  5  1  0  0  0  0
  3  6  1  0  0  0  0
 24 33  1  0  0  0  0
 24 34  1  0  0  0  0
 24 35  1  0  0  0  0
 40 43  1  0  0  0  0
 40 44  1  0  0  0  0
 40 45  1  0  0  0  0
 11 14  1  0  0  0  0
 11 15  1  0  0  0  0
 11 16  1  0  0  0  0
 23 30  1  0  0  0  0
 23 31  1  0  0  0  0
 23 32  1  0  0  0  0
 47 49  1  0  0  0  0
 47 50  1  0  0  0  0
 47 51  1  0  0  0  0
 22 28  1  0  0  0  0
 22 29  1  0  0  0  0
 37 42  1  0  0  0  0
  8 13  1  0  0  0  0
 18 26  1  0  0  0  0
 21 27  1  0  0  0  0
 46 48  1  0  0  0  0
  7 12  1  0  0  0  0
 36 41  1  0  0  0  0
 17 25  1  0  0  0  0
M  END
$$$$

  -OEChem-05262214473D

 51 50  0     1  0  0  0  0  0999 V2000
    1.3524   -3.0009    1.4091 C   0  0  0  0  0  0  0  0  0  0  0  0
    1.8758   -1.9880    0.9598 O   0  0  0  0  0  0  0  0  0  0  0  0
    2.2030   -4.1782    1.7536 C   0  0  0  0  0  0  0  0  0  0  0  0
    2.3264   -4.8705    0.9053 H   0  0  0  0  0  0  0  0  0  0  0  0
    3.2257   -3.8876    2.0432 H   0  0  0  0  0  0  0  0  0  0  0  0
    1.8327   -4.8004    2.5839 H   0  0  0  0  0  0  0  0  0  0  0  0
    0.0005   -3.1873    1.6465 N   0  0  0  0  0  0  0  0  0  0  0  0
   -0.9949   -2.1807    1.3864 C   0  0  2  0  0  0  0  0  0  0  0  0
   -0.3083   -0.8216    1.4164 C   0  0  0  0  0  0  0  0  0  0  0  0
    0.7533   -0.6191    2.0022 O   0  0  0  0  0  0  0  0  0  0  0  0
   -2.1232   -2.2423    2.4042 C   0  0  0  0  0  0  0  0  0  0  0  0
   -0.3048   -4.0823    2.0245 H   0  0  0  0  0  0  0  0  0  0  0  0
   -1.3830   -2.3724    0.3801 H   0  0  0  0  0  0  0  0  0  0  0  0
   -1.7534   -2.0527    3.4185 H   0  0  0  0  0  0  0  0  0  0  0  0
   -2.8936   -1.4947    2.1882 H   0  0  0  0  0  0  0  0  0  0  0  0
   -2.5964   -3.2301    2.4022 H   0  0  0  0  0  0  0  0  0  0  0  0
   -1.0412    0.1517    0.7482 N   0  0  0  0  0  0  0  0  0  0  0  0
   -0.6079    1.5223    0.6467 C   0  0  2  0  0  0  0  0  0  0  0  0
   -1.1694    2.2891    1.8434 C   0  0  0  0  0  0  0  0  0  0  0  0
   -0.4741    2.6509    2.7905 O   0  0  0  0  0  0  0  0  0  0  0  0
   -0.9833    2.1765   -0.7049 C   0  0  2  0  0  0  0  0  0  0  0  0
   -0.2955    1.4821   -1.9013 C   0  0  0  0  0  0  0  0  0  0  0  0
   -0.6743    3.6790   -0.6684 C   0  0  0  0  0  0  0  0  0  0  0  0
   -0.8416    1.9215   -3.2539 C   0  0  0  0  0  0  0  0  0  0  0  0
   -1.9022   -0.1128    0.2753 H   0  0  0  0  0  0  0  0  0  0  0  0
    0.4839    1.5006    0.7560 H   0  0  0  0  0  0  0  0  0  0  0  0
   -2.0685    2.0755   -0.8398 H   0  0  0  0  0  0  0  0  0  0  0  0
    0.7775    1.7051   -1.8882 H   0  0  0  0  0  0  0  0  0  0  0  0
   -0.3942    0.3932   -1.8197 H   0  0  0  0  0  0  0  0  0  0  0  0
    0.3990    3.8527   -0.5351 H   0  0  0  0  0  0  0  0  0  0  0  0
   -0.9633    4.1658   -1.6050 H   0  0  0  0  0  0  0  0  0  0  0  0
   -1.2037    4.1783    0.1497 H   0  0  0  0  0  0  0  0  0  0  0  0
   -1.9147    1.7274   -3.3375 H   0  0  0  0  0  0  0  0  0  0  0  0
   -0.3438    1.3670   -4.0562 H   0  0  0  0  0  0  0  0  0  0  0  0
   -0.6658    2.9887   -3.4213 H   0  0  0  0  0  0  0  0  0  0  0  0
   -2.5262    2.5475    1.7099 N   0  0  0  0  0  0  0  0  0  0  0  0
   -3.2953    3.2752    2.6936 C   0  0  2  0  0  0  0  0  0  0  0  0
   -4.4691    3.9329    1.9802 C   0  0  0  0  0  0  0  0  0  0  0  0
   -4.4726    4.1723    0.7745 O   0  0  0  0  0  0  0  0  0  0  0  0
   -2.4419    4.3126    3.4064 C   0  0  0  0  0  0  0  0  0  0  0  0
   -3.0026    2.2084    0.8795 H   0  0  0  0  0  0  0  0  0  0  0  0
   -3.6703    2.5371    3.4110 H   0  0  0  0  0  0  0  0  0  0  0  0
   -2.0572    5.0607    2.7036 H   0  0  0  0  0  0  0  0  0  0  0  0
   -3.0186    4.8433    4.1710 H   0  0  0  0  0  0  0  0  0  0  0  0
   -1.5817    3.8413    3.8939 H   0  0  0  0  0  0  0  0  0  0  0  0
   -5.4949    4.2605    2.8559 N   0  0  0  0  0  0  0  0  0  0  0  0
   -6.7127    4.9056    2.4237 C   0  0  0  0  0  0  0  0  0  0  0  0
   -5.4147    4.0076    3.8363 H   0  0  0  0  0  0  0  0  0  0  0  0
   -6.6041    5.9961    2.5186 H   0  0  0  0  0  0  0  0  0  0  0  0
   -6.9115    4.6471    1.3732 H   0  0  0  0  0  0  0  0  0  0  0  0
   -7.5502    4.5647    3.0500 H   0  0  0  0  0  0  0  0  0  0  0  0
  1  3  1  0  0  0  0
  1  7  1  0  0  0  0
  1  2  2  0  0  0  0
 37 38  1  0  0  0  0
 38 46  1  0  0  0  0
 38 39  2  0  0  0  0
  8  9  1  0  0  0  0
  9 17  1  0  0  0  0
  9 10  2  0  0  0  0
 18 19  1  0  0  0  0
 19 36  1  0  0  0  0
 19 20  2  0  0  0  0
 22 24  1  0  0  0  0
 37 40  1  0  0  0  0
  8 11  1  0  0  0  0
 21 23  1  0  0  0  0
 46 47  1  0  0  0  0
 21 22  1  0  0  0  0
 36 37  1  0  0  0  0
  7  8  1  0  0  0  0
 18 21  1  0  0  0  0
 17 18  1  0  0  0  0
  3  4  1  0  0  0  0
  3  5  1  0  0  0  0
  3  6  1  0  0  0  0
 24 33  1  0  0  0  0
 24 34  1  0  0  0  0
 24 35  1  0  0  0  0
 40 43  1  0  0  0  0
 40 44  1  0  0  0  0
 40 45  1  0  0  0  0
 11 14  1  0  0  0  0
 11 15  1  0  0  0  0
 11 16  1  0  0  0  0
 23 30  1  0  0  0  0
 23 31  1  0  0  0  0
 23 32  1  0  0  0  0
 47 49  1  0  0  0  0
 47 50  1  0  0  0  0
 47 51  1  0  0  0  0
 22 28  1  0  0  0  0
 22 29  1  0  0  0  0
 37 42  1  0  0  0  0
  8 13  1  0  0  0  0
 18 26  1  0  0  0  0
 21 27  1  0  0  0  0
 46 48  1  0  0  0  0
  7 12  1  0  0  0  0
 36 41  1  0  0  0  0
 17 25  1  0  0  0  0
M  END
$$$$

  -OEChem-05262214473D

 51 50  0     1  0  0  0  0  0999 V2000
    1.3524   -3.0009    1.4091 C   0  0  0  0  0  0  0  0  0  0  0  0
    1.8758   -1.9880    0.9598 O   0  0  0  0  0  0  0  0  0  0  0  0
    2.2030   -4.1782    1.7536 C   0  0  0  0  0  0  0  0  0  0  0  0
    2.3264   -4.8705    0.9053 H   0  0  0  0  0  0  0  0  0  0  0  0
    3.2257   -3.8876    2.0432 H   0  0  0  0  0  0  0  0  0  0  0  0
    1.8327   -4.8004    2.5839 H   0  0  0  0  0  0  0  0  0  0  0  0
    0.0005   -3.1873    1.6465 N   0  0  0  0  0  0  0  0  0  0  0  0
   -0.9949   -2.1807    1.3864 C   0  0  2  0  0  0  0  0  0  0  0  0
   -0.3083   -0.8216    1.4164 C   0  0  0  0  0  0  0  0  0  0  0  0
    0.7533   -0.6191    2.0022 O   0  0  0  0  0  0  0  0  0  0  0  0
   -2.1232   -2.2423    2.4042 C   0  0  0  0  0  0  0  0  0  0  0  0
   -0.3048   -4.0823    2.0245 H   0  0  0  0  0  0  0  0  0  0  0  0
   -1.3830   -2.3724    0.3801 H   0  0  0  0  0  0  0  0  0  0  0  0
   -1.7534   -2.0527    3.4185 H   0  0  0  0  0  0  0  0  0  0  0  0
   -2.8936   -1.4947    2.1882 H   0  0  0  0  0  0  0  0  0  0  0  0
   -2.5964   -3.2301    2.4022 H   0  0  0  0  0  0  0  0  0  0  0  0
   -1.0412    0.1517    0.7482 N   0  0  0  0  0  0  0  0  0  0  0  0
   -0.6079    1.5223    0.6467 C   0  0  2  0  0  0  0  0  0  0  0  0
   -1.1694    2.2891    1.8434 C   0  0  0  0  0  0  0  0  0  0  0  0
   -0.4565    2.8810    2.6514 O   0  0  0  0  0  0  0  0  0  0  0  0
   -0.9833    2.1765   -0.7049 C   0  0  2  0  0  0  0  0  0  0  0  0
   -0.2955    1.4821   -1.9013 C   0  0  0  0  0  0  0  0  0  0  0  0
   -0.6743    3.6790   -0.6684 C   0  0  0  0  0  0  0  0  0  0  0  0
   -0.8416    1.9215   -3.2539 C   0  0  0  0  0  0  0  0  0  0  0  0
   -1.9022   -0.1128    0.2753 H   0  0  0  0  0  0  0  0  0  0  0  0
    0.4839    1.5006    0.7560 H   0  0  0  0  0  0  0  0  0  0  0  0
   -2.0685    2.0755   -0.8398 H   0  0  0  0  0  0  0  0  0  0  0  0
    0.7775    1.7051   -1.8882 H   0  0  0  0  0  0  0  0  0  0  0  0
   -0.3942    0.3932   -1.8197 H   0  0  0  0  0  0  0  0  0  0  0  0
    0.3990    3.8527   -0.5351 H   0  0  0  0  0  0  0  0  0  0  0  0
   -0.9633    4.1658   -1.6050 H   0  0  0  0  0  0  0  0  0  0  0  0
   -1.2037    4.1783    0.1497 H   0  0  0  0  0  0  0  0  0  0  0  0
   -1.9147    1.7274   -3.3375 H   0  0  0  0  0  0  0  0  0  0  0  0
   -0.3438    1.3670   -4.0562 H   0  0  0  0  0  0  0  0  0  0  0  0
   -0.6658    2.9887   -3.4213 H   0  0  0  0  0  0  0  0  0  0  0  0
   -2.5562    2.2600    1.8801 N   0  0  0  0  0  0  0  0  0  0  0  0
   -3.3366    2.9248    2.8988 C   0  0  2  0  0  0  0  0  0  0  0  0
   -4.6989    3.2579    2.3050 C   0  0  0  0  0  0  0  0  0  0  0  0
   -4.8970    3.3596    1.0961 O   0  0  0  0  0  0  0  0  0  0  0  0
   -2.6395    4.1807    3.3982 C   0  0  0  0  0  0  0  0  0  0  0  0
   -3.0474    1.7458    1.1548 H   0  0  0  0  0  0  0  0  0  0  0  0
   -3.4602    2.2097    3.7194 H   0  0  0  0  0  0  0  0  0  0  0  0
   -2.5069    4.9090    2.5898 H   0  0  0  0  0  0  0  0  0  0  0  0
   -3.2184    4.6676    4.1899 H   0  0  0  0  0  0  0  0  0  0  0  0
   -1.6477    3.9432    3.7977 H   0  0  0  0  0  0  0  0  0  0  0  0
   -5.6578    3.4706    3.2856 N   0  0  0  0  0  0  0  0  0  0  0  0
   -7.0263    3.8132    2.9765 C   0  0  0  0  0  0  0  0  0  0  0  0
   -5.4094    3.3463    4.2626 H   0  0  0  0  0  0  0  0  0  0  0  0
   -7.1375    4.9076    2.9659 H   0  0  0  0  0  0  0  0  0  0  0  0
   -7.2915    3.4083    1.9887 H   0  0  0  0  0  0  0  0  0  0  0  0
   -7.6928    3.3845    3.7394 H   0  0  0  0  0  0  0  0  0  0  0  0
  1  3  1  0  0  0  0
  1  7  1  0  0  0  0
  1  2  2  0  0  0  0
 37 38  1  0  0  0  0
 38 46  1  0  0  0  0
 38 39  2  0  0  0  0
  8  9  1  0  0  0  0
  9 17  1  0  0  0  0
  9 10  2  0  0  0  0
 18 19  1  0  0  0  0
 19 36  1  0  0  0  0
 19 20  2  0  0  0  0
 22 24  1  0  0  0  0
 37 40  1  0  0  0  0
  8 11  1  0  0  0  0
 21 23  1  0  0  0  0
 46 47  1  0  0  0  0
 21 22  1  0  0  0  0
 36 37  1  0  0  0  0
  7  8  1  0  0  0  0
 18 21  1  0  0  0  0
 17 18  1  0  0  0  0
  3  4  1  0  0  0  0
  3  5  1  0  0  0  0
  3  6  1  0  0  0  0
 24 33  1  0  0  0  0
 24 34  1  0  0  0  0
 24 35  1  0  0  0  0
 40 43  1  0  0  0  0
 40 44  1  0  0  0  0
 40 45  1  0  0  0  0
 11 14  1  0  0  0  0
 11 15  1  0  0  0  0
 11 16  1  0  0  0  0
 23 30  1  0  0  0  0
 23 31  1  0  0  0  0
 23 32  1  0  0  0  0
 47 49  1  0  0  0  0
 47 50  1  0  0  0  0
 47 51  1  0  0  0  0
 22 28  1  0  0  0  0
 22 29  1  0  0  0  0
 37 42  1  0  0  0  0
  8 13  1  0  0  0  0
 18 26  1  0  0  0  0
 21 27  1  0  0  0  0
 46 48  1  0  0  0  0
  7 12  1  0  0  0  0
 36 41  1  0  0  0  0
 17 25  1  0  0  0  0
M  END
$$$$

  -OEChem-05262214473D

 51 50  0     1  0  0  0  0  0999 V2000
    1.3524   -3.0009    1.4091 C   0  0  0  0  0  0  0  0  0  0  0  0
    1.8758   -1.9880    0.9598 O   0  0  0  0  0  0  0  0  0  0  0  0
    2.2030   -4.1782    1.7536 C   0  0  0  0  0  0  0  0  0  0  0  0
    2.3264   -4.8705    0.9053 H   0  0  0  0  0  0  0  0  0  0  0  0
    3.2257   -3.8876    2.0432 H   0  0  0  0  0  0  0  0  0  0  0  0
    1.8327   -4.8004    2.5839 H   0  0  0  0  0  0  0  0  0  0  0  0
    0.0005   -3.1873    1.6465 N   0  0  0  0  0  0  0  0  0  0  0  0
   -0.9949   -2.1807    1.3864 C   0  0  2  0  0  0  0  0  0  0  0  0
   -0.3083   -0.8216    1.4164 C   0  0  0  0  0  0  0  0  0  0  0  0
    0.7533   -0.6191    2.0022 O   0  0  0  0  0  0  0  0  0  0  0  0
   -2.1232   -2.2423    2.4042 C   0  0  0  0  0  0  0  0  0  0  0  0
   -0.3048   -4.0823    2.0245 H   0  0  0  0  0  0  0  0  0  0  0  0
   -1.3830   -2.3724    0.3801 H   0  0  0  0  0  0  0  0  0  0  0  0
   -1.7534   -2.0527    3.4185 H   0  0  0  0  0  0  0  0  0  0  0  0
   -2.8936   -1.4947    2.1882 H   0  0  0  0  0  0  0  0  0  0  0  0
   -2.5964   -3.2301    2.4022 H   0  0  0  0  0  0  0  0  0  0  0  0
   -1.0412    0.1517    0.7482 N   0  0  0  0  0  0  0  0  0  0  0  0
   -0.6079    1.5223    0.6467 C   0  0  2  0  0  0  0  0  0  0  0  0
   -1.1694    2.2891    1.8434 C   0  0  0  0  0  0  0  0  0  0  0  0
   -0.5042    3.0936    2.4928 O   0  0  0  0  0  0  0  0  0  0  0  0
   -0.9833    2.1765   -0.7049 C   0  0  2  0  0  0  0  0  0  0  0  0
   -0.2955    1.4821   -1.9013 C   0  0  0  0  0  0  0  0  0  0  0  0
   -0.6743    3.6790   -0.6684 C   0  0  0  0  0  0  0  0  0  0  0  0
   -0.8416    1.9215   -3.2539 C   0  0  0  0  0  0  0  0  0  0  0  0
   -1.9022   -0.1128    0.2753 H   0  0  0  0  0  0  0  0  0  0  0  0
    0.4839    1.5006    0.7560 H   0  0  0  0  0  0  0  0  0  0  0  0
   -2.0685    2.0755   -0.8398 H   0  0  0  0  0  0  0  0  0  0  0  0
    0.7775    1.7051   -1.8882 H   0  0  0  0  0  0  0  0  0  0  0  0
   -0.3942    0.3932   -1.8197 H   0  0  0  0  0  0  0  0  0  0  0  0
    0.3990    3.8527   -0.5351 H   0  0  0  0  0  0  0  0  0  0  0  0
   -0.9633    4.1658   -1.6050 H   0  0  0  0  0  0  0  0  0  0  0  0
   -1.2037    4.1783    0.1497 H   0  0  0  0  0  0  0  0  0  0  0  0
   -1.9147    1.7274   -3.3375 H   0  0  0  0  0  0  0  0  0  0  0  0
   -0.3438    1.3670   -4.0562 H   0  0  0  0  0  0  0  0  0  0  0  0
   -0.6658    2.9887   -3.4213 H   0  0  0  0  0  0  0  0  0  0  0  0
   -2.5049    1.9924    2.0757 N   0  0  0  0  0  0  0  0  0  0  0  0
   -3.2788    2.5974    3.1356 C   0  0  2  0  0  0  0  0  0  0  0  0
   -4.7419    2.5901    2.7127 C   0  0  0  0  0  0  0  0  0  0  0  0
   -5.1006    2.5192    1.5391 O   0  0  0  0  0  0  0  0  0  0  0  0
   -2.8048    4.0124    3.4284 C   0  0  0  0  0  0  0  0  0  0  0  0
   -2.9612    1.3162    1.4706 H   0  0  0  0  0  0  0  0  0  0  0  0
   -3.1508    1.9654    4.0211 H   0  0  0  0  0  0  0  0  0  0  0  0
   -2.9253    4.6605    2.5527 H   0  0  0  0  0  0  0  0  0  0  0  0
   -3.3732    4.4591    4.2509 H   0  0  0  0  0  0  0  0  0  0  0  0
   -1.7446    4.0192    3.7035 H   0  0  0  0  0  0  0  0  0  0  0  0
   -5.5992    2.7155    3.7970 N   0  0  0  0  0  0  0  0  0  0  0  0
   -7.0361    2.7471    3.6551 C   0  0  0  0  0  0  0  0  0  0  0  0
   -5.2148    2.7491    4.7366 H   0  0  0  0  0  0  0  0  0  0  0  0
   -7.3739    3.7905    3.5707 H   0  0  0  0  0  0  0  0  0  0  0  0
   -7.3274    2.1932    2.7504 H   0  0  0  0  0  0  0  0  0  0  0  0
   -7.5018    2.2812    4.5361 H   0  0  0  0  0  0  0  0  0  0  0  0
  1  3  1  0  0  0  0
  1  7  1  0  0  0  0
  1  2  2  0  0  0  0
 37 38  1  0  0  0  0
 38 46  1  0  0  0  0
 38 39  2  0  0  0  0
  8  9  1  0  0  0  0
  9 17  1  0  0  0  0
  9 10  2  0  0  0  0
 18 19  1  0  0  0  0
 19 36  1  0  0  0  0
 19 20  2  0  0  0  0
 22 24  1  0  0  0  0
 37 40  1  0  0  0  0
  8 11  1  0  0  0  0
 21 23  1  0  0  0  0
 46 47  1  0  0  0  0
 21 22  1  0  0  0  0
 36 37  1  0  0  0  0
  7  8  1  0  0  0  0
 18 21  1  0  0  0  0
 17 18  1  0  0  0  0
  3  4  1  0  0  0  0
  3  5  1  0  0  0  0
  3  6  1  0  0  0  0
 24 33  1  0  0  0  0
 24 34  1  0  0  0  0
 24 35  1  0  0  0  0
 40 43  1  0  0  0  0
 40 44  1  0  0  0  0
 40 45  1  0  0  0  0
 11 14  1  0  0  0  0
 11 15  1  0  0  0  0
 11 16  1  0  0  0  0
 23 30  1  0  0  0  0
 23 31  1  0  0  0  0
 23 32  1  0  0  0  0
 47 49  1  0  0  0  0
 47 50  1  0  0  0  0
 47 51  1  0  0  0  0
 22 28  1  0  0  0  0
 22 29  1  0  0  0  0
 37 42  1  0  0  0  0
  8 13  1  0  0  0  0
 18 26  1  0  0  0  0
 21 27  1  0  0  0  0
 46 48  1  0  0  0  0
  7 12  1  0  0  0  0
 36 41  1  0  0  0  0
 17 25  1  0  0  0  0
M  END
$$$$

  -OEChem-05262214473D

 51 50  0     1  0  0  0  0  0999 V2000
    1.3524   -3.0009    1.4091 C   0  0  0  0  0  0  0  0  0  0  0  0
    1.8758   -1.9880    0.9598 O   0  0  0  0  0  0  0  0  0  0  0  0
    2.2030   -4.1782    1.7536 C   0  0  0  0  0  0  0  0  0  0  0  0
    2.3264   -4.8705    0.9053 H   0  0  0  0  0  0  0  0  0  0  0  0
    3.2257   -3.8876    2.0432 H   0  0  0  0  0  0  0  0  0  0  0  0
    1.8327   -4.8004    2.5839 H   0  0  0  0  0  0  0  0  0  0  0  0
    0.0005   -3.1873    1.6465 N   0  0  0  0  0  0  0  0  0  0  0  0
   -0.9949   -2.1807    1.3864 C   0  0  2  0  0  0  0  0  0  0  0  0
   -0.3083   -0.8216    1.4164 C   0  0  0  0  0  0  0  0  0  0  0  0
    0.7533   -0.6191    2.0022 O   0  0  0  0  0  0  0  0  0  0  0  0
   -2.1232   -2.2423    2.4042 C   0  0  0  0  0  0  0  0  0  0  0  0
   -0.3048   -4.0823    2.0245 H   0  0  0  0  0  0  0  0  0  0  0  0
   -1.3830   -2.3724    0.3801 H   0  0  0  0  0  0  0  0  0  0  0  0
   -1.7534   -2.0527    3.4185 H   0  0  0  0  0  0  0  0  0  0  0  0
   -2.8936   -1.4947    2.1882 H   0  0  0  0  0  0  0  0  0  0  0  0
   -2.5964   -3.2301    2.4022 H   0  0  0  0  0  0  0  0  0  0  0  0
   -1.0412    0.1517    0.7482 N   0  0  0  0  0  0  0  0  0  0  0  0
   -0.6079    1.5223    0.6467 C   0  0  2  0  0  0  0  0  0  0  0  0
   -1.1694    2.2891    1.8434 C   0  0  0  0  0  0  0  0  0  0  0  0
   -0.6139    3.2742    2.3255 O   0  0  0  0  0  0  0  0  0  0  0  0
   -0.9833    2.1765   -0.7049 C   0  0  2  0  0  0  0  0  0  0  0  0
   -0.2955    1.4821   -1.9013 C   0  0  0  0  0  0  0  0  0  0  0  0
   -0.6743    3.6790   -0.6684 C   0  0  0  0  0  0  0  0  0  0  0  0
   -0.8416    1.9215   -3.2539 C   0  0  0  0  0  0  0  0  0  0  0  0
   -1.9022   -0.1128    0.2753 H   0  0  0  0  0  0  0  0  0  0  0  0
    0.4839    1.5006    0.7560 H   0  0  0  0  0  0  0  0  0  0  0  0
   -2.0685    2.0755   -0.8398 H   0  0  0  0  0  0  0  0  0  0  0  0
    0.7775    1.7051   -1.8882 H   0  0  0  0  0  0  0  0  0  0  0  0
   -0.3942    0.3932   -1.8197 H   0  0  0  0  0  0  0  0  0  0  0  0
    0.3990    3.8527   -0.5351 H   0  0  0  0  0  0  0  0  0  0  0  0
   -0.9633    4.1658   -1.6050 H   0  0  0  0  0  0  0  0  0  0  0  0
   -1.2037    4.1783    0.1497 H   0  0  0  0  0  0  0  0  0  0  0  0
   -1.9147    1.7274   -3.3375 H   0  0  0  0  0  0  0  0  0  0  0  0
   -0.3438    1.3670   -4.0562 H   0  0  0  0  0  0  0  0  0  0  0  0
   -0.6658    2.9887   -3.4213 H   0  0  0  0  0  0  0  0  0  0  0  0
   -2.3756    1.7629    2.2834 N   0  0  0  0  0  0  0  0  0  0  0  0
   -3.1259    2.3155    3.3880 C   0  0  2  0  0  0  0  0  0  0  0  0
   -4.5951    1.9751    3.1757 C   0  0  0  0  0  0  0  0  0  0  0  0
   -5.0693    1.7083    2.0734 O   0  0  0  0  0  0  0  0  0  0  0  0
   -2.9264    3.8193    3.4951 C   0  0  0  0  0  0  0  0  0  0  0  0
   -2.7499    0.9486    1.8053 H   0  0  0  0  0  0  0  0  0  0  0  0
   -2.7633    1.8208    4.2956 H   0  0  0  0  0  0  0  0  0  0  0  0
   -3.2839    4.3322    2.5948 H   0  0  0  0  0  0  0  0  0  0  0  0
   -3.4726    4.2322    4.3496 H   0  0  0  0  0  0  0  0  0  0  0  0
   -1.8658    4.0639    3.6180 H   0  0  0  0  0  0  0  0  0  0  0  0
   -5.3231    2.0466    4.3551 N   0  0  0  0  0  0  0  0  0  0  0  0
   -6.7414    1.7798    4.4132 C   0  0  0  0  0  0  0  0  0  0  0  0
   -4.8443    2.2568    5.2259 H   0  0  0  0  0  0  0  0  0  0  0  0
   -7.2974    2.7211    4.2919 H   0  0  0  0  0  0  0  0  0  0  0  0
   -7.0170    1.0847    3.6065 H   0  0  0  0  0  0  0  0  0  0  0  0
   -6.9901    1.3299    5.3857 H   0  0  0  0  0  0  0  0  0  0  0  0
  1  3  1  0  0  0  0
  1  7  1  0  0  0  0
  1  2  2  0  0  0  0
 37 38  1  0  0  0  0
 38 46  1  0  0  0  0
 38 39  2  0  0  0  0
  8  9  1  0  0  0  0
  9 17  1  0  0  0  0
  9 10  2  0  0  0  0
 18 19  1  0  0  0  0
 19 36  1  0  0  0  0
 19 20  2  0  0  0  0
 22 24  1  0  0  0  0
 37 40  1  0  0  0  0
  8 11  1  0  0  0  0
 21 23  1  0  0  0  0
 46 47  1  0  0  0  0
 21 22  1  0  0  0  0
 36 37  1  0  0  0  0
  7  8  1  0  0  0  0
 18 21  1  0  0  0  0
 17 18  1  0  0  0  0
  3  4  1  0  0  0  0
  3  5  1  0  0  0  0
  3  6  1  0  0  0  0
 24 33  1  0  0  0  0
 24 34  1  0  0  0  0
 24 35  1  0  0  0  0
 40 43  1  0  0  0  0
 40 44  1  0  0  0  0
 40 45  1  0  0  0  0
 11 14  1  0  0  0  0
 11 15  1  0  0  0  0
 11 16  1  0  0  0  0
 23 30  1  0  0  0  0
 23 31  1  0  0  0  0
 23 32  1  0  0  0  0
 47 49  1  0  0  0  0
 47 50  1  0  0  0  0
 47 51  1  0  0  0  0
 22 28  1  0  0  0  0
 22 29  1  0  0  0  0
 37 42  1  0  0  0  0
  8 13  1  0  0  0  0
 18 26  1  0  0  0  0
 21 27  1  0  0  0  0
 46 48  1  0  0  0  0
  7 12  1  0  0  0  0
 36 41  1  0  0  0  0
 17 25  1  0  0  0  0
M  END
$$$$

  -OEChem-05262214473D

 51 50  0     1  0  0  0  0  0999 V2000
    1.3524   -3.0009    1.4091 C   0  0  0  0  0  0  0  0  0  0  0  0
    1.8758   -1.9880    0.9598 O   0  0  0  0  0  0  0  0  0  0  0  0
    2.2030   -4.1782    1.7536 C   0  0  0  0  0  0  0  0  0  0  0  0
    2.3264   -4.8705    0.9053 H   0  0  0  0  0  0  0  0  0  0  0  0
    3.2257   -3.8876    2.0432 H   0  0  0  0  0  0  0  0  0  0  0  0
    1.8327   -4.8004    2.5839 H   0  0  0  0  0  0  0  0  0  0  0  0
    0.0005   -3.1873    1.6465 N   0  0  0  0  0  0  0  0  0  0  0  0
   -0.9949   -2.1807    1.3864 C   0  0  2  0  0  0  0  0  0  0  0  0
   -0.3083   -0.8216    1.4164 C   0  0  0  0  0  0  0  0  0  0  0  0
    0.7533   -0.6191    2.0022 O   0  0  0  0  0  0  0  0  0  0  0  0
   -2.1232   -2.2423    2.4042 C   0  0  0  0  0  0  0  0  0  0  0  0
   -0.3048   -4.0823    2.0245 H   0  0  0  0  0  0  0  0  0  0  0  0
   -1.3830   -2.3724    0.3801 H   0  0  0  0  0  0  0  0  0  0  0  0
   -1.7534   -2.0527    3.4185 H   0  0  0  0  0  0  0  0  0  0  0  0
   -2.8936   -1.4947    2.1882 H   0  0  0  0  0  0  0  0  0  0  0  0
   -2.5964   -3.2301    2.4022 H   0  0  0  0  0  0  0  0  0  0  0  0
   -1.0412    0.1517    0.7482 N   0  0  0  0  0  0  0  0  0  0  0  0
   -0.6079    1.5223    0.6467 C   0  0  2  0  0  0  0  0  0  0  0  0
   -1.1694    2.2891    1.8434 C   0  0  0  0  0  0  0  0  0  0  0  0
   -0.7782    3.4105    2.1611 O   0  0  0  0  0  0  0  0  0  0  0  0
   -0.9833    2.1765   -0.7049 C   0  0  2  0  0  0  0  0  0  0  0  0
   -0.2955    1.4821   -1.9013 C   0  0  0  0  0  0  0  0  0  0  0  0
   -0.6743    3.6790   -0.6684 C   0  0  0  0  0  0  0  0  0  0  0  0
   -0.8416    1.9215   -3.2539 C   0  0  0  0  0  0  0  0  0  0  0  0
   -1.9022   -0.1128    0.2753 H   0  0  0  0  0  0  0  0  0  0  0  0
    0.4839    1.5006    0.7560 H   0  0  0  0  0  0  0  0  0  0  0  0
   -2.0685    2.0755   -0.8398 H   0  0  0  0  0  0  0  0  0  0  0  0
    0.7775    1.7051   -1.8882 H   0  0  0  0  0  0  0  0  0  0  0  0
   -0.3942    0.3932   -1.8197 H   0  0  0  0  0  0  0  0  0  0  0  0
    0.3990    3.8527   -0.5351 H   0  0  0  0  0  0  0  0  0  0  0  0
   -0.9633    4.1658   -1.6050 H   0  0  0  0  0  0  0  0  0  0  0  0
   -1.2037    4.1783    0.1497 H   0  0  0  0  0  0  0  0  0  0  0  0
   -1.9147    1.7274   -3.3375 H   0  0  0  0  0  0  0  0  0  0  0  0
   -0.3438    1.3670   -4.0562 H   0  0  0  0  0  0  0  0  0  0  0  0
   -0.6658    2.9887   -3.4213 H   0  0  0  0  0  0  0  0  0  0  0  0
   -2.1773    1.5871    2.4891 N   0  0  0  0  0  0  0  0  0  0  0  0
   -2.8883    2.0982    3.6388 C   0  0  2  0  0  0  0  0  0  0  0  0
   -4.2686    1.4549    3.6623 C   0  0  0  0  0  0  0  0  0  0  0  0
   -4.8054    0.9821    2.6626 O   0  0  0  0  0  0  0  0  0  0  0  0
   -2.9960    3.6145    3.5937 C   0  0  0  0  0  0  0  0  0  0  0  0
   -2.4278    0.6683    2.1361 H   0  0  0  0  0  0  0  0  0  0  0  0
   -2.3240    1.7857    4.5242 H   0  0  0  0  0  0  0  0  0  0  0  0
   -3.5582    3.9464    2.7133 H   0  0  0  0  0  0  0  0  0  0  0  0
   -3.5098    4.0022    4.4795 H   0  0  0  0  0  0  0  0  0  0  0  0
   -2.0030    4.0745    3.5468 H   0  0  0  0  0  0  0  0  0  0  0  0
   -4.8485    1.5095    4.9220 N   0  0  0  0  0  0  0  0  0  0  0  0
   -6.1622    0.9773    5.1993 C   0  0  0  0  0  0  0  0  0  0  0  0
   -4.3231    1.9029    5.6973 H   0  0  0  0  0  0  0  0  0  0  0  0
   -6.9131    1.7723    5.0803 H   0  0  0  0  0  0  0  0  0  0  0  0
   -6.3813    0.1583    4.4984 H   0  0  0  0  0  0  0  0  0  0  0  0
   -6.1928    0.5956    6.2304 H   0  0  0  0  0  0  0  0  0  0  0  0
  1  3  1  0  0  0  0
  1  7  1  0  0  0  0
  1  2  2  0  0  0  0
 37 38  1  0  0  0  0
 38 46  1  0  0  0  0
 38 39  2  0  0  0  0
  8  9  1  0  0  0  0
  9 17  1  0  0  0  0
  9 10  2  0  0  0  0
 18 19  1  0  0  0  0
 19 36  1  0  0  0  0
 19 20  2  0  0  0  0
 22 24  1  0  0  0  0
 37 40  1  0  0  0  0
  8 11  1  0  0  0  0
 21 23  1  0  0  0  0
 46 47  1  0  0  0  0
 21 22  1  0  0  0  0
 36 37  1  0  0  0  0
  7  8  1  0  0  0  0
 18 21  1  0  0  0  0
 17 18  1  0  0  0  0
  3  4  1  0  0  0  0
  3  5  1  0  0  0  0
  3  6  1  0  0  0  0
 24 33  1  0  0  0  0
 24 34  1  0  0  0  0
 24 35  1  0  0  0  0
 40 43  1  0  0  0  0
 40 44  1  0  0  0  0
 40 45  1  0  0  0  0
 11 14  1  0  0  0  0
 11 15  1  0  0  0  0
 11 16  1  0  0  0  0
 23 30  1  0  0  0  0
 23 31  1  0  0  0  0
 23 32  1  0  0  0  0
 47 49  1  0  0  0  0
 47 50  1  0  0  0  0
 47 51  1  0  0  0  0
 22 28  1  0  0  0  0
 22 29  1  0  0  0  0
 37 42  1  0  0  0  0
  8 13  1  0  0  0  0
 18 26  1  0  0  0  0
 21 27  1  0  0  0  0
 46 48  1  0  0  0  0
  7 12  1  0  0  0  0
 36 41  1  0  0  0  0
 17 25  1  0  0  0  0
M  END
$$$$

  -OEChem-05262214473D

 51 50  0     1  0  0  0  0  0999 V2000
    1.3524   -3.0009    1.4091 C   0  0  0  0  0  0  0  0  0  0  0  0
    1.8758   -1.9880    0.9598 O   0  0  0  0  0  0  0  0  0  0  0  0
    2.2030   -4.1782    1.7536 C   0  0  0  0  0  0  0  0  0  0  0  0
    2.3264   -4.8705    0.9053 H   0  0  0  0  0  0  0  0  0  0  0  0
    3.2257   -3.8876    2.0432 H   0  0  0  0  0  0  0  0  0  0  0  0
    1.8327   -4.8004    2.5839 H   0  0  0  0  0  0  0  0  0  0  0  0
    0.0005   -3.1873    1.6465 N   0  0  0  0  0  0  0  0  0  0  0  0
   -0.9949   -2.1807    1.3864 C   0  0  2  0  0  0  0  0  0  0  0  0
   -0.3083   -0.8216    1.4164 C   0  0  0  0  0  0  0  0  0  0  0  0
    0.7533   -0.6191    2.0022 O   0  0  0  0  0  0  0  0  0  0  0  0
   -2.1232   -2.2423    2.4042 C   0  0  0  0  0  0  0  0  0  0  0  0
   -0.3048   -4.0823    2.0245 H   0  0  0  0  0  0  0  0  0  0  0  0
   -1.3830   -2.3724    0.3801 H   0  0  0  0  0  0  0  0  0  0  0  0
   -1.7534   -2.0527    3.4185 H   0  0  0  0  0  0  0  0  0  0  0  0
   -2.8936   -1.4947    2.1882 H   0  0  0  0  0  0  0  0  0  0  0  0
   -2.5964   -3.2301    2.4022 H   0  0  0  0  0  0  0  0  0  0  0  0
   -1.0412    0.1517    0.7482 N   0  0  0  0  0  0  0  0  0  0  0  0
   -0.6079    1.5223    0.6467 C   0  0  2  0  0  0  0  0  0  0  0  0
   -1.1694    2.2891    1.8434 C   0  0  0  0  0  0  0  0  0  0  0  0
   -0.9859    3.4932    2.0106 O   0  0  0  0  0  0  0  0  0  0  0  0
   -0.9833    2.1765   -0.7049 C   0  0  2  0  0  0  0  0  0  0  0  0
   -0.2955    1.4821   -1.9013 C   0  0  0  0  0  0  0  0  0  0  0  0
   -0.6743    3.6790   -0.6684 C   0  0  0  0  0  0  0  0  0  0  0  0
   -0.8416    1.9215   -3.2539 C   0  0  0  0  0  0  0  0  0  0  0  0
   -1.9022   -0.1128    0.2753 H   0  0  0  0  0  0  0  0  0  0  0  0
    0.4839    1.5006    0.7560 H   0  0  0  0  0  0  0  0  0  0  0  0
   -2.0685    2.0755   -0.8398 H   0  0  0  0  0  0  0  0  0  0  0  0
    0.7775    1.7051   -1.8882 H   0  0  0  0  0  0  0  0  0  0  0  0
   -0.3942    0.3932   -1.8197 H   0  0  0  0  0  0  0  0  0  0  0  0
    0.3990    3.8527   -0.5351 H   0  0  0  0  0  0  0  0  0  0  0  0
   -0.9633    4.1658   -1.6050 H   0  0  0  0  0  0  0  0  0  0  0  0
   -1.2037    4.1783    0.1497 H   0  0  0  0  0  0  0  0  0  0  0  0
   -1.9147    1.7274   -3.3375 H   0  0  0  0  0  0  0  0  0  0  0  0
   -0.3438    1.3670   -4.0562 H   0  0  0  0  0  0  0  0  0  0  0  0
   -0.6658    2.9887   -3.4213 H   0  0  0  0  0  0  0  0  0  0  0  0
   -1.9234    1.4772    2.6787 N   0  0  0  0  0  0  0  0  0  0  0  0
   -2.5822    1.9603    3.8708 C   0  0  2  0  0  0  0  0  0  0  0  0
   -3.7845    1.0649    4.1393 C   0  0  0  0  0  0  0  0  0  0  0  0
   -4.3268    0.3903    3.2664 O   0  0  0  0  0  0  0  0  0  0  0  0
   -3.0089    3.4119    3.7175 C   0  0  0  0  0  0  0  0  0  0  0  0
   -2.0168    0.4942    2.4404 H   0  0  0  0  0  0  0  0  0  0  0  0
   -1.8629    1.8627    4.6913 H   0  0  0  0  0  0  0  0  0  0  0  0
   -3.7297    3.5294    2.9001 H   0  0  0  0  0  0  0  0  0  0  0  0
   -3.4823    3.7849    4.6317 H   0  0  0  0  0  0  0  0  0  0  0  0
   -2.1470    4.0500    3.4949 H   0  0  0  0  0  0  0  0  0  0  0  0
   -4.2075    1.1409    5.4590 N   0  0  0  0  0  0  0  0  0  0  0  0
   -5.3380    0.3943    5.9596 C   0  0  0  0  0  0  0  0  0  0  0  0
   -3.6867    1.7115    6.1185 H   0  0  0  0  0  0  0  0  0  0  0  0
   -6.2471    1.0087    5.8821 H   0  0  0  0  0  0  0  0  0  0  0  0
   -5.4636   -0.5229    5.3655 H   0  0  0  0  0  0  0  0  0  0  0  0
   -5.1642    0.1281    7.0127 H   0  0  0  0  0  0  0  0  0  0  0  0
  1  3  1  0  0  0  0
  1  7  1  0  0  0  0
  1  2  2  0  0  0  0
 37 38  1  0  0  0  0
 38 46  1  0  0  0  0
 38 39  2  0  0  0  0
  8  9  1  0  0  0  0
  9 17  1  0  0  0  0
  9 10  2  0  0  0  0
 18 19  1  0  0  0  0
 19 36  1  0  0  0  0
 19 20  2  0  0  0  0
 22 24  1  0  0  0  0
 37 40  1  0  0  0  0
  8 11  1  0  0  0  0
 21 23  1  0  0  0  0
 46 47  1  0  0  0  0
 21 22  1  0  0  0  0
 36 37  1  0  0  0  0
  7  8  1  0  0  0  0
 18 21  1  0  0  0  0
 17 18  1  0  0  0  0
  3  4  1  0  0  0  0
  3  5  1  0  0  0  0
  3  6  1  0  0  0  0
 24 33  1  0  0  0  0
 24 34  1  0  0  0  0
 24 35  1  0  0  0  0
 40 43  1  0  0  0  0
 40 44  1  0  0  0  0
 40 45  1  0  0  0  0
 11 14  1  0  0  0  0
 11 15  1  0  0  0  0
 11 16  1  0  0  0  0
 23 30  1  0  0  0  0
 23 31  1  0  0  0  0
 23 32  1  0  0  0  0
 47 49  1  0  0  0  0
 47 50  1  0  0  0  0
 47 51  1  0  0  0  0
 22 28  1  0  0  0  0
 22 29  1  0  0  0  0
 37 42  1  0  0  0  0
  8 13  1  0  0  0  0
 18 26  1  0  0  0  0
 21 27  1  0  0  0  0
 46 48  1  0  0  0  0
  7 12  1  0  0  0  0
 36 41  1  0  0  0  0
 17 25  1  0  0  0  0
M  END
$$$$

  -OEChem-05262214473D

 51 50  0     1  0  0  0  0  0999 V2000
    1.3524   -3.0009    1.4091 C   0  0  0  0  0  0  0  0  0  0  0  0
    1.8758   -1.9880    0.9598 O   0  0  0  0  0  0  0  0  0  0  0  0
    2.2030   -4.1782    1.7536 C   0  0  0  0  0  0  0  0  0  0  0  0
    2.3264   -4.8705    0.9053 H   0  0  0  0  0  0  0  0  0  0  0  0
    3.2257   -3.8876    2.0432 H   0  0  0  0  0  0  0  0  0  0  0  0
    1.8327   -4.8004    2.5839 H   0  0  0  0  0  0  0  0  0  0  0  0
    0.0005   -3.1873    1.6465 N   0  0  0  0  0  0  0  0  0  0  0  0
   -0.9949   -2.1807    1.3864 C   0  0  2  0  0  0  0  0  0  0  0  0
   -0.3083   -0.8216    1.4164 C   0  0  0  0  0  0  0  0  0  0  0  0
    0.7533   -0.6191    2.0022 O   0  0  0  0  0  0  0  0  0  0  0  0
   -2.1232   -2.2423    2.4042 C   0  0  0  0  0  0  0  0  0  0  0  0
   -0.3048   -4.0823    2.0245 H   0  0  0  0  0  0  0  0  0  0  0  0
   -1.3830   -2.3724    0.3801 H   0  0  0  0  0  0  0  0  0  0  0  0
   -1.7534   -2.0527    3.4185 H   0  0  0  0  0  0  0  0  0  0  0  0
   -2.8936   -1.4947    2.1882 H   0  0  0  0  0  0  0  0  0  0  0  0
   -2.5964   -3.2301    2.4022 H   0  0  0  0  0  0  0  0  0  0  0  0
   -1.0412    0.1517    0.7482 N   0  0  0  0  0  0  0  0  0  0  0  0
   -0.6079    1.5223    0.6467 C   0  0  2  0  0  0  0  0  0  0  0  0
   -1.1694    2.2891    1.8434 C   0  0  0  0  0  0  0  0  0  0  0  0
   -1.2228    3.5167    1.8844 O   0  0  0  0  0  0  0  0  0  0  0  0
   -0.9833    2.1765   -0.7049 C   0  0  2  0  0  0  0  0  0  0  0  0
   -0.2955    1.4821   -1.9013 C   0  0  0  0  0  0  0  0  0  0  0  0
   -0.6743    3.6790   -0.6684 C   0  0  0  0  0  0  0  0  0  0  0  0
   -0.8416    1.9215   -3.2539 C   0  0  0  0  0  0  0  0  0  0  0  0
   -1.9022   -0.1128    0.2753 H   0  0  0  0  0  0  0  0  0  0  0  0
    0.4839    1.5006    0.7560 H   0  0  0  0  0  0  0  0  0  0  0  0
   -2.0685    2.0755   -0.8398 H   0  0  0  0  0  0  0  0  0  0  0  0
    0.7775    1.7051   -1.8882 H   0  0  0  0  0  0  0  0  0  0  0  0
   -0.3942    0.3932   -1.8197 H   0  0  0  0  0  0  0  0  0  0  0  0
    0.3990    3.8527   -0.5351 H   0  0  0  0  0  0  0  0  0  0  0  0
   -0.9633    4.1658   -1.6050 H   0  0  0  0  0  0  0  0  0  0  0  0
   -1.2037    4.1783    0.1497 H   0  0  0  0  0  0  0  0  0  0  0  0
   -1.9147    1.7274   -3.3375 H   0  0  0  0  0  0  0  0  0  0  0  0
   -0.3438    1.3670   -4.0562 H   0  0  0  0  0  0  0  0  0  0  0  0
   -0.6658    2.9887   -3.4213 H   0  0  0  0  0  0  0  0  0  0  0  0
   -1.6312    1.4404    2.8393 N   0  0  0  0  0  0  0  0  0  0  0  0
   -2.2284    1.9112    4.0683 C   0  0  2  0  0  0  0  0  0  0  0  0
   -3.1760    0.8316    4.5744 C   0  0  0  0  0  0  0  0  0  0  0  0
   -3.6661   -0.0270    3.8438 O   0  0  0  0  0  0  0  0  0  0  0  0
   -2.9643    3.2253    3.8580 C   0  0  0  0  0  0  0  0  0  0  0  0
   -1.5451    0.4384    2.6976 H   0  0  0  0  0  0  0  0  0  0  0  0
   -1.4114    2.0463    4.7855 H   0  0  0  0  0  0  0  0  0  0  0  0
   -3.7865    3.1096    3.1424 H   0  0  0  0  0  0  0  0  0  0  0  0
   -3.3919    3.5951    4.7958 H   0  0  0  0  0  0  0  0  0  0  0  0
   -2.2878    3.9924    3.4658 H   0  0  0  0  0  0  0  0  0  0  0  0
   -3.4439    0.9658    5.9295 N   0  0  0  0  0  0  0  0  0  0  0  0
   -4.3250    0.0705    6.6424 C   0  0  0  0  0  0  0  0  0  0  0  0
   -2.9785    1.6956    6.4610 H   0  0  0  0  0  0  0  0  0  0  0  0
   -5.3450    0.4823    6.6427 H   0  0  0  0  0  0  0  0  0  0  0  0
   -4.3266   -0.9124    6.1486 H   0  0  0  0  0  0  0  0  0  0  0  0
   -3.9742   -0.0405    7.6791 H   0  0  0  0  0  0  0  0  0  0  0  0
  1  3  1  0  0  0  0
  1  7  1  0  0  0  0
  1  2  2  0  0  0  0
 37 38  1  0  0  0  0
 38 46  1  0  0  0  0
 38 39  2  0  0  0  0
  8  9  1  0  0  0  0
  9 17  1  0  0  0  0
  9 10  2  0  0  0  0
 18 19  1  0  0  0  0
 19 36  1  0  0  0  0
 19 20  2  0  0  0  0
 22 24  1  0  0  0  0
 37 40  1  0  0  0  0
  8 11  1  0  0  0  0
 21 23  1  0  0  0  0
 46 47  1  0  0  0  0
 21 22  1  0  0  0  0
 36 37  1  0  0  0  0
  7  8  1  0  0  0  0
 18 21  1  0  0  0  0
 17 18  1  0  0  0  0
  3  4  1  0  0  0  0
  3  5  1  0  0  0  0
  3  6  1  0  0  0  0
 24 33  1  0  0  0  0
 24 34  1  0  0  0  0
 24 35  1  0  0  0  0
 40 43  1  0  0  0  0
 40 44  1  0  0  0  0
 40 45  1  0  0  0  0
 11 14  1  0  0  0  0
 11 15  1  0  0  0  0
 11 16  1  0  0  0  0
 23 30  1  0  0  0  0
 23 31  1  0  0  0  0
 23 32  1  0  0  0  0
 47 49  1  0  0  0  0
 47 50  1  0  0  0  0
 47 51  1  0  0  0  0
 22 28  1  0  0  0  0
 22 29  1  0  0  0  0
 37 42  1  0  0  0  0
  8 13  1  0  0  0  0
 18 26  1  0  0  0  0
 21 27  1  0  0  0  0
 46 48  1  0  0  0  0
  7 12  1  0  0  0  0
 36 41  1  0  0  0  0
 17 25  1  0  0  0  0
M  END
$$$$

  -OEChem-05262214473D

 51 50  0     1  0  0  0  0  0999 V2000
    1.3524   -3.0009    1.4091 C   0  0  0  0  0  0  0  0  0  0  0  0
    1.8758   -1.9880    0.9598 O   0  0  0  0  0  0  0  0  0  0  0  0
    2.2030   -4.1782    1.7536 C   0  0  0  0  0  0  0  0  0  0  0  0
    2.3264   -4.8705    0.9053 H   0  0  0  0  0  0  0  0  0  0  0  0
    3.2257   -3.8876    2.0432 H   0  0  0  0  0  0  0  0  0  0  0  0
    1.8327   -4.8004    2.5839 H   0  0  0  0  0  0  0  0  0  0  0  0
    0.0005   -3.1873    1.6465 N   0  0  0  0  0  0  0  0  0  0  0  0
   -0.9949   -2.1807    1.3864 C   0  0  2  0  0  0  0  0  0  0  0  0
   -0.3083   -0.8216    1.4164 C   0  0  0  0  0  0  0  0  0  0  0  0
    0.7533   -0.6191    2.0022 O   0  0  0  0  0  0  0  0  0  0  0  0
   -2.1232   -2.2423    2.4042 C   0  0  0  0  0  0  0  0  0  0  0  0
   -0.3048   -4.0823    2.0245 H   0  0  0  0  0  0  0  0  0  0  0  0
   -1.3830   -2.3724    0.3801 H   0  0  0  0  0  0  0  0  0  0  0  0
   -1.7534   -2.0527    3.4185 H   0  0  0  0  0  0  0  0  0  0  0  0
   -2.8936   -1.4947    2.1882 H   0  0  0  0  0  0  0  0  0  0  0  0
   -2.5964   -3.2301    2.4022 H   0  0  0  0  0  0  0  0  0  0  0  0
   -1.0412    0.1517    0.7482 N   0  0  0  0  0  0  0  0  0  0  0  0
   -0.6079    1.5223    0.6467 C   0  0  2  0  0  0  0  0  0  0  0  0
   -1.1694    2.2891    1.8434 C   0  0  0  0  0  0  0  0  0  0  0  0
   -1.4728    3.4793    1.7910 O   0  0  0  0  0  0  0  0  0  0  0  0
   -0.9833    2.1765   -0.7049 C   0  0  2  0  0  0  0  0  0  0  0  0
   -0.2955    1.4821   -1.9013 C   0  0  0  0  0  0  0  0  0  0  0  0
   -0.6743    3.6790   -0.6684 C   0  0  0  0  0  0  0  0  0  0  0  0
   -0.8416    1.9215   -3.2539 C   0  0  0  0  0  0  0  0  0  0  0  0
   -1.9022   -0.1128    0.2753 H   0  0  0  0  0  0  0  0  0  0  0  0
    0.4839    1.5006    0.7560 H   0  0  0  0  0  0  0  0  0  0  0  0
   -2.0685    2.0755   -0.8398 H   0  0  0  0  0  0  0  0  0  0  0  0
    0.7775    1.7051   -1.8882 H   0  0  0  0  0  0  0  0  0  0  0  0
   -0.3942    0.3932   -1.8197 H   0  0  0  0  0  0  0  0  0  0  0  0
    0.3990    3.8527   -0.5351 H   0  0  0  0  0  0  0  0  0  0  0  0
   -0.9633    4.1658   -1.6050 H   0  0  0  0  0  0  0  0  0  0  0  0
   -1.2037    4.1783    0.1497 H   0  0  0  0  0  0  0  0  0  0  0  0
   -1.9147    1.7274   -3.3375 H   0  0  0  0  0  0  0  0  0  0  0  0
   -0.3438    1.3670   -4.0562 H   0  0  0  0  0  0  0  0  0  0  0  0
   -0.6658    2.9887   -3.4213 H   0  0  0  0  0  0  0  0  0  0  0  0
   -1.3206    1.4794    2.9601 N   0  0  0  0  0  0  0  0  0  0  0  0
   -1.8511    1.9542    4.2178 C   0  0  2  0  0  0  0  0  0  0  0  0
   -2.4844    0.7710    4.9377 C   0  0  0  0  0  0  0  0  0  0  0  0
   -2.8683   -0.2412    4.3554 O   0  0  0  0  0  0  0  0  0  0  0  0
   -2.8651    3.0675    4.0056 C   0  0  0  0  0  0  0  0  0  0  0  0
   -1.0448    0.5044    2.8900 H   0  0  0  0  0  0  0  0  0  0  0  0
   -1.0003    2.3242    4.8003 H   0  0  0  0  0  0  0  0  0  0  0  0
   -3.7248    2.7157    3.4238 H   0  0  0  0  0  0  0  0  0  0  0  0
   -3.2448    3.4456    4.9606 H   0  0  0  0  0  0  0  0  0  0  0  0
   -2.4159    3.9053    3.4615 H   0  0  0  0  0  0  0  0  0  0  0  0
   -2.6097    0.9961    6.3015 N   0  0  0  0  0  0  0  0  0  0  0  0
   -3.1922    0.0280    7.2012 C   0  0  0  0  0  0  0  0  0  0  0  0
   -2.2468    1.8565    6.7013 H   0  0  0  0  0  0  0  0  0  0  0  0
   -4.2681    0.2290    7.3103 H   0  0  0  0  0  0  0  0  0  0  0  0
   -3.0476   -0.9837    6.7945 H   0  0  0  0  0  0  0  0  0  0  0  0
   -2.7041    0.1012    8.1843 H   0  0  0  0  0  0  0  0  0  0  0  0
  1  3  1  0  0  0  0
  1  7  1  0  0  0  0
  1  2  2  0  0  0  0
 37 38  1  0  0  0  0
 38 46  1  0  0  0  0
 38 39  2  0  0  0  0
  8  9  1  0  0  0  0
  9 17  1  0  0  0  0
  9 10  2  0  0  0  0
 18 19  1  0  0  0  0
 19 36  1  0  0  0  0
 19 20  2  0  0  0  0
 22 24  1  0  0  0  0
 37 40  1  0  0  0  0
  8 11  1  0  0  0  0
 21 23  1  0  0  0  0
 46 47  1  0  0  0  0
 21 22  1  0  0  0  0
 36 37  1  0  0  0  0
  7  8  1  0  0  0  0
 18 21  1  0  0  0  0
 17 18  1  0  0  0  0
  3  4  1  0  0  0  0
  3  5  1  0  0  0  0
  3  6  1  0  0  0  0
 24 33  1  0  0  0  0
 24 34  1  0  0  0  0
 24 35  1  0  0  0  0
 40 43  1  0  0  0  0
 40 44  1  0  0  0  0
 40 45  1  0  0  0  0
 11 14  1  0  0  0  0
 11 15  1  0  0  0  0
 11 16  1  0  0  0  0
 23 30  1  0  0  0  0
 23 31  1  0  0  0  0
 23 32  1  0  0  0  0
 47 49  1  0  0  0  0
 47 50  1  0  0  0  0
 47 51  1  0  0  0  0
 22 28  1  0  0  0  0
 22 29  1  0  0  0  0
 37 42  1  0  0  0  0
  8 13  1  0  0  0  0
 18 26  1  0  0  0  0
 21 27  1  0  0  0  0
 46 48  1  0  0  0  0
  7 12  1  0  0  0  0
 36 41  1  0  0  0  0
 17 25  1  0  0  0  0
M  END
$$$$

  -OEChem-05262214473D

 51 50  0     1  0  0  0  0  0999 V2000
    1.3524   -3.0009    1.4091 C   0  0  0  0  0  0  0  0  0  0  0  0
    1.8758   -1.9880    0.9598 O   0  0  0  0  0  0  0  0  0  0  0  0
    2.2030   -4.1782    1.7536 C   0  0  0  0  0  0  0  0  0  0  0  0
    2.3264   -4.8705    0.9053 H   0  0  0  0  0  0  0  0  0  0  0  0
    3.2257   -3.8876    2.0432 H   0  0  0  0  0  0  0  0  0  0  0  0
    1.8327   -4.8004    2.5839 H   0  0  0  0  0  0  0  0  0  0  0  0
    0.0005   -3.1873    1.6465 N   0  0  0  0  0  0  0  0  0  0  0  0
   -0.9949   -2.1807    1.3864 C   0  0  2  0  0  0  0  0  0  0  0  0
   -0.3083   -0.8216    1.4164 C   0  0  0  0  0  0  0  0  0  0  0  0
    0.7533   -0.6191    2.0022 O   0  0  0  0  0  0  0  0  0  0  0  0
   -2.1232   -2.2423    2.4042 C   0  0  0  0  0  0  0  0  0  0  0  0
   -0.3048   -4.0823    2.0245 H   0  0  0  0  0  0  0  0  0  0  0  0
   -1.3830   -2.3724    0.3801 H   0  0  0  0  0  0  0  0  0  0  0  0
   -1.7534   -2.0527    3.4185 H   0  0  0  0  0  0  0  0  0  0  0  0
   -2.8936   -1.4947    2.1882 H   0  0  0  0  0  0  0  0  0  0  0  0
   -2.5964   -3.2301    2.4022 H   0  0  0  0  0  0  0  0  0  0  0  0
   -1.0412    0.1517    0.7482 N   0  0  0  0  0  0  0  0  0  0  0  0
   -0.6079    1.5223    0.6467 C   0  0  2  0  0  0  0  0  0  0  0  0
   -1.1694    2.2891    1.8434 C   0  0  0  0  0  0  0  0  0  0  0  0
   -1.7189    3.3837    1.7368 O   0  0  0  0  0  0  0  0  0  0  0  0
   -0.9833    2.1765   -0.7049 C   0  0  2  0  0  0  0  0  0  0  0  0
   -0.2955    1.4821   -1.9013 C   0  0  0  0  0  0  0  0  0  0  0  0
   -0.6743    3.6790   -0.6684 C   0  0  0  0  0  0  0  0  0  0  0  0
   -0.8416    1.9215   -3.2539 C   0  0  0  0  0  0  0  0  0  0  0  0
   -1.9022   -0.1128    0.2753 H   0  0  0  0  0  0  0  0  0  0  0  0
    0.4839    1.5006    0.7560 H   0  0  0  0  0  0  0  0  0  0  0  0
   -2.0685    2.0755   -0.8398 H   0  0  0  0  0  0  0  0  0  0  0  0
    0.7775    1.7051   -1.8882 H   0  0  0  0  0  0  0  0  0  0  0  0
   -0.3942    0.3932   -1.8197 H   0  0  0  0  0  0  0  0  0  0  0  0
    0.3990    3.8527   -0.5351 H   0  0  0  0  0  0  0  0  0  0  0  0
   -0.9633    4.1658   -1.6050 H   0  0  0  0  0  0  0  0  0  0  0  0
   -1.2037    4.1783    0.1497 H   0  0  0  0  0  0  0  0  0  0  0  0
   -1.9147    1.7274   -3.3375 H   0  0  0  0  0  0  0  0  0  0  0  0
   -0.3438    1.3670   -4.0562 H   0  0  0  0  0  0  0  0  0  0  0  0
   -0.6658    2.9887   -3.4213 H   0  0  0  0  0  0  0  0  0  0  0  0
   -1.0129    1.5915    3.0326 N   0  0  0  0  0  0  0  0  0  0  0  0
   -1.4759    2.0865    4.3090 C   0  0  2  0  0  0  0  0  0  0  0  0
   -1.7568    0.8872    5.2047 C   0  0  0  0  0  0  0  0  0  0  0  0
   -1.9879   -0.2378    4.7664 O   0  0  0  0  0  0  0  0  0  0  0  0
   -2.7182    2.9492    4.1504 C   0  0  0  0  0  0  0  0  0  0  0  0
   -0.5498    0.6880    3.0047 H   0  0  0  0  0  0  0  0  0  0  0  0
   -0.6576    2.6773    4.7349 H   0  0  0  0  0  0  0  0  0  0  0  0
   -3.5489    2.3744    3.7250 H   0  0  0  0  0  0  0  0  0  0  0  0
   -3.0510    3.3467    5.1149 H   0  0  0  0  0  0  0  0  0  0  0  0
   -2.5226    3.7949    3.4822 H   0  0  0  0  0  0  0  0  0  0  0  0
   -1.7618    1.2299    6.5495 N   0  0  0  0  0  0  0  0  0  0  0  0
   -2.0168    0.2697    7.5979 C   0  0  0  0  0  0  0  0  0  0  0  0
   -1.5413    2.1830    6.8231 H   0  0  0  0  0  0  0  0  0  0  0  0
   -3.0899    0.2661    7.8394 H   0  0  0  0  0  0  0  0  0  0  0  0
   -1.7139   -0.7320    7.2590 H   0  0  0  0  0  0  0  0  0  0  0  0
   -1.4403    0.5436    8.4938 H   0  0  0  0  0  0  0  0  0  0  0  0
  1  3  1  0  0  0  0
  1  7  1  0  0  0  0
  1  2  2  0  0  0  0
 37 38  1  0  0  0  0
 38 46  1  0  0  0  0
 38 39  2  0  0  0  0
  8  9  1  0  0  0  0
  9 17  1  0  0  0  0
  9 10  2  0  0  0  0
 18 19  1  0  0  0  0
 19 36  1  0  0  0  0
 19 20  2  0  0  0  0
 22 24  1  0  0  0  0
 37 40  1  0  0  0  0
  8 11  1  0  0  0  0
 21 23  1  0  0  0  0
 46 47  1  0  0  0  0
 21 22  1  0  0  0  0
 36 37  1  0  0  0  0
  7  8  1  0  0  0  0
 18 21  1  0  0  0  0
 17 18  1  0  0  0  0
  3  4  1  0  0  0  0
  3  5  1  0  0  0  0
  3  6  1  0  0  0  0
 24 33  1  0  0  0  0
 24 34  1  0  0  0  0
 24 35  1  0  0  0  0
 40 43  1  0  0  0  0
 40 44  1  0  0  0  0
 40 45  1  0  0  0  0
 11 14  1  0  0  0  0
 11 15  1  0  0  0  0
 11 16  1  0  0  0  0
 23 30  1  0  0  0  0
 23 31  1  0  0  0  0
 23 32  1  0  0  0  0
 47 49  1  0  0  0  0
 47 50  1  0  0  0  0
 47 51  1  0  0  0  0
 22 28  1  0  0  0  0
 22 29  1  0  0  0  0
 37 42  1  0  0  0  0
  8 13  1  0  0  0  0
 18 26  1  0  0  0  0
 21 27  1  0  0  0  0
 46 48  1  0  0  0  0
  7 12  1  0  0  0  0
 36 41  1  0  0  0  0
 17 25  1  0  0  0  0
M  END
$$$$

  -OEChem-05262214473D

 51 50  0     1  0  0  0  0  0999 V2000
    1.3524   -3.0009    1.4091 C   0  0  0  0  0  0  0  0  0  0  0  0
    1.8758   -1.9880    0.9598 O   0  0  0  0  0  0  0  0  0  0  0  0
    2.2030   -4.1782    1.7536 C   0  0  0  0  0  0  0  0  0  0  0  0
    2.3264   -4.8705    0.9053 H   0  0  0  0  0  0  0  0  0  0  0  0
    3.2257   -3.8876    2.0432 H   0  0  0  0  0  0  0  0  0  0  0  0
    1.8327   -4.8004    2.5839 H   0  0  0  0  0  0  0  0  0  0  0  0
    0.0005   -3.1873    1.6465 N   0  0  0  0  0  0  0  0  0  0  0  0
   -0.9949   -2.1807    1.3864 C   0  0  2  0  0  0  0  0  0  0  0  0
   -0.3083   -0.8216    1.4164 C   0  0  0  0  0  0  0  0  0  0  0  0
    0.7533   -0.6191    2.0022 O   0  0  0  0  0  0  0  0  0  0  0  0
   -2.1232   -2.2423    2.4042 C   0  0  0  0  0  0  0  0  0  0  0  0
   -0.3048   -4.0823    2.0245 H   0  0  0  0  0  0  0  0  0  0  0  0
   -1.3830   -2.3724    0.3801 H   0  0  0  0  0  0  0  0  0  0  0  0
   -1.7534   -2.0527    3.4185 H   0  0  0  0  0  0  0  0  0  0  0  0
   -2.8936   -1.4947    2.1882 H   0  0  0  0  0  0  0  0  0  0  0  0
   -2.5964   -3.2301    2.4022 H   0  0  0  0  0  0  0  0  0  0  0  0
   -1.0412    0.1517    0.7482 N   0  0  0  0  0  0  0  0  0  0  0  0
   -0.6079    1.5223    0.6467 C   0  0  2  0  0  0  0  0  0  0  0  0
   -1.1694    2.2891    1.8434 C   0  0  0  0  0  0  0  0  0  0  0  0
   -1.9442    3.2364    1.7256 O   0  0  0  0  0  0  0  0  0  0  0  0
   -0.9833    2.1765   -0.7049 C   0  0  2  0  0  0  0  0  0  0  0  0
   -0.2955    1.4821   -1.9013 C   0  0  0  0  0  0  0  0  0  0  0  0
   -0.6743    3.6790   -0.6684 C   0  0  0  0  0  0  0  0  0  0  0  0
   -0.8416    1.9215   -3.2539 C   0  0  0  0  0  0  0  0  0  0  0  0
   -1.9022   -0.1128    0.2753 H   0  0  0  0  0  0  0  0  0  0  0  0
    0.4839    1.5006    0.7560 H   0  0  0  0  0  0  0  0  0  0  0  0
   -2.0685    2.0755   -0.8398 H   0  0  0  0  0  0  0  0  0  0  0  0
    0.7775    1.7051   -1.8882 H   0  0  0  0  0  0  0  0  0  0  0  0
   -0.3942    0.3932   -1.8197 H   0  0  0  0  0  0  0  0  0  0  0  0
    0.3990    3.8527   -0.5351 H   0  0  0  0  0  0  0  0  0  0  0  0
   -0.9633    4.1658   -1.6050 H   0  0  0  0  0  0  0  0  0  0  0  0
   -1.2037    4.1783    0.1497 H   0  0  0  0  0  0  0  0  0  0  0  0
   -1.9147    1.7274   -3.3375 H   0  0  0  0  0  0  0  0  0  0  0  0
   -0.3438    1.3670   -4.0562 H   0  0  0  0  0  0  0  0  0  0  0  0
   -0.6658    2.9887   -3.4213 H   0  0  0  0  0  0  0  0  0  0  0  0
   -0.7290    1.7691    3.0521 N   0  0  0  0  0  0  0  0  0  0  0  0
   -1.1285    2.2990    4.3359 C   0  0  2  0  0  0  0  0  0  0  0  0
   -1.0430    1.1722    5.3570 C   0  0  0  0  0  0  0  0  0  0  0  0
   -1.0848   -0.0170    5.0487 O   0  0  0  0  0  0  0  0  0  0  0  0
   -2.5334    2.8785    4.2824 C   0  0  0  0  0  0  0  0  0  0  0  0
   -0.0941    0.9765    3.0336 H   0  0  0  0  0  0  0  0  0  0  0  0
   -0.4066    3.0816    4.5935 H   0  0  0  0  0  0  0  0  0  0  0  0
   -3.2706    2.1091    4.0256 H   0  0  0  0  0  0  0  0  0  0  0  0
   -2.8237    3.3052    5.2481 H   0  0  0  0  0  0  0  0  0  0  0  0
   -2.6006    3.6685    3.5265 H   0  0  0  0  0  0  0  0  0  0  0  0
   -0.9580    1.6512    6.6568 N   0  0  0  0  0  0  0  0  0  0  0  0
   -0.8789    0.7791    7.8054 C   0  0  0  0  0  0  0  0  0  0  0  0
   -0.9103    2.6529    6.8181 H   0  0  0  0  0  0  0  0  0  0  0  0
   -1.8907    0.5910    8.1940 H   0  0  0  0  0  0  0  0  0  0  0  0
   -0.4164   -0.1744    7.5106 H   0  0  0  0  0  0  0  0  0  0  0  0
   -0.2691    1.2564    8.5867 H   0  0  0  0  0  0  0  0  0  0  0  0
  1  3  1  0  0  0  0
  1  7  1  0  0  0  0
  1  2  2  0  0  0  0
 37 38  1  0  0  0  0
 38 46  1  0  0  0  0
 38 39  2  0  0  0  0
  8  9  1  0  0  0  0
  9 17  1  0  0  0  0
  9 10  2  0  0  0  0
 18 19  1  0  0  0  0
 19 36  1  0  0  0  0
 19 20  2  0  0  0  0
 22 24  1  0  0  0  0
 37 40  1  0  0  0  0
  8 11  1  0  0  0  0
 21 23  1  0  0  0  0
 46 47  1  0  0  0  0
 21 22  1  0  0  0  0
 36 37  1  0  0  0  0
  7  8  1  0  0  0  0
 18 21  1  0  0  0  0
 17 18  1  0  0  0  0
  3  4  1  0  0  0  0
  3  5  1  0  0  0  0
  3  6  1  0  0  0  0
 24 33  1  0  0  0  0
 24 34  1  0  0  0  0
 24 35  1  0  0  0  0
 40 43  1  0  0  0  0
 40 44  1  0  0  0  0
 40 45  1  0  0  0  0
 11 14  1  0  0  0  0
 11 15  1  0  0  0  0
 11 16  1  0  0  0  0
 23 30  1  0  0  0  0
 23 31  1  0  0  0  0
 23 32  1  0  0  0  0
 47 49  1  0  0  0  0
 47 50  1  0  0  0  0
 47 51  1  0  0  0  0
 22 28  1  0  0  0  0
 22 29  1  0  0  0  0
 37 42  1  0  0  0  0
  8 13  1  0  0  0  0
 18 26  1  0  0  0  0
 21 27  1  0  0  0  0
 46 48  1  0  0  0  0
  7 12  1  0  0  0  0
 36 41  1  0  0  0  0
 17 25  1  0  0  0  0
M  END
$$$$

  -OEChem-05262214473D

 51 50  0     1  0  0  0  0  0999 V2000
    1.3524   -3.0009    1.4091 C   0  0  0  0  0  0  0  0  0  0  0  0
    1.8758   -1.9880    0.9598 O   0  0  0  0  0  0  0  0  0  0  0  0
    2.2030   -4.1782    1.7536 C   0  0  0  0  0  0  0  0  0  0  0  0
    2.3264   -4.8705    0.9053 H   0  0  0  0  0  0  0  0  0  0  0  0
    3.2257   -3.8876    2.0432 H   0  0  0  0  0  0  0  0  0  0  0  0
    1.8327   -4.8004    2.5839 H   0  0  0  0  0  0  0  0  0  0  0  0
    0.0005   -3.1873    1.6465 N   0  0  0  0  0  0  0  0  0  0  0  0
   -0.9949   -2.1807    1.3864 C   0  0  2  0  0  0  0  0  0  0  0  0
   -0.3083   -0.8216    1.4164 C   0  0  0  0  0  0  0  0  0  0  0  0
    0.7533   -0.6191    2.0022 O   0  0  0  0  0  0  0  0  0  0  0  0
   -2.1232   -2.2423    2.4042 C   0  0  0  0  0  0  0  0  0  0  0  0
   -0.3048   -4.0823    2.0245 H   0  0  0  0  0  0  0  0  0  0  0  0
   -1.3830   -2.3724    0.3801 H   0  0  0  0  0  0  0  0  0  0  0  0
   -1.7534   -2.0527    3.4185 H   0  0  0  0  0  0  0  0  0  0  0  0
   -2.8936   -1.4947    2.1882 H   0  0  0  0  0  0  0  0  0  0  0  0
   -2.5964   -3.2301    2.4022 H   0  0  0  0  0  0  0  0  0  0  0  0
   -1.0412    0.1517    0.7482 N   0  0  0  0  0  0  0  0  0  0  0  0
   -0.6079    1.5223    0.6467 C   0  0  2  0  0  0  0  0  0  0  0  0
   -1.1694    2.2891    1.8434 C   0  0  0  0  0  0  0  0  0  0  0  0
   -2.1334    3.0473    1.7579 O   0  0  0  0  0  0  0  0  0  0  0  0
   -0.9833    2.1765   -0.7049 C   0  0  2  0  0  0  0  0  0  0  0  0
   -0.2955    1.4821   -1.9013 C   0  0  0  0  0  0  0  0  0  0  0  0
   -0.6743    3.6790   -0.6684 C   0  0  0  0  0  0  0  0  0  0  0  0
   -0.8416    1.9215   -3.2539 C   0  0  0  0  0  0  0  0  0  0  0  0
   -1.9022   -0.1128    0.2753 H   0  0  0  0  0  0  0  0  0  0  0  0
    0.4839    1.5006    0.7560 H   0  0  0  0  0  0  0  0  0  0  0  0
   -2.0685    2.0755   -0.8398 H   0  0  0  0  0  0  0  0  0  0  0  0
    0.7775    1.7051   -1.8882 H   0  0  0  0  0  0  0  0  0  0  0  0
   -0.3942    0.3932   -1.8197 H   0  0  0  0  0  0  0  0  0  0  0  0
    0.3990    3.8527   -0.5351 H   0  0  0  0  0  0  0  0  0  0  0  0
   -0.9633    4.1658   -1.6050 H   0  0  0  0  0  0  0  0  0  0  0  0
   -1.2037    4.1783    0.1497 H   0  0  0  0  0  0  0  0  0  0  0  0
   -1.9147    1.7274   -3.3375 H   0  0  0  0  0  0  0  0  0  0  0  0
   -0.3438    1.3670   -4.0562 H   0  0  0  0  0  0  0  0  0  0  0  0
   -0.6658    2.9887   -3.4213 H   0  0  0  0  0  0  0  0  0  0  0  0
   -0.4882    2.0000    3.0171 N   0  0  0  0  0  0  0  0  0  0  0  0
   -0.8325    2.5772    4.2965 C   0  0  2  0  0  0  0  0  0  0  0  0
   -0.3915    1.6067    5.3843 C   0  0  0  0  0  0  0  0  0  0  0  0
   -0.2206    0.4061    5.1831 O   0  0  0  0  0  0  0  0  0  0  0  0
   -2.3236    2.8602    4.3926 C   0  0  0  0  0  0  0  0  0  0  0  0
    0.2914    1.3502    2.9750 H   0  0  0  0  0  0  0  0  0  0  0  0
   -0.2645    3.5096    4.3860 H   0  0  0  0  0  0  0  0  0  0  0  0
   -2.9091    1.9377    4.3050 H   0  0  0  0  0  0  0  0  0  0  0  0
   -2.5785    3.3238    5.3513 H   0  0  0  0  0  0  0  0  0  0  0  0
   -2.6446    3.5349    3.5916 H   0  0  0  0  0  0  0  0  0  0  0  0
   -0.2530    2.2312    6.6160 N   0  0  0  0  0  0  0  0  0  0  0  0
    0.1439    1.5215    7.8096 C   0  0  0  0  0  0  0  0  0  0  0  0
   -0.3966    3.2342    6.6866 H   0  0  0  0  0  0  0  0  0  0  0  0
   -0.7521    1.1816    8.3498 H   0  0  0  0  0  0  0  0  0  0  0  0
    0.7567    0.6512    7.5320 H   0  0  0  0  0  0  0  0  0  0  0  0
    0.7298    2.1911    8.4564 H   0  0  0  0  0  0  0  0  0  0  0  0
  1  3  1  0  0  0  0
  1  7  1  0  0  0  0
  1  2  2  0  0  0  0
 37 38  1  0  0  0  0
 38 46  1  0  0  0  0
 38 39  2  0  0  0  0
  8  9  1  0  0  0  0
  9 17  1  0  0  0  0
  9 10  2  0  0  0  0
 18 19  1  0  0  0  0
 19 36  1  0  0  0  0
 19 20  2  0  0  0  0
 22 24  1  0  0  0  0
 37 40  1  0  0  0  0
  8 11  1  0  0  0  0
 21 23  1  0  0  0  0
 46 47  1  0  0  0  0
 21 22  1  0  0  0  0
 36 37  1  0  0  0  0
  7  8  1  0  0  0  0
 18 21  1  0  0  0  0
 17 18  1  0  0  0  0
  3  4  1  0  0  0  0
  3  5  1  0  0  0  0
  3  6  1  0  0  0  0
 24 33  1  0  0  0  0
 24 34  1  0  0  0  0
 24 35  1  0  0  0  0
 40 43  1  0  0  0  0
 40 44  1  0  0  0  0
 40 45  1  0  0  0  0
 11 14  1  0  0  0  0
 11 15  1  0  0  0  0
 11 16  1  0  0  0  0
 23 30  1  0  0  0  0
 23 31  1  0  0  0  0
 23 32  1  0  0  0  0
 47 49  1  0  0  0  0
 47 50  1  0  0  0  0
 47 51  1  0  0  0  0
 22 28  1  0  0  0  0
 22 29  1  0  0  0  0
 37 42  1  0  0  0  0
  8 13  1  0  0  0  0
 18 26  1  0  0  0  0
 21 27  1  0  0  0  0
 46 48  1  0  0  0  0
  7 12  1  0  0  0  0
 36 41  1  0  0  0  0
 17 25  1  0  0  0  0
M  END
$$$$

  -OEChem-05262214473D

 51 50  0     1  0  0  0  0  0999 V2000
    1.3524   -3.0009    1.4091 C   0  0  0  0  0  0  0  0  0  0  0  0
    1.8758   -1.9880    0.9598 O   0  0  0  0  0  0  0  0  0  0  0  0
    2.2030   -4.1782    1.7536 C   0  0  0  0  0  0  0  0  0  0  0  0
    2.3264   -4.8705    0.9053 H   0  0  0  0  0  0  0  0  0  0  0  0
    3.2257   -3.8876    2.0432 H   0  0  0  0  0  0  0  0  0  0  0  0
    1.8327   -4.8004    2.5839 H   0  0  0  0  0  0  0  0  0  0  0  0
    0.0005   -3.1873    1.6465 N   0  0  0  0  0  0  0  0  0  0  0  0
   -0.9949   -2.1807    1.3864 C   0  0  2  0  0  0  0  0  0  0  0  0
   -0.3083   -0.8216    1.4164 C   0  0  0  0  0  0  0  0  0  0  0  0
    0.7533   -0.6191    2.0022 O   0  0  0  0  0  0  0  0  0  0  0  0
   -2.1232   -2.2423    2.4042 C   0  0  0  0  0  0  0  0  0  0  0  0
   -0.3048   -4.0823    2.0245 H   0  0  0  0  0  0  0  0  0  0  0  0
   -1.3830   -2.3724    0.3801 H   0  0  0  0  0  0  0  0  0  0  0  0
   -1.7534   -2.0527    3.4185 H   0  0  0  0  0  0  0  0  0  0  0  0
   -2.8936   -1.4947    2.1882 H   0  0  0  0  0  0  0  0  0  0  0  0
   -2.5964   -3.2301    2.4022 H   0  0  0  0  0  0  0  0  0  0  0  0
   -1.0412    0.1517    0.7482 N   0  0  0  0  0  0  0  0  0  0  0  0
   -0.6079    1.5223    0.6467 C   0  0  2  0  0  0  0  0  0  0  0  0
   -1.1694    2.2891    1.8434 C   0  0  0  0  0  0  0  0  0  0  0  0
   -2.2737    2.8294    1.8317 O   0  0  0  0  0  0  0  0  0  0  0  0
   -0.9833    2.1765   -0.7049 C   0  0  2  0  0  0  0  0  0  0  0  0
   -0.2955    1.4821   -1.9013 C   0  0  0  0  0  0  0  0  0  0  0  0
   -0.6743    3.6790   -0.6684 C   0  0  0  0  0  0  0  0  0  0  0  0
   -0.8416    1.9215   -3.2539 C   0  0  0  0  0  0  0  0  0  0  0  0
   -1.9022   -0.1128    0.2753 H   0  0  0  0  0  0  0  0  0  0  0  0
    0.4839    1.5006    0.7560 H   0  0  0  0  0  0  0  0  0  0  0  0
   -2.0685    2.0755   -0.8398 H   0  0  0  0  0  0  0  0  0  0  0  0
    0.7775    1.7051   -1.8882 H   0  0  0  0  0  0  0  0  0  0  0  0
   -0.3942    0.3932   -1.8197 H   0  0  0  0  0  0  0  0  0  0  0  0
    0.3990    3.8527   -0.5351 H   0  0  0  0  0  0  0  0  0  0  0  0
   -0.9633    4.1658   -1.6050 H   0  0  0  0  0  0  0  0  0  0  0  0
   -1.2037    4.1783    0.1497 H   0  0  0  0  0  0  0  0  0  0  0  0
   -1.9147    1.7274   -3.3375 H   0  0  0  0  0  0  0  0  0  0  0  0
   -0.3438    1.3670   -4.0562 H   0  0  0  0  0  0  0  0  0  0  0  0
   -0.6658    2.9887   -3.4213 H   0  0  0  0  0  0  0  0  0  0  0  0
   -0.3069    2.2685    2.9301 N   0  0  0  0  0  0  0  0  0  0  0  0
   -0.6080    2.9022    4.1936 C   0  0  2  0  0  0  0  0  0  0  0  0
    0.1533    2.1611    5.2847 C   0  0  0  0  0  0  0  0  0  0  0  0
    0.5459    1.0028    5.1604 O   0  0  0  0  0  0  0  0  0  0  0  0
   -2.1028    2.8956    4.4735 C   0  0  0  0  0  0  0  0  0  0  0  0
    0.5804    1.7838    2.8328 H   0  0  0  0  0  0  0  0  0  0  0  0
   -0.2409    3.9321    4.1263 H   0  0  0  0  0  0  0  0  0  0  0  0
   -2.4888    1.8721    4.5443 H   0  0  0  0  0  0  0  0  0  0  0  0
   -2.3320    3.4012    5.4173 H   0  0  0  0  0  0  0  0  0  0  0  0
   -2.6515    3.4031    3.6728 H   0  0  0  0  0  0  0  0  0  0  0  0
    0.3052    2.9304    6.4298 N   0  0  0  0  0  0  0  0  0  0  0  0
    0.9819    2.4463    7.6103 C   0  0  0  0  0  0  0  0  0  0  0  0
   -0.0354    3.8873    6.4376 H   0  0  0  0  0  0  0  0  0  0  0  0
    0.2482    1.9977    8.2962 H   0  0  0  0  0  0  0  0  0  0  0  0
    1.7252    1.6884    7.3218 H   0  0  0  0  0  0  0  0  0  0  0  0
    1.4883    3.2841    8.1120 H   0  0  0  0  0  0  0  0  0  0  0  0
  1  3  1  0  0  0  0
  1  7  1  0  0  0  0
  1  2  2  0  0  0  0
 37 38  1  0  0  0  0
 38 46  1  0  0  0  0
 38 39  2  0  0  0  0
  8  9  1  0  0  0  0
  9 17  1  0  0  0  0
  9 10  2  0  0  0  0
 18 19  1  0  0  0  0
 19 36  1  0  0  0  0
 19 20  2  0  0  0  0
 22 24  1  0  0  0  0
 37 40  1  0  0  0  0
  8 11  1  0  0  0  0
 21 23  1  0  0  0  0
 46 47  1  0  0  0  0
 21 22  1  0  0  0  0
 36 37  1  0  0  0  0
  7  8  1  0  0  0  0
 18 21  1  0  0  0  0
 17 18  1  0  0  0  0
  3  4  1  0  0  0  0
  3  5  1  0  0  0  0
  3  6  1  0  0  0  0
 24 33  1  0  0  0  0
 24 34  1  0  0  0  0
 24 35  1  0  0  0  0
 40 43  1  0  0  0  0
 40 44  1  0  0  0  0
 40 45  1  0  0  0  0
 11 14  1  0  0  0  0
 11 15  1  0  0  0  0
 11 16  1  0  0  0  0
 23 30  1  0  0  0  0
 23 31  1  0  0  0  0
 23 32  1  0  0  0  0
 47 49  1  0  0  0  0
 47 50  1  0  0  0  0
 47 51  1  0  0  0  0
 22 28  1  0  0  0  0
 22 29  1  0  0  0  0
 37 42  1  0  0  0  0
  8 13  1  0  0  0  0
 18 26  1  0  0  0  0
 21 27  1  0  0  0  0
 46 48  1  0  0  0  0
  7 12  1  0  0  0  0
 36 41  1  0  0  0  0
 17 25  1  0  0  0  0
M  END
$$$$

  -OEChem-05262214473D

 51 50  0     1  0  0  0  0  0999 V2000
    1.3524   -3.0009    1.4091 C   0  0  0  0  0  0  0  0  0  0  0  0
    1.8758   -1.9880    0.9598 O   0  0  0  0  0  0  0  0  0  0  0  0
    2.2030   -4.1782    1.7536 C   0  0  0  0  0  0  0  0  0  0  0  0
    2.3264   -4.8705    0.9053 H   0  0  0  0  0  0  0  0  0  0  0  0
    3.2257   -3.8876    2.0432 H   0  0  0  0  0  0  0  0  0  0  0  0
    1.8327   -4.8004    2.5839 H   0  0  0  0  0  0  0  0  0  0  0  0
    0.0005   -3.1873    1.6465 N   0  0  0  0  0  0  0  0  0  0  0  0
   -0.9949   -2.1807    1.3864 C   0  0  2  0  0  0  0  0  0  0  0  0
   -0.3083   -0.8216    1.4164 C   0  0  0  0  0  0  0  0  0  0  0  0
    0.7533   -0.6191    2.0022 O   0  0  0  0  0  0  0  0  0  0  0  0
   -2.1232   -2.2423    2.4042 C   0  0  0  0  0  0  0  0  0  0  0  0
   -0.3048   -4.0823    2.0245 H   0  0  0  0  0  0  0  0  0  0  0  0
   -1.3830   -2.3724    0.3801 H   0  0  0  0  0  0  0  0  0  0  0  0
   -1.7534   -2.0527    3.4185 H   0  0  0  0  0  0  0  0  0  0  0  0
   -2.8936   -1.4947    2.1882 H   0  0  0  0  0  0  0  0  0  0  0  0
   -2.5964   -3.2301    2.4022 H   0  0  0  0  0  0  0  0  0  0  0  0
   -1.0412    0.1517    0.7482 N   0  0  0  0  0  0  0  0  0  0  0  0
   -0.6079    1.5223    0.6467 C   0  0  2  0  0  0  0  0  0  0  0  0
   -1.1694    2.2891    1.8434 C   0  0  0  0  0  0  0  0  0  0  0  0
   -2.3554    2.5974    1.9420 O   0  0  0  0  0  0  0  0  0  0  0  0
   -0.9833    2.1765   -0.7049 C   0  0  2  0  0  0  0  0  0  0  0  0
   -0.2955    1.4821   -1.9013 C   0  0  0  0  0  0  0  0  0  0  0  0
   -0.6743    3.6790   -0.6684 C   0  0  0  0  0  0  0  0  0  0  0  0
   -0.8416    1.9215   -3.2539 C   0  0  0  0  0  0  0  0  0  0  0  0
   -1.9022   -0.1128    0.2753 H   0  0  0  0  0  0  0  0  0  0  0  0
    0.4839    1.5006    0.7560 H   0  0  0  0  0  0  0  0  0  0  0  0
   -2.0685    2.0755   -0.8398 H   0  0  0  0  0  0  0  0  0  0  0  0
    0.7775    1.7051   -1.8882 H   0  0  0  0  0  0  0  0  0  0  0  0
   -0.3942    0.3932   -1.8197 H   0  0  0  0  0  0  0  0  0  0  0  0
    0.3990    3.8527   -0.5351 H   0  0  0  0  0  0  0  0  0  0  0  0
   -0.9633    4.1658   -1.6050 H   0  0  0  0  0  0  0  0  0  0  0  0
   -1.2037    4.1783    0.1497 H   0  0  0  0  0  0  0  0  0  0  0  0
   -1.9147    1.7274   -3.3375 H   0  0  0  0  0  0  0  0  0  0  0  0
   -0.3438    1.3670   -4.0562 H   0  0  0  0  0  0  0  0  0  0  0  0
   -0.6658    2.9887   -3.4213 H   0  0  0  0  0  0  0  0  0  0  0  0
   -0.1975    2.5563    2.7970 N   0  0  0  0  0  0  0  0  0  0  0  0
   -0.4705    3.2518    4.0341 C   0  0  2  0  0  0  0  0  0  0  0  0
    0.5543    2.7975    5.0651 C   0  0  0  0  0  0  0  0  0  0  0  0
    1.1624    1.7324    4.9822 O   0  0  0  0  0  0  0  0  0  0  0  0
   -1.8862    2.9822    4.5197 C   0  0  0  0  0  0  0  0  0  0  0  0
    0.7532    2.2477    2.6166 H   0  0  0  0  0  0  0  0  0  0  0  0
   -0.3374    4.3202    3.8323 H   0  0  0  0  0  0  0  0  0  0  0  0
   -2.0385    1.9167    4.7271 H   0  0  0  0  0  0  0  0  0  0  0  0
   -2.1010    3.5323    5.4417 H   0  0  0  0  0  0  0  0  0  0  0  0
   -2.6209    3.2821    3.7646 H   0  0  0  0  0  0  0  0  0  0  0  0
    0.6784    3.7012    6.1110 N   0  0  0  0  0  0  0  0  0  0  0  0
    1.5781    3.4904    7.2209 C   0  0  0  0  0  0  0  0  0  0  0  0
    0.1489    4.5678    6.0881 H   0  0  0  0  0  0  0  0  0  0  0  0
    1.0421    2.9836    8.0369 H   0  0  0  0  0  0  0  0  0  0  0  0
    2.4232    2.8665    6.8944 H   0  0  0  0  0  0  0  0  0  0  0  0
    1.9548    4.4607    7.5768 H   0  0  0  0  0  0  0  0  0  0  0  0
  1  3  1  0  0  0  0
  1  7  1  0  0  0  0
  1  2  2  0  0  0  0
 37 38  1  0  0  0  0
 38 46  1  0  0  0  0
 38 39  2  0  0  0  0
  8  9  1  0  0  0  0
  9 17  1  0  0  0  0
  9 10  2  0  0  0  0
 18 19  1  0  0  0  0
 19 36  1  0  0  0  0
 19 20  2  0  0  0  0
 22 24  1  0  0  0  0
 37 40  1  0  0  0  0
  8 11  1  0  0  0  0
 21 23  1  0  0  0  0
 46 47  1  0  0  0  0
 21 22  1  0  0  0  0
 36 37  1  0  0  0  0
  7  8  1  0  0  0  0
 18 21  1  0  0  0  0
 17 18  1  0  0  0  0
  3  4  1  0  0  0  0
  3  5  1  0  0  0  0
  3  6  1  0  0  0  0
 24 33  1  0  0  0  0
 24 34  1  0  0  0  0
 24 35  1  0  0  0  0
 40 43  1  0  0  0  0
 40 44  1  0  0  0  0
 40 45  1  0  0  0  0
 11 14  1  0  0  0  0
 11 15  1  0  0  0  0
 11 16  1  0  0  0  0
 23 30  1  0  0  0  0
 23 31  1  0  0  0  0
 23 32  1  0  0  0  0
 47 49  1  0  0  0  0
 47 50  1  0  0  0  0
 47 51  1  0  0  0  0
 22 28  1  0  0  0  0
 22 29  1  0  0  0  0
 37 42  1  0  0  0  0
  8 13  1  0  0  0  0
 18 26  1  0  0  0  0
 21 27  1  0  0  0  0
 46 48  1  0  0  0  0
  7 12  1  0  0  0  0
 36 41  1  0  0  0  0
 17 25  1  0  0  0  0
M  END
$$$$

  -OEChem-05262214473D

 51 50  0     1  0  0  0  0  0999 V2000
    1.3524   -3.0009    1.4091 C   0  0  0  0  0  0  0  0  0  0  0  0
    1.8758   -1.9880    0.9598 O   0  0  0  0  0  0  0  0  0  0  0  0
    2.2030   -4.1782    1.7536 C   0  0  0  0  0  0  0  0  0  0  0  0
    2.3264   -4.8705    0.9053 H   0  0  0  0  0  0  0  0  0  0  0  0
    3.2257   -3.8876    2.0432 H   0  0  0  0  0  0  0  0  0  0  0  0
    1.8327   -4.8004    2.5839 H   0  0  0  0  0  0  0  0  0  0  0  0
    0.0005   -3.1873    1.6465 N   0  0  0  0  0  0  0  0  0  0  0  0
   -0.9949   -2.1807    1.3864 C   0  0  2  0  0  0  0  0  0  0  0  0
   -0.3083   -0.8216    1.4164 C   0  0  0  0  0  0  0  0  0  0  0  0
    0.7533   -0.6191    2.0022 O   0  0  0  0  0  0  0  0  0  0  0  0
   -2.1232   -2.2423    2.4042 C   0  0  0  0  0  0  0  0  0  0  0  0
   -0.3048   -4.0823    2.0245 H   0  0  0  0  0  0  0  0  0  0  0  0
   -1.3830   -2.3724    0.3801 H   0  0  0  0  0  0  0  0  0  0  0  0
   -1.7534   -2.0527    3.4185 H   0  0  0  0  0  0  0  0  0  0  0  0
   -2.8936   -1.4947    2.1882 H   0  0  0  0  0  0  0  0  0  0  0  0
   -2.5964   -3.2301    2.4022 H   0  0  0  0  0  0  0  0  0  0  0  0
   -1.0412    0.1517    0.7482 N   0  0  0  0  0  0  0  0  0  0  0  0
   -0.6079    1.5223    0.6467 C   0  0  2  0  0  0  0  0  0  0  0  0
   -1.1694    2.2891    1.8434 C   0  0  0  0  0  0  0  0  0  0  0  0
   -2.3731    2.3674    2.0812 O   0  0  0  0  0  0  0  0  0  0  0  0
   -0.9833    2.1765   -0.7049 C   0  0  2  0  0  0  0  0  0  0  0  0
   -0.2955    1.4821   -1.9013 C   0  0  0  0  0  0  0  0  0  0  0  0
   -0.6743    3.6790   -0.6684 C   0  0  0  0  0  0  0  0  0  0  0  0
   -0.8416    1.9215   -3.2539 C   0  0  0  0  0  0  0  0  0  0  0  0
   -1.9022   -0.1128    0.2753 H   0  0  0  0  0  0  0  0  0  0  0  0
    0.4839    1.5006    0.7560 H   0  0  0  0  0  0  0  0  0  0  0  0
   -2.0685    2.0755   -0.8398 H   0  0  0  0  0  0  0  0  0  0  0  0
    0.7775    1.7051   -1.8882 H   0  0  0  0  0  0  0  0  0  0  0  0
   -0.3942    0.3932   -1.8197 H   0  0  0  0  0  0  0  0  0  0  0  0
    0.3990    3.8527   -0.5351 H   0  0  0  0  0  0  0  0  0  0  0  0
   -0.9633    4.1658   -1.6050 H   0  0  0  0  0  0  0  0  0  0  0  0
   -1.2037    4.1783    0.1497 H   0  0  0  0  0  0  0  0  0  0  0  0
   -1.9147    1.7274   -3.3375 H   0  0  0  0  0  0  0  0  0  0  0  0
   -0.3438    1.3670   -4.0562 H   0  0  0  0  0  0  0  0  0  0  0  0
   -0.6658    2.9887   -3.4213 H   0  0  0  0  0  0  0  0  0  0  0  0
   -0.1675    2.8438    2.6269 N   0  0  0  0  0  0  0  0  0  0  0  0
   -0.4292    3.6021    3.8290 C   0  0  2  0  0  0  0  0  0  0  0  0
    0.7841    3.4725    4.7403 C   0  0  0  0  0  0  0  0  0  0  0  0
    1.5869    2.5450    4.6606 O   0  0  0  0  0  0  0  0  0  0  0  0
   -1.6886    3.1141    4.5279 C   0  0  0  0  0  0  0  0  0  0  0  0
    0.7980    2.7102    2.3413 H   0  0  0  0  0  0  0  0  0  0  0  0
   -0.5476    4.6476    3.5239 H   0  0  0  0  0  0  0  0  0  0  0  0
   -1.5888    2.0683    4.8409 H   0  0  0  0  0  0  0  0  0  0  0  0
   -1.9012    3.7081    5.4228 H   0  0  0  0  0  0  0  0  0  0  0  0
   -2.5550    3.1801    3.8609 H   0  0  0  0  0  0  0  0  0  0  0  0
    0.8413    4.4911    5.6812 N   0  0  0  0  0  0  0  0  0  0  0  0
    1.8918    4.5828    6.6681 C   0  0  0  0  0  0  0  0  0  0  0  0
    0.1435    5.2291    5.6618 H   0  0  0  0  0  0  0  0  0  0  0  0
    1.5755    4.0722    7.5897 H   0  0  0  0  0  0  0  0  0  0  0  0
    2.8031    4.1053    6.2788 H   0  0  0  0  0  0  0  0  0  0  0  0
    2.0973    5.6410    6.8875 H   0  0  0  0  0  0  0  0  0  0  0  0
  1  3  1  0  0  0  0
  1  7  1  0  0  0  0
  1  2  2  0  0  0  0
 37 38  1  0  0  0  0
 38 46  1  0  0  0  0
 38 39  2  0  0  0  0
  8  9  1  0  0  0  0
  9 17  1  0  0  0  0
  9 10  2  0  0  0  0
 18 19  1  0  0  0  0
 19 36  1  0  0  0  0
 19 20  2  0  0  0  0
 22 24  1  0  0  0  0
 37 40  1  0  0  0  0
  8 11  1  0  0  0  0
 21 23  1  0  0  0  0
 46 47  1  0  0  0  0
 21 22  1  0  0  0  0
 36 37  1  0  0  0  0
  7  8  1  0  0  0  0
 18 21  1  0  0  0  0
 17 18  1  0  0  0  0
  3  4  1  0  0  0  0
  3  5  1  0  0  0  0
  3  6  1  0  0  0  0
 24 33  1  0  0  0  0
 24 34  1  0  0  0  0
 24 35  1  0  0  0  0
 40 43  1  0  0  0  0
 40 44  1  0  0  0  0
 40 45  1  0  0  0  0
 11 14  1  0  0  0  0
 11 15  1  0  0  0  0
 11 16  1  0  0  0  0
 23 30  1  0  0  0  0
 23 31  1  0  0  0  0
 23 32  1  0  0  0  0
 47 49  1  0  0  0  0
 47 50  1  0  0  0  0
 47 51  1  0  0  0  0
 22 28  1  0  0  0  0
 22 29  1  0  0  0  0
 37 42  1  0  0  0  0
  8 13  1  0  0  0  0
 18 26  1  0  0  0  0
 21 27  1  0  0  0  0
 46 48  1  0  0  0  0
  7 12  1  0  0  0  0
 36 41  1  0  0  0  0
 17 25  1  0  0  0  0
M  END
$$$$

  -OEChem-05262214473D

 51 50  0     1  0  0  0  0  0999 V2000
    1.3524   -3.0009    1.4091 C   0  0  0  0  0  0  0  0  0  0  0  0
    1.8758   -1.9880    0.9598 O   0  0  0  0  0  0  0  0  0  0  0  0
    2.2030   -4.1782    1.7536 C   0  0  0  0  0  0  0  0  0  0  0  0
    2.3264   -4.8705    0.9053 H   0  0  0  0  0  0  0  0  0  0  0  0
    3.2257   -3.8876    2.0432 H   0  0  0  0  0  0  0  0  0  0  0  0
    1.8327   -4.8004    2.5839 H   0  0  0  0  0  0  0  0  0  0  0  0
    0.0005   -3.1873    1.6465 N   0  0  0  0  0  0  0  0  0  0  0  0
   -0.9949   -2.1807    1.3864 C   0  0  2  0  0  0  0  0  0  0  0  0
   -0.3083   -0.8216    1.4164 C   0  0  0  0  0  0  0  0  0  0  0  0
    0.7533   -0.6191    2.0022 O   0  0  0  0  0  0  0  0  0  0  0  0
   -2.1232   -2.2423    2.4042 C   0  0  0  0  0  0  0  0  0  0  0  0
   -0.3048   -4.0823    2.0245 H   0  0  0  0  0  0  0  0  0  0  0  0
   -1.3830   -2.3724    0.3801 H   0  0  0  0  0  0  0  0  0  0  0  0
   -1.7534   -2.0527    3.4185 H   0  0  0  0  0  0  0  0  0  0  0  0
   -2.8936   -1.4947    2.1882 H   0  0  0  0  0  0  0  0  0  0  0  0
   -2.5964   -3.2301    2.4022 H   0  0  0  0  0  0  0  0  0  0  0  0
   -1.0412    0.1517    0.7482 N   0  0  0  0  0  0  0  0  0  0  0  0
   -0.6079    1.5223    0.6467 C   0  0  2  0  0  0  0  0  0  0  0  0
   -1.1694    2.2891    1.8434 C   0  0  0  0  0  0  0  0  0  0  0  0
   -2.3254    2.1548    2.2398 O   0  0  0  0  0  0  0  0  0  0  0  0
   -0.9833    2.1765   -0.7049 C   0  0  2  0  0  0  0  0  0  0  0  0
   -0.2955    1.4821   -1.9013 C   0  0  0  0  0  0  0  0  0  0  0  0
   -0.6743    3.6790   -0.6684 C   0  0  0  0  0  0  0  0  0  0  0  0
   -0.8416    1.9215   -3.2539 C   0  0  0  0  0  0  0  0  0  0  0  0
   -1.9022   -0.1128    0.2753 H   0  0  0  0  0  0  0  0  0  0  0  0
    0.4839    1.5006    0.7560 H   0  0  0  0  0  0  0  0  0  0  0  0
   -2.0685    2.0755   -0.8398 H   0  0  0  0  0  0  0  0  0  0  0  0
    0.7775    1.7051   -1.8882 H   0  0  0  0  0  0  0  0  0  0  0  0
   -0.3942    0.3932   -1.8197 H   0  0  0  0  0  0  0  0  0  0  0  0
    0.3990    3.8527   -0.5351 H   0  0  0  0  0  0  0  0  0  0  0  0
   -0.9633    4.1658   -1.6050 H   0  0  0  0  0  0  0  0  0  0  0  0
   -1.2037    4.1783    0.1497 H   0  0  0  0  0  0  0  0  0  0  0  0
   -1.9147    1.7274   -3.3375 H   0  0  0  0  0  0  0  0  0  0  0  0
   -0.3438    1.3670   -4.0562 H   0  0  0  0  0  0  0  0  0  0  0  0
   -0.6658    2.9887   -3.4213 H   0  0  0  0  0  0  0  0  0  0  0  0
   -0.2188    3.1115    2.4313 N   0  0  0  0  0  0  0  0  0  0  0  0
   -0.4870    3.9295    3.5921 C   0  0  2  0  0  0  0  0  0  0  0  0
    0.8271    4.1403    4.3326 C   0  0  0  0  0  0  0  0  0  0  0  0
    1.7904    3.3855    4.2176 O   0  0  0  0  0  0  0  0  0  0  0  0
   -1.5233    3.2823    4.4976 C   0  0  0  0  0  0  0  0  0  0  0  0
    0.7118    3.1399    2.0255 H   0  0  0  0  0  0  0  0  0  0  0  0
   -0.8569    4.8919    3.2222 H   0  0  0  0  0  0  0  0  0  0  0  0
   -1.1704    2.3168    4.8780 H   0  0  0  0  0  0  0  0  0  0  0  0
   -1.7464    3.9165    5.3619 H   0  0  0  0  0  0  0  0  0  0  0  0
   -2.4581    3.1042    3.9550 H   0  0  0  0  0  0  0  0  0  0  0  0
    0.7827    5.2462    5.1699 N   0  0  0  0  0  0  0  0  0  0  0  0
    1.9016    5.6490    5.9895 C   0  0  0  0  0  0  0  0  0  0  0  0
   -0.0510    5.8262    5.1878 H   0  0  0  0  0  0  0  0  0  0  0  0
    1.8119    5.1892    6.9848 H   0  0  0  0  0  0  0  0  0  0  0  0
    2.8391    5.3204    5.5171 H   0  0  0  0  0  0  0  0  0  0  0  0
    1.9063    6.7443    6.0908 H   0  0  0  0  0  0  0  0  0  0  0  0
  1  3  1  0  0  0  0
  1  7  1  0  0  0  0
  1  2  2  0  0  0  0
 37 38  1  0  0  0  0
 38 46  1  0  0  0  0
 38 39  2  0  0  0  0
  8  9  1  0  0  0  0
  9 17  1  0  0  0  0
  9 10  2  0  0  0  0
 18 19  1  0  0  0  0
 19 36  1  0  0  0  0
 19 20  2  0  0  0  0
 22 24  1  0  0  0  0
 37 40  1  0  0  0  0
  8 11  1  0  0  0  0
 21 23  1  0  0  0  0
 46 47  1  0  0  0  0
 21 22  1  0  0  0  0
 36 37  1  0  0  0  0
  7  8  1  0  0  0  0
 18 21  1  0  0  0  0
 17 18  1  0  0  0  0
  3  4  1  0  0  0  0
  3  5  1  0  0  0  0
  3  6  1  0  0  0  0
 24 33  1  0  0  0  0
 24 34  1  0  0  0  0
 24 35  1  0  0  0  0
 40 43  1  0  0  0  0
 40 44  1  0  0  0  0
 40 45  1  0  0  0  0
 11 14  1  0  0  0  0
 11 15  1  0  0  0  0
 11 16  1  0  0  0  0
 23 30  1  0  0  0  0
 23 31  1  0  0  0  0
 23 32  1  0  0  0  0
 47 49  1  0  0  0  0
 47 50  1  0  0  0  0
 47 51  1  0  0  0  0
 22 28  1  0  0  0  0
 22 29  1  0  0  0  0
 37 42  1  0  0  0  0
  8 13  1  0  0  0  0
 18 26  1  0  0  0  0
 21 27  1  0  0  0  0
 46 48  1  0  0  0  0
  7 12  1  0  0  0  0
 36 41  1  0  0  0  0
 17 25  1  0  0  0  0
M  END
$$$$

  -OEChem-05262214473D

 51 50  0     1  0  0  0  0  0999 V2000
    1.3524   -3.0009    1.4091 C   0  0  0  0  0  0  0  0  0  0  0  0
    1.8758   -1.9880    0.9598 O   0  0  0  0  0  0  0  0  0  0  0  0
    2.2030   -4.1782    1.7536 C   0  0  0  0  0  0  0  0  0  0  0  0
    2.3264   -4.8705    0.9053 H   0  0  0  0  0  0  0  0  0  0  0  0
    3.2257   -3.8876    2.0432 H   0  0  0  0  0  0  0  0  0  0  0  0
    1.8327   -4.8004    2.5839 H   0  0  0  0  0  0  0  0  0  0  0  0
    0.0005   -3.1873    1.6465 N   0  0  0  0  0  0  0  0  0  0  0  0
   -0.9949   -2.1807    1.3864 C   0  0  2  0  0  0  0  0  0  0  0  0
   -0.3083   -0.8216    1.4164 C   0  0  0  0  0  0  0  0  0  0  0  0
    0.7533   -0.6191    2.0022 O   0  0  0  0  0  0  0  0  0  0  0  0
   -2.1232   -2.2423    2.4042 C   0  0  0  0  0  0  0  0  0  0  0  0
   -0.3048   -4.0823    2.0245 H   0  0  0  0  0  0  0  0  0  0  0  0
   -1.3830   -2.3724    0.3801 H   0  0  0  0  0  0  0  0  0  0  0  0
   -1.7534   -2.0527    3.4185 H   0  0  0  0  0  0  0  0  0  0  0  0
   -2.8936   -1.4947    2.1882 H   0  0  0  0  0  0  0  0  0  0  0  0
   -2.5964   -3.2301    2.4022 H   0  0  0  0  0  0  0  0  0  0  0  0
   -1.0412    0.1517    0.7482 N   0  0  0  0  0  0  0  0  0  0  0  0
   -0.6079    1.5223    0.6467 C   0  0  2  0  0  0  0  0  0  0  0  0
   -1.1694    2.2891    1.8434 C   0  0  0  0  0  0  0  0  0  0  0  0
   -2.2157    1.9742    2.4070 O   0  0  0  0  0  0  0  0  0  0  0  0
   -0.9833    2.1765   -0.7049 C   0  0  2  0  0  0  0  0  0  0  0  0
   -0.2955    1.4821   -1.9013 C   0  0  0  0  0  0  0  0  0  0  0  0
   -0.6743    3.6790   -0.6684 C   0  0  0  0  0  0  0  0  0  0  0  0
   -0.8416    1.9215   -3.2539 C   0  0  0  0  0  0  0  0  0  0  0  0
   -1.9022   -0.1128    0.2753 H   0  0  0  0  0  0  0  0  0  0  0  0
    0.4839    1.5006    0.7560 H   0  0  0  0  0  0  0  0  0  0  0  0
   -2.0685    2.0755   -0.8398 H   0  0  0  0  0  0  0  0  0  0  0  0
    0.7775    1.7051   -1.8882 H   0  0  0  0  0  0  0  0  0  0  0  0
   -0.3942    0.3932   -1.8197 H   0  0  0  0  0  0  0  0  0  0  0  0
    0.3990    3.8527   -0.5351 H   0  0  0  0  0  0  0  0  0  0  0  0
   -0.9633    4.1658   -1.6050 H   0  0  0  0  0  0  0  0  0  0  0  0
   -1.2037    4.1783    0.1497 H   0  0  0  0  0  0  0  0  0  0  0  0
   -1.9147    1.7274   -3.3375 H   0  0  0  0  0  0  0  0  0  0  0  0
   -0.3438    1.3670   -4.0562 H   0  0  0  0  0  0  0  0  0  0  0  0
   -0.6658    2.9887   -3.4213 H   0  0  0  0  0  0  0  0  0  0  0  0
   -0.3481    3.3410    2.2235 N   0  0  0  0  0  0  0  0  0  0  0  0
   -0.6399    4.2114    3.3397 C   0  0  2  0  0  0  0  0  0  0  0  0
    0.6803    4.7553    3.8696 C   0  0  0  0  0  0  0  0  0  0  0  0
    1.7592    4.1964    3.6833 O   0  0  0  0  0  0  0  0  0  0  0  0
   -1.4018    3.4755    4.4309 C   0  0  0  0  0  0  0  0  0  0  0  0
    0.5005    3.5075    1.6908 H   0  0  0  0  0  0  0  0  0  0  0  0
   -1.2444    5.0365    2.9477 H   0  0  0  0  0  0  0  0  0  0  0  0
   -0.8118    2.6451    4.8359 H   0  0  0  0  0  0  0  0  0  0  0  0
   -1.6470    4.1435    5.2632 H   0  0  0  0  0  0  0  0  0  0  0  0
   -2.3369    3.0595    4.0406 H   0  0  0  0  0  0  0  0  0  0  0  0
    0.5066    5.9151    4.6117 N   0  0  0  0  0  0  0  0  0  0  0  0
    1.6068    6.6163    5.2314 C   0  0  0  0  0  0  0  0  0  0  0  0
   -0.4215    6.3185    4.6985 H   0  0  0  0  0  0  0  0  0  0  0  0
    1.7354    6.2586    6.2637 H   0  0  0  0  0  0  0  0  0  0  0  0
    2.5286    6.4289    4.6611 H   0  0  0  0  0  0  0  0  0  0  0  0
    1.3947    7.6956    5.2412 H   0  0  0  0  0  0  0  0  0  0  0  0
  1  3  1  0  0  0  0
  1  7  1  0  0  0  0
  1  2  2  0  0  0  0
 37 38  1  0  0  0  0
 38 46  1  0  0  0  0
 38 39  2  0  0  0  0
  8  9  1  0  0  0  0
  9 17  1  0  0  0  0
  9 10  2  0  0  0  0
 18 19  1  0  0  0  0
 19 36  1  0  0  0  0
 19 20  2  0  0  0  0
 22 24  1  0  0  0  0
 37 40  1  0  0  0  0
  8 11  1  0  0  0  0
 21 23  1  0  0  0  0
 46 47  1  0  0  0  0
 21 22  1  0  0  0  0
 36 37  1  0  0  0  0
  7  8  1  0  0  0  0
 18 21  1  0  0  0  0
 17 18  1  0  0  0  0
  3  4  1  0  0  0  0
  3  5  1  0  0  0  0
  3  6  1  0  0  0  0
 24 33  1  0  0  0  0
 24 34  1  0  0  0  0
 24 35  1  0  0  0  0
 40 43  1  0  0  0  0
 40 44  1  0  0  0  0
 40 45  1  0  0  0  0
 11 14  1  0  0  0  0
 11 15  1  0  0  0  0
 11 16  1  0  0  0  0
 23 30  1  0  0  0  0
 23 31  1  0  0  0  0
 23 32  1  0  0  0  0
 47 49  1  0  0  0  0
 47 50  1  0  0  0  0
 47 51  1  0  0  0  0
 22 28  1  0  0  0  0
 22 29  1  0  0  0  0
 37 42  1  0  0  0  0
  8 13  1  0  0  0  0
 18 26  1  0  0  0  0
 21 27  1  0  0  0  0
 46 48  1  0  0  0  0
  7 12  1  0  0  0  0
 36 41  1  0  0  0  0
 17 25  1  0  0  0  0
M  END
$$$$

  -OEChem-05262214473D

 51 50  0     1  0  0  0  0  0999 V2000
    1.3524   -3.0009    1.4091 C   0  0  0  0  0  0  0  0  0  0  0  0
    1.8758   -1.9880    0.9598 O   0  0  0  0  0  0  0  0  0  0  0  0
    2.2030   -4.1782    1.7536 C   0  0  0  0  0  0  0  0  0  0  0  0
    2.3264   -4.8705    0.9053 H   0  0  0  0  0  0  0  0  0  0  0  0
    3.2257   -3.8876    2.0432 H   0  0  0  0  0  0  0  0  0  0  0  0
    1.8327   -4.8004    2.5839 H   0  0  0  0  0  0  0  0  0  0  0  0
    0.0005   -3.1873    1.6465 N   0  0  0  0  0  0  0  0  0  0  0  0
   -0.9949   -2.1807    1.3864 C   0  0  2  0  0  0  0  0  0  0  0  0
   -0.3083   -0.8216    1.4164 C   0  0  0  0  0  0  0  0  0  0  0  0
    0.7533   -0.6191    2.0022 O   0  0  0  0  0  0  0  0  0  0  0  0
   -2.1232   -2.2423    2.4042 C   0  0  0  0  0  0  0  0  0  0  0  0
   -0.3048   -4.0823    2.0245 H   0  0  0  0  0  0  0  0  0  0  0  0
   -1.3830   -2.3724    0.3801 H   0  0  0  0  0  0  0  0  0  0  0  0
   -1.7534   -2.0527    3.4185 H   0  0  0  0  0  0  0  0  0  0  0  0
   -2.8936   -1.4947    2.1882 H   0  0  0  0  0  0  0  0  0  0  0  0
   -2.5964   -3.2301    2.4022 H   0  0  0  0  0  0  0  0  0  0  0  0
   -1.0412    0.1517    0.7482 N   0  0  0  0  0  0  0  0  0  0  0  0
   -0.6079    1.5223    0.6467 C   0  0  2  0  0  0  0  0  0  0  0  0
   -1.1694    2.2891    1.8434 C   0  0  0  0  0  0  0  0  0  0  0  0
   -2.0513    1.8379    2.5714 O   0  0  0  0  0  0  0  0  0  0  0  0
   -0.9833    2.1765   -0.7049 C   0  0  2  0  0  0  0  0  0  0  0  0
   -0.2955    1.4821   -1.9013 C   0  0  0  0  0  0  0  0  0  0  0  0
   -0.6743    3.6790   -0.6684 C   0  0  0  0  0  0  0  0  0  0  0  0
   -0.8416    1.9215   -3.2539 C   0  0  0  0  0  0  0  0  0  0  0  0
   -1.9022   -0.1128    0.2753 H   0  0  0  0  0  0  0  0  0  0  0  0
    0.4839    1.5006    0.7560 H   0  0  0  0  0  0  0  0  0  0  0  0
   -2.0685    2.0755   -0.8398 H   0  0  0  0  0  0  0  0  0  0  0  0
    0.7775    1.7051   -1.8882 H   0  0  0  0  0  0  0  0  0  0  0  0
   -0.3942    0.3932   -1.8197 H   0  0  0  0  0  0  0  0  0  0  0  0
    0.3990    3.8527   -0.5351 H   0  0  0  0  0  0  0  0  0  0  0  0
   -0.9633    4.1658   -1.6050 H   0  0  0  0  0  0  0  0  0  0  0  0
   -1.2037    4.1783    0.1497 H   0  0  0  0  0  0  0  0  0  0  0  0
   -1.9147    1.7274   -3.3375 H   0  0  0  0  0  0  0  0  0  0  0  0
   -0.3438    1.3670   -4.0562 H   0  0  0  0  0  0  0  0  0  0  0  0
   -0.6658    2.9887   -3.4213 H   0  0  0  0  0  0  0  0  0  0  0  0
   -0.5465    3.5167    2.0179 N   0  0  0  0  0  0  0  0  0  0  0  0
   -0.8775    4.4287    3.0889 C   0  0  2  0  0  0  0  0  0  0  0  0
    0.3537    5.2755    3.3830 C   0  0  0  0  0  0  0  0  0  0  0  0
    1.4952    4.9225    3.0941 O   0  0  0  0  0  0  0  0  0  0  0  0
   -1.3321    3.6803    4.3323 C   0  0  0  0  0  0  0  0  0  0  0  0
    0.1784    3.7878    1.3600 H   0  0  0  0  0  0  0  0  0  0  0  0
   -1.6837    5.0716    2.7191 H   0  0  0  0  0  0  0  0  0  0  0  0
   -0.5375    3.0310    4.7174 H   0  0  0  0  0  0  0  0  0  0  0  0
   -1.6098    4.3734    5.1333 H   0  0  0  0  0  0  0  0  0  0  0  0
   -2.1996    3.0489    4.1117 H   0  0  0  0  0  0  0  0  0  0  0  0
    0.0320    6.4522    4.0448 N   0  0  0  0  0  0  0  0  0  0  0  0
    1.0276    7.4187    4.4454 C   0  0  0  0  0  0  0  0  0  0  0  0
   -0.9427    6.6725    4.2271 H   0  0  0  0  0  0  0  0  0  0  0  0
    1.3511    7.2075    5.4753 H   0  0  0  0  0  0  0  0  0  0  0  0
    1.8929    7.3553    3.7692 H   0  0  0  0  0  0  0  0  0  0  0  0
    0.5974    8.4299    4.3965 H   0  0  0  0  0  0  0  0  0  0  0  0
  1  3  1  0  0  0  0
  1  7  1  0  0  0  0
  1  2  2  0  0  0  0
 37 38  1  0  0  0  0
 38 46  1  0  0  0  0
 38 39  2  0  0  0  0
  8  9  1  0  0  0  0
  9 17  1  0  0  0  0
  9 10  2  0  0  0  0
 18 19  1  0  0  0  0
 19 36  1  0  0  0  0
 19 20  2  0  0  0  0
 22 24  1  0  0  0  0
 37 40  1  0  0  0  0
  8 11  1  0  0  0  0
 21 23  1  0  0  0  0
 46 47  1  0  0  0  0
 21 22  1  0  0  0  0
 36 37  1  0  0  0  0
  7  8  1  0  0  0  0
 18 21  1  0  0  0  0
 17 18  1  0  0  0  0
  3  4  1  0  0  0  0
  3  5  1  0  0  0  0
  3  6  1  0  0  0  0
 24 33  1  0  0  0  0
 24 34  1  0  0  0  0
 24 35  1  0  0  0  0
 40 43  1  0  0  0  0
 40 44  1  0  0  0  0
 40 45  1  0  0  0  0
 11 14  1  0  0  0  0
 11 15  1  0  0  0  0
 11 16  1  0  0  0  0
 23 30  1  0  0  0  0
 23 31  1  0  0  0  0
 23 32  1  0  0  0  0
 47 49  1  0  0  0  0
 47 50  1  0  0  0  0
 47 51  1  0  0  0  0
 22 28  1  0  0  0  0
 22 29  1  0  0  0  0
 37 42  1  0  0  0  0
  8 13  1  0  0  0  0
 18 26  1  0  0  0  0
 21 27  1  0  0  0  0
 46 48  1  0  0  0  0
  7 12  1  0  0  0  0
 36 41  1  0  0  0  0
 17 25  1  0  0  0  0
M  END
$$$$

  -OEChem-05262214473D

 51 50  0     1  0  0  0  0  0999 V2000
    1.3524   -3.0009    1.4091 C   0  0  0  0  0  0  0  0  0  0  0  0
    1.8758   -1.9880    0.9598 O   0  0  0  0  0  0  0  0  0  0  0  0
    2.2030   -4.1782    1.7536 C   0  0  0  0  0  0  0  0  0  0  0  0
    2.3264   -4.8705    0.9053 H   0  0  0  0  0  0  0  0  0  0  0  0
    3.2257   -3.8876    2.0432 H   0  0  0  0  0  0  0  0  0  0  0  0
    1.8327   -4.8004    2.5839 H   0  0  0  0  0  0  0  0  0  0  0  0
    0.0005   -3.1873    1.6465 N   0  0  0  0  0  0  0  0  0  0  0  0
   -0.9949   -2.1807    1.3864 C   0  0  2  0  0  0  0  0  0  0  0  0
   -0.3083   -0.8216    1.4164 C   0  0  0  0  0  0  0  0  0  0  0  0
    0.7533   -0.6191    2.0022 O   0  0  0  0  0  0  0  0  0  0  0  0
   -2.1232   -2.2423    2.4042 C   0  0  0  0  0  0  0  0  0  0  0  0
   -0.3048   -4.0823    2.0245 H   0  0  0  0  0  0  0  0  0  0  0  0
   -1.3830   -2.3724    0.3801 H   0  0  0  0  0  0  0  0  0  0  0  0
   -1.7534   -2.0527    3.4185 H   0  0  0  0  0  0  0  0  0  0  0  0
   -2.8936   -1.4947    2.1882 H   0  0  0  0  0  0  0  0  0  0  0  0
   -2.5964   -3.2301    2.4022 H   0  0  0  0  0  0  0  0  0  0  0  0
   -1.0412    0.1517    0.7482 N   0  0  0  0  0  0  0  0  0  0  0  0
   -0.6079    1.5223    0.6467 C   0  0  2  0  0  0  0  0  0  0  0  0
   -0.8369    2.1955    1.9993 C   0  0  0  0  0  0  0  0  0  0  0  0
   -1.2895    1.5987    2.9742 O   0  0  0  0  0  0  0  0  0  0  0  0
   -1.2851    2.2858   -0.5169 C   0  0  2  0  0  0  0  0  0  0  0  0
   -0.9318    1.6837   -1.8951 C   0  0  0  0  0  0  0  0  0  0  0  0
   -0.9347    3.7780   -0.4445 C   0  0  0  0  0  0  0  0  0  0  0  0
   -1.7806    2.2346   -3.0338 C   0  0  0  0  0  0  0  0  0  0  0  0
   -1.9022   -0.1128    0.2753 H   0  0  0  0  0  0  0  0  0  0  0  0
    0.4763    1.4827    0.4811 H   0  0  0  0  0  0  0  0  0  0  0  0
   -2.3726    2.2052   -0.3870 H   0  0  0  0  0  0  0  0  0  0  0  0
    0.1175    1.8959   -2.1305 H   0  0  0  0  0  0  0  0  0  0  0  0
   -1.0378    0.5926   -1.8742 H   0  0  0  0  0  0  0  0  0  0  0  0
    0.1428    3.9312   -0.5675 H   0  0  0  0  0  0  0  0  0  0  0  0
   -1.4310    4.3405   -1.2412 H   0  0  0  0  0  0  0  0  0  0  0  0
   -1.2329    4.2145    0.5142 H   0  0  0  0  0  0  0  0  0  0  0  0
   -2.8463    2.0570   -2.8643 H   0  0  0  0  0  0  0  0  0  0  0  0
   -1.5107    1.7420   -3.9737 H   0  0  0  0  0  0  0  0  0  0  0  0
   -1.6215    3.3103   -3.1583 H   0  0  0  0  0  0  0  0  0  0  0  0
   -0.4456    3.5268    1.9947 N   0  0  0  0  0  0  0  0  0  0  0  0
   -0.5382    4.3846    3.1541 C   0  0  2  0  0  0  0  0  0  0  0  0
    0.5253    5.4670    3.0244 C   0  0  0  0  0  0  0  0  0  0  0  0
    1.5304    5.3400    2.3282 O   0  0  0  0  0  0  0  0  0  0  0  0
   -0.3569    3.5960    4.4417 C   0  0  0  0  0  0  0  0  0  0  0  0
   -0.0756    3.9180    1.1334 H   0  0  0  0  0  0  0  0  0  0  0  0
   -1.5324    4.8438    3.1292 H   0  0  0  0  0  0  0  0  0  0  0  0
    0.6336    3.1285    4.4847 H   0  0  0  0  0  0  0  0  0  0  0  0
   -0.4557    4.2423    5.3201 H   0  0  0  0  0  0  0  0  0  0  0  0
   -1.1042    2.7989    4.5190 H   0  0  0  0  0  0  0  0  0  0  0  0
    0.2414    6.5744    3.8114 N   0  0  0  0  0  0  0  0  0  0  0  0
    1.1052    7.7304    3.8712 C   0  0  0  0  0  0  0  0  0  0  0  0
   -0.6242    6.6017    4.3421 H   0  0  0  0  0  0  0  0  0  0  0  0
    1.8138    7.6166    4.7049 H   0  0  0  0  0  0  0  0  0  0  0  0
    1.6619    7.8213    2.9268 H   0  0  0  0  0  0  0  0  0  0  0  0
    0.4978    8.6342    4.0272 H   0  0  0  0  0  0  0  0  0  0  0  0
  1  3  1  0  0  0  0
  1  7  1  0  0  0  0
  1  2  2  0  0  0  0
 37 38  1  0  0  0  0
 38 46  1  0  0  0  0
 38 39  2  0  0  0  0
  8  9  1  0  0  0  0
  9 17  1  0  0  0  0
  9 10  2  0  0  0  0
 18 19  1  0  0  0  0
 19 36  1  0  0  0  0
 19 20  2  0  0  0  0
 22 24  1  0  0  0  0
 37 40  1  0  0  0  0
  8 11  1  0  0  0  0
 21 23  1  0  0  0  0
 46 47  1  0  0  0  0
 21 22  1  0  0  0  0
 36 37  1  0  0  0  0
  7  8  1  0  0  0  0
 18 21  1  0  0  0  0
 17 18  1  0  0  0  0
  3  4  1  0  0  0  0
  3  5  1  0  0  0  0
  3  6  1  0  0  0  0
 24 33  1  0  0  0  0
 24 34  1  0  0  0  0
 24 35  1  0  0  0  0
 40 43  1  0  0  0  0
 40 44  1  0  0  0  0
 40 45  1  0  0  0  0
 11 14  1  0  0  0  0
 11 15  1  0  0  0  0
 11 16  1  0  0  0  0
 23 30  1  0  0  0  0
 23 31  1  0  0  0  0
 23 32  1  0  0  0  0
 47 49  1  0  0  0  0
 47 50  1  0  0  0  0
 47 51  1  0  0  0  0
 22 28  1  0  0  0  0
 22 29  1  0  0  0  0
 37 42  1  0  0  0  0
  8 13  1  0  0  0  0
 18 26  1  0  0  0  0
 21 27  1  0  0  0  0
 46 48  1  0  0  0  0
  7 12  1  0  0  0  0
 36 41  1  0  0  0  0
 17 25  1  0  0  0  0
M  END
$$$$

  -OEChem-05262214473D

 51 50  0     1  0  0  0  0  0999 V2000
    1.3524   -3.0009    1.4091 C   0  0  0  0  0  0  0  0  0  0  0  0
    1.8758   -1.9880    0.9598 O   0  0  0  0  0  0  0  0  0  0  0  0
    2.2030   -4.1782    1.7536 C   0  0  0  0  0  0  0  0  0  0  0  0
    2.3264   -4.8705    0.9053 H   0  0  0  0  0  0  0  0  0  0  0  0
    3.2257   -3.8876    2.0432 H   0  0  0  0  0  0  0  0  0  0  0  0
    1.8327   -4.8004    2.5839 H   0  0  0  0  0  0  0  0  0  0  0  0
    0.0005   -3.1873    1.6465 N   0  0  0  0  0  0  0  0  0  0  0  0
   -0.9949   -2.1807    1.3864 C   0  0  2  0  0  0  0  0  0  0  0  0
   -0.3083   -0.8216    1.4164 C   0  0  0  0  0  0  0  0  0  0  0  0
    0.7533   -0.6191    2.0022 O   0  0  0  0  0  0  0  0  0  0  0  0
   -2.1232   -2.2423    2.4042 C   0  0  0  0  0  0  0  0  0  0  0  0
   -0.3048   -4.0823    2.0245 H   0  0  0  0  0  0  0  0  0  0  0  0
   -1.3830   -2.3724    0.3801 H   0  0  0  0  0  0  0  0  0  0  0  0
   -1.7534   -2.0527    3.4185 H   0  0  0  0  0  0  0  0  0  0  0  0
   -2.8936   -1.4947    2.1882 H   0  0  0  0  0  0  0  0  0  0  0  0
   -2.5964   -3.2301    2.4022 H   0  0  0  0  0  0  0  0  0  0  0  0
   -1.0412    0.1517    0.7482 N   0  0  0  0  0  0  0  0  0  0  0  0
   -0.6079    1.5223    0.6467 C   0  0  2  0  0  0  0  0  0  0  0  0
   -0.8369    2.1955    1.9993 C   0  0  0  0  0  0  0  0  0  0  0  0
   -1.0296    1.5632    3.0359 O   0  0  0  0  0  0  0  0  0  0  0  0
   -1.2851    2.2858   -0.5169 C   0  0  2  0  0  0  0  0  0  0  0  0
   -0.9318    1.6837   -1.8951 C   0  0  0  0  0  0  0  0  0  0  0  0
   -0.9347    3.7780   -0.4445 C   0  0  0  0  0  0  0  0  0  0  0  0
   -1.7806    2.2346   -3.0338 C   0  0  0  0  0  0  0  0  0  0  0  0
   -1.9022   -0.1128    0.2753 H   0  0  0  0  0  0  0  0  0  0  0  0
    0.4763    1.4827    0.4811 H   0  0  0  0  0  0  0  0  0  0  0  0
   -2.3726    2.2052   -0.3870 H   0  0  0  0  0  0  0  0  0  0  0  0
    0.1175    1.8959   -2.1305 H   0  0  0  0  0  0  0  0  0  0  0  0
   -1.0378    0.5926   -1.8742 H   0  0  0  0  0  0  0  0  0  0  0  0
    0.1428    3.9312   -0.5675 H   0  0  0  0  0  0  0  0  0  0  0  0
   -1.4310    4.3405   -1.2412 H   0  0  0  0  0  0  0  0  0  0  0  0
   -1.2329    4.2145    0.5142 H   0  0  0  0  0  0  0  0  0  0  0  0
   -2.8463    2.0570   -2.8643 H   0  0  0  0  0  0  0  0  0  0  0  0
   -1.5107    1.7420   -3.9737 H   0  0  0  0  0  0  0  0  0  0  0  0
   -1.6215    3.3103   -3.1583 H   0  0  0  0  0  0  0  0  0  0  0  0
   -0.7671    3.5788    1.9144 N   0  0  0  0  0  0  0  0  0  0  0  0
   -0.9281    4.4523    3.0544 C   0  0  2  0  0  0  0  0  0  0  0  0
   -0.1647    5.7396    2.7720 C   0  0  0  0  0  0  0  0  0  0  0  0
    0.7601    5.8077    1.9650 O   0  0  0  0  0  0  0  0  0  0  0  0
   -0.4294    3.7935    4.3311 C   0  0  0  0  0  0  0  0  0  0  0  0
   -0.5942    3.9983    1.0056 H   0  0  0  0  0  0  0  0  0  0  0  0
   -1.9982    4.6721    3.1358 H   0  0  0  0  0  0  0  0  0  0  0  0
    0.6410    3.5659    4.2682 H   0  0  0  0  0  0  0  0  0  0  0  0
   -0.5783    4.4454    5.1982 H   0  0  0  0  0  0  0  0  0  0  0  0
   -0.9589    2.8528    4.5167 H   0  0  0  0  0  0  0  0  0  0  0  0
   -0.6091    6.7931    3.5586 N   0  0  0  0  0  0  0  0  0  0  0  0
   -0.0349    8.1164    3.4861 C   0  0  0  0  0  0  0  0  0  0  0  0
   -1.3941    6.6509    4.1873 H   0  0  0  0  0  0  0  0  0  0  0  0
    0.7676    8.2099    4.2325 H   0  0  0  0  0  0  0  0  0  0  0  0
    0.3788    8.2819    2.4804 H   0  0  0  0  0  0  0  0  0  0  0  0
   -0.8141    8.8657    3.6898 H   0  0  0  0  0  0  0  0  0  0  0  0
  1  3  1  0  0  0  0
  1  7  1  0  0  0  0
  1  2  2  0  0  0  0
 37 38  1  0  0  0  0
 38 46  1  0  0  0  0
 38 39  2  0  0  0  0
  8  9  1  0  0  0  0
  9 17  1  0  0  0  0
  9 10  2  0  0  0  0
 18 19  1  0  0  0  0
 19 36  1  0  0  0  0
 19 20  2  0  0  0  0
 22 24  1  0  0  0  0
 37 40  1  0  0  0  0
  8 11  1  0  0  0  0
 21 23  1  0  0  0  0
 46 47  1  0  0  0  0
 21 22  1  0  0  0  0
 36 37  1  0  0  0  0
  7  8  1  0  0  0  0
 18 21  1  0  0  0  0
 17 18  1  0  0  0  0
  3  4  1  0  0  0  0
  3  5  1  0  0  0  0
  3  6  1  0  0  0  0
 24 33  1  0  0  0  0
 24 34  1  0  0  0  0
 24 35  1  0  0  0  0
 40 43  1  0  0  0  0
 40 44  1  0  0  0  0
 40 45  1  0  0  0  0
 11 14  1  0  0  0  0
 11 15  1  0  0  0  0
 11 16  1  0  0  0  0
 23 30  1  0  0  0  0
 23 31  1  0  0  0  0
 23 32  1  0  0  0  0
 47 49  1  0  0  0  0
 47 50  1  0  0  0  0
 47 51  1  0  0  0  0
 22 28  1  0  0  0  0
 22 29  1  0  0  0  0
 37 42  1  0  0  0  0
  8 13  1  0  0  0  0
 18 26  1  0  0  0  0
 21 27  1  0  0  0  0
 46 48  1  0  0  0  0
  7 12  1  0  0  0  0
 36 41  1  0  0  0  0
 17 25  1  0  0  0  0
M  END
$$$$

  -OEChem-05262214473D

 51 50  0     1  0  0  0  0  0999 V2000
    1.3524   -3.0009    1.4091 C   0  0  0  0  0  0  0  0  0  0  0  0
    1.8758   -1.9880    0.9598 O   0  0  0  0  0  0  0  0  0  0  0  0
    2.2030   -4.1782    1.7536 C   0  0  0  0  0  0  0  0  0  0  0  0
    2.3264   -4.8705    0.9053 H   0  0  0  0  0  0  0  0  0  0  0  0
    3.2257   -3.8876    2.0432 H   0  0  0  0  0  0  0  0  0  0  0  0
    1.8327   -4.8004    2.5839 H   0  0  0  0  0  0  0  0  0  0  0  0
    0.0005   -3.1873    1.6465 N   0  0  0  0  0  0  0  0  0  0  0  0
   -0.9949   -2.1807    1.3864 C   0  0  2  0  0  0  0  0  0  0  0  0
   -0.3083   -0.8216    1.4164 C   0  0  0  0  0  0  0  0  0  0  0  0
    0.7533   -0.6191    2.0022 O   0  0  0  0  0  0  0  0  0  0  0  0
   -2.1232   -2.2423    2.4042 C   0  0  0  0  0  0  0  0  0  0  0  0
   -0.3048   -4.0823    2.0245 H   0  0  0  0  0  0  0  0  0  0  0  0
   -1.3830   -2.3724    0.3801 H   0  0  0  0  0  0  0  0  0  0  0  0
   -1.7534   -2.0527    3.4185 H   0  0  0  0  0  0  0  0  0  0  0  0
   -2.8936   -1.4947    2.1882 H   0  0  0  0  0  0  0  0  0  0  0  0
   -2.5964   -3.2301    2.4022 H   0  0  0  0  0  0  0  0  0  0  0  0
   -1.0412    0.1517    0.7482 N   0  0  0  0  0  0  0  0  0  0  0  0
   -0.6079    1.5223    0.6467 C   0  0  2  0  0  0  0  0  0  0  0  0
   -0.8369    2.1955    1.9993 C   0  0  0  0  0  0  0  0  0  0  0  0
   -0.7634    1.5908    3.0672 O   0  0  0  0  0  0  0  0  0  0  0  0
   -1.2851    2.2858   -0.5169 C   0  0  2  0  0  0  0  0  0  0  0  0
   -0.9318    1.6837   -1.8951 C   0  0  0  0  0  0  0  0  0  0  0  0
   -0.9347    3.7780   -0.4445 C   0  0  0  0  0  0  0  0  0  0  0  0
   -1.7806    2.2346   -3.0338 C   0  0  0  0  0  0  0  0  0  0  0  0
   -1.9022   -0.1128    0.2753 H   0  0  0  0  0  0  0  0  0  0  0  0
    0.4763    1.4827    0.4811 H   0  0  0  0  0  0  0  0  0  0  0  0
   -2.3726    2.2052   -0.3870 H   0  0  0  0  0  0  0  0  0  0  0  0
    0.1175    1.8959   -2.1305 H   0  0  0  0  0  0  0  0  0  0  0  0
   -1.0378    0.5926   -1.8742 H   0  0  0  0  0  0  0  0  0  0  0  0
    0.1428    3.9312   -0.5675 H   0  0  0  0  0  0  0  0  0  0  0  0
   -1.4310    4.3405   -1.2412 H   0  0  0  0  0  0  0  0  0  0  0  0
   -1.2329    4.2145    0.5142 H   0  0  0  0  0  0  0  0  0  0  0  0
   -2.8463    2.0570   -2.8643 H   0  0  0  0  0  0  0  0  0  0  0  0
   -1.5107    1.7420   -3.9737 H   0  0  0  0  0  0  0  0  0  0  0  0
   -1.6215    3.3103   -3.1583 H   0  0  0  0  0  0  0  0  0  0  0  0
   -1.0987    3.5522    1.8715 N   0  0  0  0  0  0  0  0  0  0  0  0
   -1.3316    4.4246    2.9999 C   0  0  2  0  0  0  0  0  0  0  0  0
   -0.9223    5.8350    2.5963 C   0  0  0  0  0  0  0  0  0  0  0  0
   -0.1325    6.0690    1.6839 O   0  0  0  0  0  0  0  0  0  0  0  0
   -0.5573    3.9635    4.2248 C   0  0  0  0  0  0  0  0  0  0  0  0
   -1.1282    3.9521    0.9383 H   0  0  0  0  0  0  0  0  0  0  0  0
   -2.4080    4.3998    3.2019 H   0  0  0  0  0  0  0  0  0  0  0  0
    0.5232    3.9816    4.0414 H   0  0  0  0  0  0  0  0  0  0  0  0
   -0.7571    4.6088    5.0866 H   0  0  0  0  0  0  0  0  0  0  0  0
   -0.8313    2.9382    4.4959 H   0  0  0  0  0  0  0  0  0  0  0  0
   -1.5095    6.7997    3.4029 N   0  0  0  0  0  0  0  0  0  0  0  0
   -1.2686    8.2132    3.2291 C   0  0  0  0  0  0  0  0  0  0  0  0
   -2.1666    6.5160    4.1236 H   0  0  0  0  0  0  0  0  0  0  0  0
   -0.4327    8.5250    3.8725 H   0  0  0  0  0  0  0  0  0  0  0  0
   -1.0170    8.4156    2.1776 H   0  0  0  0  0  0  0  0  0  0  0  0
   -2.1728    8.7757    3.5047 H   0  0  0  0  0  0  0  0  0  0  0  0
  1  3  1  0  0  0  0
  1  7  1  0  0  0  0
  1  2  2  0  0  0  0
 37 38  1  0  0  0  0
 38 46  1  0  0  0  0
 38 39  2  0  0  0  0
  8  9  1  0  0  0  0
  9 17  1  0  0  0  0
  9 10  2  0  0  0  0
 18 19  1  0  0  0  0
 19 36  1  0  0  0  0
 19 20  2  0  0  0  0
 22 24  1  0  0  0  0
 37 40  1  0  0  0  0
  8 11  1  0  0  0  0
 21 23  1  0  0  0  0
 46 47  1  0  0  0  0
 21 22  1  0  0  0  0
 36 37  1  0  0  0  0
  7  8  1  0  0  0  0
 18 21  1  0  0  0  0
 17 18  1  0  0  0  0
  3  4  1  0  0  0  0
  3  5  1  0  0  0  0
  3  6  1  0  0  0  0
 24 33  1  0  0  0  0
 24 34  1  0  0  0  0
 24 35  1  0  0  0  0
 40 43  1  0  0  0  0
 40 44  1  0  0  0  0
 40 45  1  0  0  0  0
 11 14  1  0  0  0  0
 11 15  1  0  0  0  0
 11 16  1  0  0  0  0
 23 30  1  0  0  0  0
 23 31  1  0  0  0  0
 23 32  1  0  0  0  0
 47 49  1  0  0  0  0
 47 50  1  0  0  0  0
 47 51  1  0  0  0  0
 22 28  1  0  0  0  0
 22 29  1  0  0  0  0
 37 42  1  0  0  0  0
  8 13  1  0  0  0  0
 18 26  1  0  0  0  0
 21 27  1  0  0  0  0
 46 48  1  0  0  0  0
  7 12  1  0  0  0  0
 36 41  1  0  0  0  0
 17 25  1  0  0  0  0
M  END
$$$$

  -OEChem-05262214473D

 51 50  0     1  0  0  0  0  0999 V2000
    1.3524   -3.0009    1.4091 C   0  0  0  0  0  0  0  0  0  0  0  0
    1.8758   -1.9880    0.9598 O   0  0  0  0  0  0  0  0  0  0  0  0
    2.2030   -4.1782    1.7536 C   0  0  0  0  0  0  0  0  0  0  0  0
    2.3264   -4.8705    0.9053 H   0  0  0  0  0  0  0  0  0  0  0  0
    3.2257   -3.8876    2.0432 H   0  0  0  0  0  0  0  0  0  0  0  0
    1.8327   -4.8004    2.5839 H   0  0  0  0  0  0  0  0  0  0  0  0
    0.0005   -3.1873    1.6465 N   0  0  0  0  0  0  0  0  0  0  0  0
   -0.9949   -2.1807    1.3864 C   0  0  2  0  0  0  0  0  0  0  0  0
   -0.3083   -0.8216    1.4164 C   0  0  0  0  0  0  0  0  0  0  0  0
    0.7533   -0.6191    2.0022 O   0  0  0  0  0  0  0  0  0  0  0  0
   -2.1232   -2.2423    2.4042 C   0  0  0  0  0  0  0  0  0  0  0  0
   -0.3048   -4.0823    2.0245 H   0  0  0  0  0  0  0  0  0  0  0  0
   -1.3830   -2.3724    0.3801 H   0  0  0  0  0  0  0  0  0  0  0  0
   -1.7534   -2.0527    3.4185 H   0  0  0  0  0  0  0  0  0  0  0  0
   -2.8936   -1.4947    2.1882 H   0  0  0  0  0  0  0  0  0  0  0  0
   -2.5964   -3.2301    2.4022 H   0  0  0  0  0  0  0  0  0  0  0  0
   -1.0412    0.1517    0.7482 N   0  0  0  0  0  0  0  0  0  0  0  0
   -0.6079    1.5223    0.6467 C   0  0  2  0  0  0  0  0  0  0  0  0
   -0.8369    2.1955    1.9993 C   0  0  0  0  0  0  0  0  0  0  0  0
   -0.5090    1.6796    3.0660 O   0  0  0  0  0  0  0  0  0  0  0  0
   -1.2851    2.2858   -0.5169 C   0  0  2  0  0  0  0  0  0  0  0  0
   -0.9318    1.6837   -1.8951 C   0  0  0  0  0  0  0  0  0  0  0  0
   -0.9347    3.7780   -0.4445 C   0  0  0  0  0  0  0  0  0  0  0  0
   -1.7806    2.2346   -3.0338 C   0  0  0  0  0  0  0  0  0  0  0  0
   -1.9022   -0.1128    0.2753 H   0  0  0  0  0  0  0  0  0  0  0  0
    0.4763    1.4827    0.4811 H   0  0  0  0  0  0  0  0  0  0  0  0
   -2.3726    2.2052   -0.3870 H   0  0  0  0  0  0  0  0  0  0  0  0
    0.1175    1.8959   -2.1305 H   0  0  0  0  0  0  0  0  0  0  0  0
   -1.0378    0.5926   -1.8742 H   0  0  0  0  0  0  0  0  0  0  0  0
    0.1428    3.9312   -0.5675 H   0  0  0  0  0  0  0  0  0  0  0  0
   -1.4310    4.3405   -1.2412 H   0  0  0  0  0  0  0  0  0  0  0  0
   -1.2329    4.2145    0.5142 H   0  0  0  0  0  0  0  0  0  0  0  0
   -2.8463    2.0570   -2.8643 H   0  0  0  0  0  0  0  0  0  0  0  0
   -1.5107    1.7420   -3.9737 H   0  0  0  0  0  0  0  0  0  0  0  0
   -1.6215    3.3103   -3.1583 H   0  0  0  0  0  0  0  0  0  0  0  0
   -1.4179    3.4489    1.8689 N   0  0  0  0  0  0  0  0  0  0  0  0
   -1.7213    4.3032    2.9943 C   0  0  2  0  0  0  0  0  0  0  0  0
   -1.6961    5.7467    2.5092 C   0  0  0  0  0  0  0  0  0  0  0  0
   -1.0866    6.1060    1.5040 O   0  0  0  0  0  0  0  0  0  0  0  0
   -0.7320    4.0942    4.1302 C   0  0  0  0  0  0  0  0  0  0  0  0
   -1.6410    3.7825    0.9358 H   0  0  0  0  0  0  0  0  0  0  0  0
   -2.7339    4.0455    3.3231 H   0  0  0  0  0  0  0  0  0  0  0  0
    0.2883    4.3474    3.8196 H   0  0  0  0  0  0  0  0  0  0  0  0
   -0.9800    4.7214    4.9929 H   0  0  0  0  0  0  0  0  0  0  0  0
   -0.7299    3.0490    4.4579 H   0  0  0  0  0  0  0  0  0  0  0  0
   -2.3986    6.5938    3.3549 N   0  0  0  0  0  0  0  0  0  0  0  0
   -2.5117    8.0140    3.1178 C   0  0  0  0  0  0  0  0  0  0  0  0
   -2.8893    6.2063    4.1554 H   0  0  0  0  0  0  0  0  0  0  0  0
   -1.7053    8.5404    3.6495 H   0  0  0  0  0  0  0  0  0  0  0  0
   -2.4305    8.2132    2.0391 H   0  0  0  0  0  0  0  0  0  0  0  0
   -3.4858    8.3703    3.4842 H   0  0  0  0  0  0  0  0  0  0  0  0
  1  3  1  0  0  0  0
  1  7  1  0  0  0  0
  1  2  2  0  0  0  0
 37 38  1  0  0  0  0
 38 46  1  0  0  0  0
 38 39  2  0  0  0  0
  8  9  1  0  0  0  0
  9 17  1  0  0  0  0
  9 10  2  0  0  0  0
 18 19  1  0  0  0  0
 19 36  1  0  0  0  0
 19 20  2  0  0  0  0
 22 24  1  0  0  0  0
 37 40  1  0  0  0  0
  8 11  1  0  0  0  0
 21 23  1  0  0  0  0
 46 47  1  0  0  0  0
 21 22  1  0  0  0  0
 36 37  1  0  0  0  0
  7  8  1  0  0  0  0
 18 21  1  0  0  0  0
 17 18  1  0  0  0  0
  3  4  1  0  0  0  0
  3  5  1  0  0  0  0
  3  6  1  0  0  0  0
 24 33  1  0  0  0  0
 24 34  1  0  0  0  0
 24 35  1  0  0  0  0
 40 43  1  0  0  0  0
 40 44  1  0  0  0  0
 40 45  1  0  0  0  0
 11 14  1  0  0  0  0
 11 15  1  0  0  0  0
 11 16  1  0  0  0  0
 23 30  1  0  0  0  0
 23 31  1  0  0  0  0
 23 32  1  0  0  0  0
 47 49  1  0  0  0  0
 47 50  1  0  0  0  0
 47 51  1  0  0  0  0
 22 28  1  0  0  0  0
 22 29  1  0  0  0  0
 37 42  1  0  0  0  0
  8 13  1  0  0  0  0
 18 26  1  0  0  0  0
 21 27  1  0  0  0  0
 46 48  1  0  0  0  0
  7 12  1  0  0  0  0
 36 41  1  0  0  0  0
 17 25  1  0  0  0  0
M  END
$$$$

  -OEChem-05262214473D

 51 50  0     1  0  0  0  0  0999 V2000
    1.3524   -3.0009    1.4091 C   0  0  0  0  0  0  0  0  0  0  0  0
    1.8758   -1.9880    0.9598 O   0  0  0  0  0  0  0  0  0  0  0  0
    2.2030   -4.1782    1.7536 C   0  0  0  0  0  0  0  0  0  0  0  0
    2.3264   -4.8705    0.9053 H   0  0  0  0  0  0  0  0  0  0  0  0
    3.2257   -3.8876    2.0432 H   0  0  0  0  0  0  0  0  0  0  0  0
    1.8327   -4.8004    2.5839 H   0  0  0  0  0  0  0  0  0  0  0  0
    0.0005   -3.1873    1.6465 N   0  0  0  0  0  0  0  0  0  0  0  0
   -0.9949   -2.1807    1.3864 C   0  0  2  0  0  0  0  0  0  0  0  0
   -0.3083   -0.8216    1.4164 C   0  0  0  0  0  0  0  0  0  0  0  0
    0.7533   -0.6191    2.0022 O   0  0  0  0  0  0  0  0  0  0  0  0
   -2.1232   -2.2423    2.4042 C   0  0  0  0  0  0  0  0  0  0  0  0
   -0.3048   -4.0823    2.0245 H   0  0  0  0  0  0  0  0  0  0  0  0
   -1.3830   -2.3724    0.3801 H   0  0  0  0  0  0  0  0  0  0  0  0
   -1.7534   -2.0527    3.4185 H   0  0  0  0  0  0  0  0  0  0  0  0
   -2.8936   -1.4947    2.1882 H   0  0  0  0  0  0  0  0  0  0  0  0
   -2.5964   -3.2301    2.4022 H   0  0  0  0  0  0  0  0  0  0  0  0
   -1.0412    0.1517    0.7482 N   0  0  0  0  0  0  0  0  0  0  0  0
   -0.6079    1.5223    0.6467 C   0  0  2  0  0  0  0  0  0  0  0  0
   -0.8369    2.1955    1.9993 C   0  0  0  0  0  0  0  0  0  0  0  0
   -0.2838    1.8237    3.0324 O   0  0  0  0  0  0  0  0  0  0  0  0
   -1.2851    2.2858   -0.5169 C   0  0  2  0  0  0  0  0  0  0  0  0
   -0.9318    1.6837   -1.8951 C   0  0  0  0  0  0  0  0  0  0  0  0
   -0.9347    3.7780   -0.4445 C   0  0  0  0  0  0  0  0  0  0  0  0
   -1.7806    2.2346   -3.0338 C   0  0  0  0  0  0  0  0  0  0  0  0
   -1.9022   -0.1128    0.2753 H   0  0  0  0  0  0  0  0  0  0  0  0
    0.4763    1.4827    0.4811 H   0  0  0  0  0  0  0  0  0  0  0  0
   -2.3726    2.2052   -0.3870 H   0  0  0  0  0  0  0  0  0  0  0  0
    0.1175    1.8959   -2.1305 H   0  0  0  0  0  0  0  0  0  0  0  0
   -1.0378    0.5926   -1.8742 H   0  0  0  0  0  0  0  0  0  0  0  0
    0.1428    3.9312   -0.5675 H   0  0  0  0  0  0  0  0  0  0  0  0
   -1.4310    4.3405   -1.2412 H   0  0  0  0  0  0  0  0  0  0  0  0
   -1.2329    4.2145    0.5142 H   0  0  0  0  0  0  0  0  0  0  0  0
   -2.8463    2.0570   -2.8643 H   0  0  0  0  0  0  0  0  0  0  0  0
   -1.5107    1.7420   -3.9737 H   0  0  0  0  0  0  0  0  0  0  0  0
   -1.6215    3.3103   -3.1583 H   0  0  0  0  0  0  0  0  0  0  0  0
   -1.7027    3.2759    1.9068 N   0  0  0  0  0  0  0  0  0  0  0  0
   -2.0704    4.0966    3.0381 C   0  0  2  0  0  0  0  0  0  0  0  0
   -2.4331    5.4808    2.5168 C   0  0  0  0  0  0  0  0  0  0  0  0
   -2.0372    5.9162    1.4376 O   0  0  0  0  0  0  0  0  0  0  0  0
   -0.9414    4.1768    4.0537 C   0  0  0  0  0  0  0  0  0  0  0  0
   -2.0978    3.5011    0.9986 H   0  0  0  0  0  0  0  0  0  0  0  0
   -2.9537    3.6333    3.4911 H   0  0  0  0  0  0  0  0  0  0  0  0
   -0.0477    4.6383    3.6179 H   0  0  0  0  0  0  0  0  0  0  0  0
   -1.2318    4.7754    4.9234 H   0  0  0  0  0  0  0  0  0  0  0  0
   -0.6617    3.1778    4.4053 H   0  0  0  0  0  0  0  0  0  0  0  0
   -3.2156    6.1893    3.4179 N   0  0  0  0  0  0  0  0  0  0  0  0
   -3.6795    7.5325    3.1598 C   0  0  0  0  0  0  0  0  0  0  0  0
   -3.5127    5.7429    4.2806 H   0  0  0  0  0  0  0  0  0  0  0  0
   -2.9635    8.2550    3.5785 H   0  0  0  0  0  0  0  0  0  0  0  0
   -3.7652    7.6885    2.0743 H   0  0  0  0  0  0  0  0  0  0  0  0
   -4.6634    7.6772    3.6298 H   0  0  0  0  0  0  0  0  0  0  0  0
  1  3  1  0  0  0  0
  1  7  1  0  0  0  0
  1  2  2  0  0  0  0
 37 38  1  0  0  0  0
 38 46  1  0  0  0  0
 38 39  2  0  0  0  0
  8  9  1  0  0  0  0
  9 17  1  0  0  0  0
  9 10  2  0  0  0  0
 18 19  1  0  0  0  0
 19 36  1  0  0  0  0
 19 20  2  0  0  0  0
 22 24  1  0  0  0  0
 37 40  1  0  0  0  0
  8 11  1  0  0  0  0
 21 23  1  0  0  0  0
 46 47  1  0  0  0  0
 21 22  1  0  0  0  0
 36 37  1  0  0  0  0
  7  8  1  0  0  0  0
 18 21  1  0  0  0  0
 17 18  1  0  0  0  0
  3  4  1  0  0  0  0
  3  5  1  0  0  0  0
  3  6  1  0  0  0  0
 24 33  1  0  0  0  0
 24 34  1  0  0  0  0
 24 35  1  0  0  0  0
 40 43  1  0  0  0  0
 40 44  1  0  0  0  0
 40 45  1  0  0  0  0
 11 14  1  0  0  0  0
 11 15  1  0  0  0  0
 11 16  1  0  0  0  0
 23 30  1  0  0  0  0
 23 31  1  0  0  0  0
 23 32  1  0  0  0  0
 47 49  1  0  0  0  0
 47 50  1  0  0  0  0
 47 51  1  0  0  0  0
 22 28  1  0  0  0  0
 22 29  1  0  0  0  0
 37 42  1  0  0  0  0
  8 13  1  0  0  0  0
 18 26  1  0  0  0  0
 21 27  1  0  0  0  0
 46 48  1  0  0  0  0
  7 12  1  0  0  0  0
 36 41  1  0  0  0  0
 17 25  1  0  0  0  0
M  END
$$$$

  -OEChem-05262214473D

 51 50  0     1  0  0  0  0  0999 V2000
    1.3524   -3.0009    1.4091 C   0  0  0  0  0  0  0  0  0  0  0  0
    1.8758   -1.9880    0.9598 O   0  0  0  0  0  0  0  0  0  0  0  0
    2.2030   -4.1782    1.7536 C   0  0  0  0  0  0  0  0  0  0  0  0
    2.3264   -4.8705    0.9053 H   0  0  0  0  0  0  0  0  0  0  0  0
    3.2257   -3.8876    2.0432 H   0  0  0  0  0  0  0  0  0  0  0  0
    1.8327   -4.8004    2.5839 H   0  0  0  0  0  0  0  0  0  0  0  0
    0.0005   -3.1873    1.6465 N   0  0  0  0  0  0  0  0  0  0  0  0
   -0.9949   -2.1807    1.3864 C   0  0  2  0  0  0  0  0  0  0  0  0
   -0.3083   -0.8216    1.4164 C   0  0  0  0  0  0  0  0  0  0  0  0
    0.7533   -0.6191    2.0022 O   0  0  0  0  0  0  0  0  0  0  0  0
   -2.1232   -2.2423    2.4042 C   0  0  0  0  0  0  0  0  0  0  0  0
   -0.3048   -4.0823    2.0245 H   0  0  0  0  0  0  0  0  0  0  0  0
   -1.3830   -2.3724    0.3801 H   0  0  0  0  0  0  0  0  0  0  0  0
   -1.7534   -2.0527    3.4185 H   0  0  0  0  0  0  0  0  0  0  0  0
   -2.8936   -1.4947    2.1882 H   0  0  0  0  0  0  0  0  0  0  0  0
   -2.5964   -3.2301    2.4022 H   0  0  0  0  0  0  0  0  0  0  0  0
   -1.0412    0.1517    0.7482 N   0  0  0  0  0  0  0  0  0  0  0  0
   -0.6079    1.5223    0.6467 C   0  0  2  0  0  0  0  0  0  0  0  0
   -0.8369    2.1955    1.9993 C   0  0  0  0  0  0  0  0  0  0  0  0
   -0.1031    2.0132    2.9687 O   0  0  0  0  0  0  0  0  0  0  0  0
   -1.2851    2.2858   -0.5169 C   0  0  2  0  0  0  0  0  0  0  0  0
   -0.9318    1.6837   -1.8951 C   0  0  0  0  0  0  0  0  0  0  0  0
   -0.9347    3.7780   -0.4445 C   0  0  0  0  0  0  0  0  0  0  0  0
   -1.7806    2.2346   -3.0338 C   0  0  0  0  0  0  0  0  0  0  0  0
   -1.9022   -0.1128    0.2753 H   0  0  0  0  0  0  0  0  0  0  0  0
    0.4763    1.4827    0.4811 H   0  0  0  0  0  0  0  0  0  0  0  0
   -2.3726    2.2052   -0.3870 H   0  0  0  0  0  0  0  0  0  0  0  0
    0.1175    1.8959   -2.1305 H   0  0  0  0  0  0  0  0  0  0  0  0
   -1.0378    0.5926   -1.8742 H   0  0  0  0  0  0  0  0  0  0  0  0
    0.1428    3.9312   -0.5675 H   0  0  0  0  0  0  0  0  0  0  0  0
   -1.4310    4.3405   -1.2412 H   0  0  0  0  0  0  0  0  0  0  0  0
   -1.2329    4.2145    0.5142 H   0  0  0  0  0  0  0  0  0  0  0  0
   -2.8463    2.0570   -2.8643 H   0  0  0  0  0  0  0  0  0  0  0  0
   -1.5107    1.7420   -3.9737 H   0  0  0  0  0  0  0  0  0  0  0  0
   -1.6215    3.3103   -3.1583 H   0  0  0  0  0  0  0  0  0  0  0  0
   -1.9340    3.0450    1.9825 N   0  0  0  0  0  0  0  0  0  0  0  0
   -2.3554    3.8186    3.1282 C   0  0  2  0  0  0  0  0  0  0  0  0
   -3.0833    5.0554    2.6185 C   0  0  0  0  0  0  0  0  0  0  0  0
   -2.9194    5.5125    1.4892 O   0  0  0  0  0  0  0  0  0  0  0  0
   -1.1713    4.2057    4.0004 C   0  0  0  0  0  0  0  0  0  0  0  0
   -2.4674    3.1271    1.1221 H   0  0  0  0  0  0  0  0  0  0  0  0
   -3.0525    3.1913    3.6943 H   0  0  0  0  0  0  0  0  0  0  0  0
   -0.4619    4.8345    3.4502 H   0  0  0  0  0  0  0  0  0  0  0  0
   -1.4953    4.7672    4.8828 H   0  0  0  0  0  0  0  0  0  0  0  0
   -0.6313    3.3159    4.3417 H   0  0  0  0  0  0  0  0  0  0  0  0
   -3.9050    5.6139    3.5876 N   0  0  0  0  0  0  0  0  0  0  0  0
   -4.6924    6.8016    3.3521 C   0  0  0  0  0  0  0  0  0  0  0  0
   -3.9944    5.1573    4.4905 H   0  0  0  0  0  0  0  0  0  0  0  0
   -4.1215    7.6885    3.6645 H   0  0  0  0  0  0  0  0  0  0  0  0
   -4.9302    6.8773    2.2808 H   0  0  0  0  0  0  0  0  0  0  0  0
   -5.6255    6.7435    3.9316 H   0  0  0  0  0  0  0  0  0  0  0  0
  1  3  1  0  0  0  0
  1  7  1  0  0  0  0
  1  2  2  0  0  0  0
 37 38  1  0  0  0  0
 38 46  1  0  0  0  0
 38 39  2  0  0  0  0
  8  9  1  0  0  0  0
  9 17  1  0  0  0  0
  9 10  2  0  0  0  0
 18 19  1  0  0  0  0
 19 36  1  0  0  0  0
 19 20  2  0  0  0  0
 22 24  1  0  0  0  0
 37 40  1  0  0  0  0
  8 11  1  0  0  0  0
 21 23  1  0  0  0  0
 46 47  1  0  0  0  0
 21 22  1  0  0  0  0
 36 37  1  0  0  0  0
  7  8  1  0  0  0  0
 18 21  1  0  0  0  0
 17 18  1  0  0  0  0
  3  4  1  0  0  0  0
  3  5  1  0  0  0  0
  3  6  1  0  0  0  0
 24 33  1  0  0  0  0
 24 34  1  0  0  0  0
 24 35  1  0  0  0  0
 40 43  1  0  0  0  0
 40 44  1  0  0  0  0
 40 45  1  0  0  0  0
 11 14  1  0  0  0  0
 11 15  1  0  0  0  0
 11 16  1  0  0  0  0
 23 30  1  0  0  0  0
 23 31  1  0  0  0  0
 23 32  1  0  0  0  0
 47 49  1  0  0  0  0
 47 50  1  0  0  0  0
 47 51  1  0  0  0  0
 22 28  1  0  0  0  0
 22 29  1  0  0  0  0
 37 42  1  0  0  0  0
  8 13  1  0  0  0  0
 18 26  1  0  0  0  0
 21 27  1  0  0  0  0
 46 48  1  0  0  0  0
  7 12  1  0  0  0  0
 36 41  1  0  0  0  0
 17 25  1  0  0  0  0
M  END
$$$$

  -OEChem-05262214473D

 51 50  0     1  0  0  0  0  0999 V2000
    1.3524   -3.0009    1.4091 C   0  0  0  0  0  0  0  0  0  0  0  0
    1.8758   -1.9880    0.9598 O   0  0  0  0  0  0  0  0  0  0  0  0
    2.2030   -4.1782    1.7536 C   0  0  0  0  0  0  0  0  0  0  0  0
    2.3264   -4.8705    0.9053 H   0  0  0  0  0  0  0  0  0  0  0  0
    3.2257   -3.8876    2.0432 H   0  0  0  0  0  0  0  0  0  0  0  0
    1.8327   -4.8004    2.5839 H   0  0  0  0  0  0  0  0  0  0  0  0
    0.0005   -3.1873    1.6465 N   0  0  0  0  0  0  0  0  0  0  0  0
   -0.9949   -2.1807    1.3864 C   0  0  2  0  0  0  0  0  0  0  0  0
   -0.3083   -0.8216    1.4164 C   0  0  0  0  0  0  0  0  0  0  0  0
    0.7533   -0.6191    2.0022 O   0  0  0  0  0  0  0  0  0  0  0  0
   -2.1232   -2.2423    2.4042 C   0  0  0  0  0  0  0  0  0  0  0  0
   -0.3048   -4.0823    2.0245 H   0  0  0  0  0  0  0  0  0  0  0  0
   -1.3830   -2.3724    0.3801 H   0  0  0  0  0  0  0  0  0  0  0  0
   -1.7534   -2.0527    3.4185 H   0  0  0  0  0  0  0  0  0  0  0  0
   -2.8936   -1.4947    2.1882 H   0  0  0  0  0  0  0  0  0  0  0  0
   -2.5964   -3.2301    2.4022 H   0  0  0  0  0  0  0  0  0  0  0  0
   -1.0412    0.1517    0.7482 N   0  0  0  0  0  0  0  0  0  0  0  0
   -0.6079    1.5223    0.6467 C   0  0  2  0  0  0  0  0  0  0  0  0
   -0.8369    2.1955    1.9993 C   0  0  0  0  0  0  0  0  0  0  0  0
    0.0208    2.2351    2.8792 O   0  0  0  0  0  0  0  0  0  0  0  0
   -1.2851    2.2858   -0.5169 C   0  0  2  0  0  0  0  0  0  0  0  0
   -0.9318    1.6837   -1.8951 C   0  0  0  0  0  0  0  0  0  0  0  0
   -0.9347    3.7780   -0.4445 C   0  0  0  0  0  0  0  0  0  0  0  0
   -1.7806    2.2346   -3.0338 C   0  0  0  0  0  0  0  0  0  0  0  0
   -1.9022   -0.1128    0.2753 H   0  0  0  0  0  0  0  0  0  0  0  0
    0.4763    1.4827    0.4811 H   0  0  0  0  0  0  0  0  0  0  0  0
   -2.3726    2.2052   -0.3870 H   0  0  0  0  0  0  0  0  0  0  0  0
    0.1175    1.8959   -2.1305 H   0  0  0  0  0  0  0  0  0  0  0  0
   -1.0378    0.5926   -1.8742 H   0  0  0  0  0  0  0  0  0  0  0  0
    0.1428    3.9312   -0.5675 H   0  0  0  0  0  0  0  0  0  0  0  0
   -1.4310    4.3405   -1.2412 H   0  0  0  0  0  0  0  0  0  0  0  0
   -1.2329    4.2145    0.5142 H   0  0  0  0  0  0  0  0  0  0  0  0
   -2.8463    2.0570   -2.8643 H   0  0  0  0  0  0  0  0  0  0  0  0
   -1.5107    1.7420   -3.9737 H   0  0  0  0  0  0  0  0  0  0  0  0
   -1.6215    3.3103   -3.1583 H   0  0  0  0  0  0  0  0  0  0  0  0
   -2.0958    2.7719    2.0911 N   0  0  0  0  0  0  0  0  0  0  0  0
   -2.5567    3.4883    3.2585 C   0  0  2  0  0  0  0  0  0  0  0  0
   -3.6023    4.4996    2.8073 C   0  0  0  0  0  0  0  0  0  0  0  0
   -3.6733    4.9224    1.6552 O   0  0  0  0  0  0  0  0  0  0  0  0
   -1.4060    4.1788    3.9740 C   0  0  0  0  0  0  0  0  0  0  0  0
   -2.7247    2.6860    1.2982 H   0  0  0  0  0  0  0  0  0  0  0  0
   -3.0234    2.7496    3.9191 H   0  0  0  0  0  0  0  0  0  0  0  0
   -0.9260    4.9227    3.3277 H   0  0  0  0  0  0  0  0  0  0  0  0
   -1.7525    4.6974    4.8741 H   0  0  0  0  0  0  0  0  0  0  0  0
   -0.6408    3.4537    4.2715 H   0  0  0  0  0  0  0  0  0  0  0  0
   -4.4197    4.9067    3.8524 N   0  0  0  0  0  0  0  0  0  0  0  0
   -5.4814    5.8709    3.6818 C   0  0  0  0  0  0  0  0  0  0  0  0
   -4.3016    4.4894    4.7709 H   0  0  0  0  0  0  0  0  0  0  0  0
   -5.1005    6.8792    3.9015 H   0  0  0  0  0  0  0  0  0  0  0  0
   -5.8461    5.8348    2.6446 H   0  0  0  0  0  0  0  0  0  0  0  0
   -6.3066    5.6330    4.3691 H   0  0  0  0  0  0  0  0  0  0  0  0
  1  3  1  0  0  0  0
  1  7  1  0  0  0  0
  1  2  2  0  0  0  0
 37 38  1  0  0  0  0
 38 46  1  0  0  0  0
 38 39  2  0  0  0  0
  8  9  1  0  0  0  0
  9 17  1  0  0  0  0
  9 10  2  0  0  0  0
 18 19  1  0  0  0  0
 19 36  1  0  0  0  0
 19 20  2  0  0  0  0
 22 24  1  0  0  0  0
 37 40  1  0  0  0  0
  8 11  1  0  0  0  0
 21 23  1  0  0  0  0
 46 47  1  0  0  0  0
 21 22  1  0  0  0  0
 36 37  1  0  0  0  0
  7  8  1  0  0  0  0
 18 21  1  0  0  0  0
 17 18  1  0  0  0  0
  3  4  1  0  0  0  0
  3  5  1  0  0  0  0
  3  6  1  0  0  0  0
 24 33  1  0  0  0  0
 24 34  1  0  0  0  0
 24 35  1  0  0  0  0
 40 43  1  0  0  0  0
 40 44  1  0  0  0  0
 40 45  1  0  0  0  0
 11 14  1  0  0  0  0
 11 15  1  0  0  0  0
 11 16  1  0  0  0  0
 23 30  1  0  0  0  0
 23 31  1  0  0  0  0
 23 32  1  0  0  0  0
 47 49  1  0  0  0  0
 47 50  1  0  0  0  0
 47 51  1  0  0  0  0
 22 28  1  0  0  0  0
 22 29  1  0  0  0  0
 37 42  1  0  0  0  0
  8 13  1  0  0  0  0
 18 26  1  0  0  0  0
 21 27  1  0  0  0  0
 46 48  1  0  0  0  0
  7 12  1  0  0  0  0
 36 41  1  0  0  0  0
 17 25  1  0  0  0  0
M  END
$$$$

  -OEChem-05262214473D

 51 50  0     1  0  0  0  0  0999 V2000
    1.3524   -3.0009    1.4091 C   0  0  0  0  0  0  0  0  0  0  0  0
    1.8758   -1.9880    0.9598 O   0  0  0  0  0  0  0  0  0  0  0  0
    2.2030   -4.1782    1.7536 C   0  0  0  0  0  0  0  0  0  0  0  0
    2.3264   -4.8705    0.9053 H   0  0  0  0  0  0  0  0  0  0  0  0
    3.2257   -3.8876    2.0432 H   0  0  0  0  0  0  0  0  0  0  0  0
    1.8327   -4.8004    2.5839 H   0  0  0  0  0  0  0  0  0  0  0  0
    0.0005   -3.1873    1.6465 N   0  0  0  0  0  0  0  0  0  0  0  0
   -0.9949   -2.1807    1.3864 C   0  0  2  0  0  0  0  0  0  0  0  0
   -0.3083   -0.8216    1.4164 C   0  0  0  0  0  0  0  0  0  0  0  0
    0.7533   -0.6191    2.0022 O   0  0  0  0  0  0  0  0  0  0  0  0
   -2.1232   -2.2423    2.4042 C   0  0  0  0  0  0  0  0  0  0  0  0
   -0.3048   -4.0823    2.0245 H   0  0  0  0  0  0  0  0  0  0  0  0
   -1.3830   -2.3724    0.3801 H   0  0  0  0  0  0  0  0  0  0  0  0
   -1.7534   -2.0527    3.4185 H   0  0  0  0  0  0  0  0  0  0  0  0
   -2.8936   -1.4947    2.1882 H   0  0  0  0  0  0  0  0  0  0  0  0
   -2.5964   -3.2301    2.4022 H   0  0  0  0  0  0  0  0  0  0  0  0
   -1.0412    0.1517    0.7482 N   0  0  0  0  0  0  0  0  0  0  0  0
   -0.6079    1.5223    0.6467 C   0  0  2  0  0  0  0  0  0  0  0  0
   -0.8369    2.1955    1.9993 C   0  0  0  0  0  0  0  0  0  0  0  0
    0.0795    2.4744    2.7701 O   0  0  0  0  0  0  0  0  0  0  0  0
   -1.2851    2.2858   -0.5169 C   0  0  2  0  0  0  0  0  0  0  0  0
   -0.9318    1.6837   -1.8951 C   0  0  0  0  0  0  0  0  0  0  0  0
   -0.9347    3.7780   -0.4445 C   0  0  0  0  0  0  0  0  0  0  0  0
   -1.7806    2.2346   -3.0338 C   0  0  0  0  0  0  0  0  0  0  0  0
   -1.9022   -0.1128    0.2753 H   0  0  0  0  0  0  0  0  0  0  0  0
    0.4763    1.4827    0.4811 H   0  0  0  0  0  0  0  0  0  0  0  0
   -2.3726    2.2052   -0.3870 H   0  0  0  0  0  0  0  0  0  0  0  0
    0.1175    1.8959   -2.1305 H   0  0  0  0  0  0  0  0  0  0  0  0
   -1.0378    0.5926   -1.8742 H   0  0  0  0  0  0  0  0  0  0  0  0
    0.1428    3.9312   -0.5675 H   0  0  0  0  0  0  0  0  0  0  0  0
   -1.4310    4.3405   -1.2412 H   0  0  0  0  0  0  0  0  0  0  0  0
   -1.2329    4.2145    0.5142 H   0  0  0  0  0  0  0  0  0  0  0  0
   -2.8463    2.0570   -2.8643 H   0  0  0  0  0  0  0  0  0  0  0  0
   -1.5107    1.7420   -3.9737 H   0  0  0  0  0  0  0  0  0  0  0  0
   -1.6215    3.3103   -3.1583 H   0  0  0  0  0  0  0  0  0  0  0  0
   -2.1771    2.4753    2.2249 N   0  0  0  0  0  0  0  0  0  0  0  0
   -2.6606    3.1283    3.4201 C   0  0  2  0  0  0  0  0  0  0  0  0
   -3.9548    3.8510    3.0704 C   0  0  0  0  0  0  0  0  0  0  0  0
   -4.2473    4.1862    1.9245 O   0  0  0  0  0  0  0  0  0  0  0  0
   -1.6297    4.0980    3.9764 C   0  0  0  0  0  0  0  0  0  0  0  0
   -2.8521    2.2078    1.5146 H   0  0  0  0  0  0  0  0  0  0  0  0
   -2.8685    2.3383    4.1500 H   0  0  0  0  0  0  0  0  0  0  0  0
   -1.4085    4.8967    3.2590 H   0  0  0  0  0  0  0  0  0  0  0  0
   -1.9860    4.5706    4.8976 H   0  0  0  0  0  0  0  0  0  0  0  0
   -0.6896    3.5819    4.1994 H   0  0  0  0  0  0  0  0  0  0  0  0
   -4.7246    4.1160    4.1943 N   0  0  0  0  0  0  0  0  0  0  0  0
   -5.9927    4.8040    4.1262 C   0  0  0  0  0  0  0  0  0  0  0  0
   -4.4133    3.7847    5.1027 H   0  0  0  0  0  0  0  0  0  0  0  0
   -5.8337    5.8825    4.2735 H   0  0  0  0  0  0  0  0  0  0  0  0
   -6.4505    4.6322    3.1409 H   0  0  0  0  0  0  0  0  0  0  0  0
   -6.6601    4.4212    4.9124 H   0  0  0  0  0  0  0  0  0  0  0  0
  1  3  1  0  0  0  0
  1  7  1  0  0  0  0
  1  2  2  0  0  0  0
 37 38  1  0  0  0  0
 38 46  1  0  0  0  0
 38 39  2  0  0  0  0
  8  9  1  0  0  0  0
  9 17  1  0  0  0  0
  9 10  2  0  0  0  0
 18 19  1  0  0  0  0
 19 36  1  0  0  0  0
 19 20  2  0  0  0  0
 22 24  1  0  0  0  0
 37 40  1  0  0  0  0
  8 11  1  0  0  0  0
 21 23  1  0  0  0  0
 46 47  1  0  0  0  0
 21 22  1  0  0  0  0
 36 37  1  0  0  0  0
  7  8  1  0  0  0  0
 18 21  1  0  0  0  0
 17 18  1  0  0  0  0
  3  4  1  0  0  0  0
  3  5  1  0  0  0  0
  3  6  1  0  0  0  0
 24 33  1  0  0  0  0
 24 34  1  0  0  0  0
 24 35  1  0  0  0  0
 40 43  1  0  0  0  0
 40 44  1  0  0  0  0
 40 45  1  0  0  0  0
 11 14  1  0  0  0  0
 11 15  1  0  0  0  0
 11 16  1  0  0  0  0
 23 30  1  0  0  0  0
 23 31  1  0  0  0  0
 23 32  1  0  0  0  0
 47 49  1  0  0  0  0
 47 50  1  0  0  0  0
 47 51  1  0  0  0  0
 22 28  1  0  0  0  0
 22 29  1  0  0  0  0
 37 42  1  0  0  0  0
  8 13  1  0  0  0  0
 18 26  1  0  0  0  0
 21 27  1  0  0  0  0
 46 48  1  0  0  0  0
  7 12  1  0  0  0  0
 36 41  1  0  0  0  0
 17 25  1  0  0  0  0
M  END
$$$$

  -OEChem-05262214473D

 51 50  0     1  0  0  0  0  0999 V2000
    1.3524   -3.0009    1.4091 C   0  0  0  0  0  0  0  0  0  0  0  0
    1.8758   -1.9880    0.9598 O   0  0  0  0  0  0  0  0  0  0  0  0
    2.2030   -4.1782    1.7536 C   0  0  0  0  0  0  0  0  0  0  0  0
    2.3264   -4.8705    0.9053 H   0  0  0  0  0  0  0  0  0  0  0  0
    3.2257   -3.8876    2.0432 H   0  0  0  0  0  0  0  0  0  0  0  0
    1.8327   -4.8004    2.5839 H   0  0  0  0  0  0  0  0  0  0  0  0
    0.0005   -3.1873    1.6465 N   0  0  0  0  0  0  0  0  0  0  0  0
   -0.9949   -2.1807    1.3864 C   0  0  2  0  0  0  0  0  0  0  0  0
   -0.3083   -0.8216    1.4164 C   0  0  0  0  0  0  0  0  0  0  0  0
    0.7533   -0.6191    2.0022 O   0  0  0  0  0  0  0  0  0  0  0  0
   -2.1232   -2.2423    2.4042 C   0  0  0  0  0  0  0  0  0  0  0  0
   -0.3048   -4.0823    2.0245 H   0  0  0  0  0  0  0  0  0  0  0  0
   -1.3830   -2.3724    0.3801 H   0  0  0  0  0  0  0  0  0  0  0  0
   -1.7534   -2.0527    3.4185 H   0  0  0  0  0  0  0  0  0  0  0  0
   -2.8936   -1.4947    2.1882 H   0  0  0  0  0  0  0  0  0  0  0  0
   -2.5964   -3.2301    2.4022 H   0  0  0  0  0  0  0  0  0  0  0  0
   -1.0412    0.1517    0.7482 N   0  0  0  0  0  0  0  0  0  0  0  0
   -0.6079    1.5223    0.6467 C   0  0  2  0  0  0  0  0  0  0  0  0
   -0.8369    2.1955    1.9993 C   0  0  0  0  0  0  0  0  0  0  0  0
    0.0688    2.7147    2.6486 O   0  0  0  0  0  0  0  0  0  0  0  0
   -1.2851    2.2858   -0.5169 C   0  0  2  0  0  0  0  0  0  0  0  0
   -0.9318    1.6837   -1.8951 C   0  0  0  0  0  0  0  0  0  0  0  0
   -0.9347    3.7780   -0.4445 C   0  0  0  0  0  0  0  0  0  0  0  0
   -1.7806    2.2346   -3.0338 C   0  0  0  0  0  0  0  0  0  0  0  0
   -1.9022   -0.1128    0.2753 H   0  0  0  0  0  0  0  0  0  0  0  0
    0.4763    1.4827    0.4811 H   0  0  0  0  0  0  0  0  0  0  0  0
   -2.3726    2.2052   -0.3870 H   0  0  0  0  0  0  0  0  0  0  0  0
    0.1175    1.8959   -2.1305 H   0  0  0  0  0  0  0  0  0  0  0  0
   -1.0378    0.5926   -1.8742 H   0  0  0  0  0  0  0  0  0  0  0  0
    0.1428    3.9312   -0.5675 H   0  0  0  0  0  0  0  0  0  0  0  0
   -1.4310    4.3405   -1.2412 H   0  0  0  0  0  0  0  0  0  0  0  0
   -1.2329    4.2145    0.5142 H   0  0  0  0  0  0  0  0  0  0  0  0
   -2.8463    2.0570   -2.8643 H   0  0  0  0  0  0  0  0  0  0  0  0
   -1.5107    1.7420   -3.9737 H   0  0  0  0  0  0  0  0  0  0  0  0
   -1.6215    3.3103   -3.1583 H   0  0  0  0  0  0  0  0  0  0  0  0
   -2.1725    2.1753    2.3750 N   0  0  0  0  0  0  0  0  0  0  0  0
   -2.6601    2.7629    3.6020 C   0  0  2  0  0  0  0  0  0  0  0  0
   -4.1166    3.1541    3.3899 C   0  0  0  0  0  0  0  0  0  0  0  0
   -4.6024    3.3540    2.2786 O   0  0  0  0  0  0  0  0  0  0  0  0
   -1.8269    3.9689    4.0073 C   0  0  0  0  0  0  0  0  0  0  0  0
   -2.8409    1.7251    1.7568 H   0  0  0  0  0  0  0  0  0  0  0  0
   -2.5984    1.9855    4.3713 H   0  0  0  0  0  0  0  0  0  0  0  0
   -1.8764    4.7585    3.2486 H   0  0  0  0  0  0  0  0  0  0  0  0
   -2.1798    4.3956    4.9519 H   0  0  0  0  0  0  0  0  0  0  0  0
   -0.7743    3.6918    4.1304 H   0  0  0  0  0  0  0  0  0  0  0  0
   -4.7991    3.2957    4.5900 N   0  0  0  0  0  0  0  0  0  0  0  0
   -6.1915    3.6736    4.6552 C   0  0  0  0  0  0  0  0  0  0  0  0
   -4.3220    3.0914    5.4632 H   0  0  0  0  0  0  0  0  0  0  0  0
   -6.2712    4.7661    4.7551 H   0  0  0  0  0  0  0  0  0  0  0  0
   -6.7022    3.3513    3.7358 H   0  0  0  0  0  0  0  0  0  0  0  0
   -6.6620    3.1908    5.5244 H   0  0  0  0  0  0  0  0  0  0  0  0
  1  3  1  0  0  0  0
  1  7  1  0  0  0  0
  1  2  2  0  0  0  0
 37 38  1  0  0  0  0
 38 46  1  0  0  0  0
 38 39  2  0  0  0  0
  8  9  1  0  0  0  0
  9 17  1  0  0  0  0
  9 10  2  0  0  0  0
 18 19  1  0  0  0  0
 19 36  1  0  0  0  0
 19 20  2  0  0  0  0
 22 24  1  0  0  0  0
 37 40  1  0  0  0  0
  8 11  1  0  0  0  0
 21 23  1  0  0  0  0
 46 47  1  0  0  0  0
 21 22  1  0  0  0  0
 36 37  1  0  0  0  0
  7  8  1  0  0  0  0
 18 21  1  0  0  0  0
 17 18  1  0  0  0  0
  3  4  1  0  0  0  0
  3  5  1  0  0  0  0
  3  6  1  0  0  0  0
 24 33  1  0  0  0  0
 24 34  1  0  0  0  0
 24 35  1  0  0  0  0
 40 43  1  0  0  0  0
 40 44  1  0  0  0  0
 40 45  1  0  0  0  0
 11 14  1  0  0  0  0
 11 15  1  0  0  0  0
 11 16  1  0  0  0  0
 23 30  1  0  0  0  0
 23 31  1  0  0  0  0
 23 32  1  0  0  0  0
 47 49  1  0  0  0  0
 47 50  1  0  0  0  0
 47 51  1  0  0  0  0
 22 28  1  0  0  0  0
 22 29  1  0  0  0  0
 37 42  1  0  0  0  0
  8 13  1  0  0  0  0
 18 26  1  0  0  0  0
 21 27  1  0  0  0  0
 46 48  1  0  0  0  0
  7 12  1  0  0  0  0
 36 41  1  0  0  0  0
 17 25  1  0  0  0  0
M  END
$$$$

  -OEChem-05262214473D

 51 50  0     1  0  0  0  0  0999 V2000
    1.3524   -3.0009    1.4091 C   0  0  0  0  0  0  0  0  0  0  0  0
    1.8758   -1.9880    0.9598 O   0  0  0  0  0  0  0  0  0  0  0  0
    2.2030   -4.1782    1.7536 C   0  0  0  0  0  0  0  0  0  0  0  0
    2.3264   -4.8705    0.9053 H   0  0  0  0  0  0  0  0  0  0  0  0
    3.2257   -3.8876    2.0432 H   0  0  0  0  0  0  0  0  0  0  0  0
    1.8327   -4.8004    2.5839 H   0  0  0  0  0  0  0  0  0  0  0  0
    0.0005   -3.1873    1.6465 N   0  0  0  0  0  0  0  0  0  0  0  0
   -0.9949   -2.1807    1.3864 C   0  0  2  0  0  0  0  0  0  0  0  0
   -0.3083   -0.8216    1.4164 C   0  0  0  0  0  0  0  0  0  0  0  0
    0.7533   -0.6191    2.0022 O   0  0  0  0  0  0  0  0  0  0  0  0
   -2.1232   -2.2423    2.4042 C   0  0  0  0  0  0  0  0  0  0  0  0
   -0.3048   -4.0823    2.0245 H   0  0  0  0  0  0  0  0  0  0  0  0
   -1.3830   -2.3724    0.3801 H   0  0  0  0  0  0  0  0  0  0  0  0
   -1.7534   -2.0527    3.4185 H   0  0  0  0  0  0  0  0  0  0  0  0
   -2.8936   -1.4947    2.1882 H   0  0  0  0  0  0  0  0  0  0  0  0
   -2.5964   -3.2301    2.4022 H   0  0  0  0  0  0  0  0  0  0  0  0
   -1.0412    0.1517    0.7482 N   0  0  0  0  0  0  0  0  0  0  0  0
   -0.6079    1.5223    0.6467 C   0  0  2  0  0  0  0  0  0  0  0  0
   -0.8369    2.1955    1.9993 C   0  0  0  0  0  0  0  0  0  0  0  0
   -0.0104    2.9397    2.5233 O   0  0  0  0  0  0  0  0  0  0  0  0
   -1.2851    2.2858   -0.5169 C   0  0  2  0  0  0  0  0  0  0  0  0
   -0.9318    1.6837   -1.8951 C   0  0  0  0  0  0  0  0  0  0  0  0
   -0.9347    3.7780   -0.4445 C   0  0  0  0  0  0  0  0  0  0  0  0
   -1.7806    2.2346   -3.0338 C   0  0  0  0  0  0  0  0  0  0  0  0
   -1.9022   -0.1128    0.2753 H   0  0  0  0  0  0  0  0  0  0  0  0
    0.4763    1.4827    0.4811 H   0  0  0  0  0  0  0  0  0  0  0  0
   -2.3726    2.2052   -0.3870 H   0  0  0  0  0  0  0  0  0  0  0  0
    0.1175    1.8959   -2.1305 H   0  0  0  0  0  0  0  0  0  0  0  0
   -1.0378    0.5926   -1.8742 H   0  0  0  0  0  0  0  0  0  0  0  0
    0.1428    3.9312   -0.5675 H   0  0  0  0  0  0  0  0  0  0  0  0
   -1.4310    4.3405   -1.2412 H   0  0  0  0  0  0  0  0  0  0  0  0
   -1.2329    4.2145    0.5142 H   0  0  0  0  0  0  0  0  0  0  0  0
   -2.8463    2.0570   -2.8643 H   0  0  0  0  0  0  0  0  0  0  0  0
   -1.5107    1.7420   -3.9737 H   0  0  0  0  0  0  0  0  0  0  0  0
   -1.6215    3.3103   -3.1583 H   0  0  0  0  0  0  0  0  0  0  0  0
   -2.0822    1.8925    2.5311 N   0  0  0  0  0  0  0  0  0  0  0  0
   -2.5551    2.4172    3.7919 C   0  0  2  0  0  0  0  0  0  0  0  0
   -4.0768    2.4562    3.7440 C   0  0  0  0  0  0  0  0  0  0  0  0
   -4.7144    2.4825    2.6933 O   0  0  0  0  0  0  0  0  0  0  0  0
   -1.9843    3.8001    4.0646 C   0  0  0  0  0  0  0  0  0  0  0  0
   -2.6918    1.2708    2.0081 H   0  0  0  0  0  0  0  0  0  0  0  0
   -2.2314    1.7152    4.5680 H   0  0  0  0  0  0  0  0  0  0  0  0
   -2.2979    4.5173    3.2973 H   0  0  0  0  0  0  0  0  0  0  0  0
   -2.3208    4.1843    5.0332 H   0  0  0  0  0  0  0  0  0  0  0  0
   -0.8892    3.7758    4.0691 H   0  0  0  0  0  0  0  0  0  0  0  0
   -4.6379    2.5016    5.0126 N   0  0  0  0  0  0  0  0  0  0  0  0
   -6.0643    2.5566    5.2327 C   0  0  0  0  0  0  0  0  0  0  0  0
   -4.0339    2.4565    5.8280 H   0  0  0  0  0  0  0  0  0  0  0  0
   -6.3831    3.6063    5.3134 H   0  0  0  0  0  0  0  0  0  0  0  0
   -6.5840    2.0795    4.3888 H   0  0  0  0  0  0  0  0  0  0  0  0
   -6.3122    2.0256    6.1636 H   0  0  0  0  0  0  0  0  0  0  0  0
  1  3  1  0  0  0  0
  1  7  1  0  0  0  0
  1  2  2  0  0  0  0
 37 38  1  0  0  0  0
 38 46  1  0  0  0  0
 38 39  2  0  0  0  0
  8  9  1  0  0  0  0
  9 17  1  0  0  0  0
  9 10  2  0  0  0  0
 18 19  1  0  0  0  0
 19 36  1  0  0  0  0
 19 20  2  0  0  0  0
 22 24  1  0  0  0  0
 37 40  1  0  0  0  0
  8 11  1  0  0  0  0
 21 23  1  0  0  0  0
 46 47  1  0  0  0  0
 21 22  1  0  0  0  0
 36 37  1  0  0  0  0
  7  8  1  0  0  0  0
 18 21  1  0  0  0  0
 17 18  1  0  0  0  0
  3  4  1  0  0  0  0
  3  5  1  0  0  0  0
  3  6  1  0  0  0  0
 24 33  1  0  0  0  0
 24 34  1  0  0  0  0
 24 35  1  0  0  0  0
 40 43  1  0  0  0  0
 40 44  1  0  0  0  0
 40 45  1  0  0  0  0
 11 14  1  0  0  0  0
 11 15  1  0  0  0  0
 11 16  1  0  0  0  0
 23 30  1  0  0  0  0
 23 31  1  0  0  0  0
 23 32  1  0  0  0  0
 47 49  1  0  0  0  0
 47 50  1  0  0  0  0
 47 51  1  0  0  0  0
 22 28  1  0  0  0  0
 22 29  1  0  0  0  0
 37 42  1  0  0  0  0
  8 13  1  0  0  0  0
 18 26  1  0  0  0  0
 21 27  1  0  0  0  0
 46 48  1  0  0  0  0
  7 12  1  0  0  0  0
 36 41  1  0  0  0  0
 17 25  1  0  0  0  0
M  END
$$$$

  -OEChem-05262214473D

 51 50  0     1  0  0  0  0  0999 V2000
    1.3524   -3.0009    1.4091 C   0  0  0  0  0  0  0  0  0  0  0  0
    1.8758   -1.9880    0.9598 O   0  0  0  0  0  0  0  0  0  0  0  0
    2.2030   -4.1782    1.7536 C   0  0  0  0  0  0  0  0  0  0  0  0
    2.3264   -4.8705    0.9053 H   0  0  0  0  0  0  0  0  0  0  0  0
    3.2257   -3.8876    2.0432 H   0  0  0  0  0  0  0  0  0  0  0  0
    1.8327   -4.8004    2.5839 H   0  0  0  0  0  0  0  0  0  0  0  0
    0.0005   -3.1873    1.6465 N   0  0  0  0  0  0  0  0  0  0  0  0
   -0.9949   -2.1807    1.3864 C   0  0  2  0  0  0  0  0  0  0  0  0
   -0.3083   -0.8216    1.4164 C   0  0  0  0  0  0  0  0  0  0  0  0
    0.7533   -0.6191    2.0022 O   0  0  0  0  0  0  0  0  0  0  0  0
   -2.1232   -2.2423    2.4042 C   0  0  0  0  0  0  0  0  0  0  0  0
   -0.3048   -4.0823    2.0245 H   0  0  0  0  0  0  0  0  0  0  0  0
   -1.3830   -2.3724    0.3801 H   0  0  0  0  0  0  0  0  0  0  0  0
   -1.7534   -2.0527    3.4185 H   0  0  0  0  0  0  0  0  0  0  0  0
   -2.8936   -1.4947    2.1882 H   0  0  0  0  0  0  0  0  0  0  0  0
   -2.5964   -3.2301    2.4022 H   0  0  0  0  0  0  0  0  0  0  0  0
   -1.0412    0.1517    0.7482 N   0  0  0  0  0  0  0  0  0  0  0  0
   -0.6079    1.5223    0.6467 C   0  0  2  0  0  0  0  0  0  0  0  0
   -0.8369    2.1955    1.9993 C   0  0  0  0  0  0  0  0  0  0  0  0
   -0.1527    3.1341    2.4024 O   0  0  0  0  0  0  0  0  0  0  0  0
   -1.2851    2.2858   -0.5169 C   0  0  2  0  0  0  0  0  0  0  0  0
   -0.9318    1.6837   -1.8951 C   0  0  0  0  0  0  0  0  0  0  0  0
   -0.9347    3.7780   -0.4445 C   0  0  0  0  0  0  0  0  0  0  0  0
   -1.7806    2.2346   -3.0338 C   0  0  0  0  0  0  0  0  0  0  0  0
   -1.9022   -0.1128    0.2753 H   0  0  0  0  0  0  0  0  0  0  0  0
    0.4763    1.4827    0.4811 H   0  0  0  0  0  0  0  0  0  0  0  0
   -2.3726    2.2052   -0.3870 H   0  0  0  0  0  0  0  0  0  0  0  0
    0.1175    1.8959   -2.1305 H   0  0  0  0  0  0  0  0  0  0  0  0
   -1.0378    0.5926   -1.8742 H   0  0  0  0  0  0  0  0  0  0  0  0
    0.1428    3.9312   -0.5675 H   0  0  0  0  0  0  0  0  0  0  0  0
   -1.4310    4.3405   -1.2412 H   0  0  0  0  0  0  0  0  0  0  0  0
   -1.2329    4.2145    0.5142 H   0  0  0  0  0  0  0  0  0  0  0  0
   -2.8463    2.0570   -2.8643 H   0  0  0  0  0  0  0  0  0  0  0  0
   -1.5107    1.7420   -3.9737 H   0  0  0  0  0  0  0  0  0  0  0  0
   -1.6215    3.3103   -3.1583 H   0  0  0  0  0  0  0  0  0  0  0  0
   -1.9124    1.6460    2.6825 N   0  0  0  0  0  0  0  0  0  0  0  0
   -2.3529    2.1147    3.9767 C   0  0  2  0  0  0  0  0  0  0  0  0
   -3.8382    1.8049    4.1085 C   0  0  0  0  0  0  0  0  0  0  0  0
   -4.5757    1.6312    3.1406 O   0  0  0  0  0  0  0  0  0  0  0  0
   -2.0911    3.6033    4.1445 C   0  0  0  0  0  0  0  0  0  0  0  0
   -2.4152    0.8758    2.2515 H   0  0  0  0  0  0  0  0  0  0  0  0
   -1.7925    1.5458    4.7266 H   0  0  0  0  0  0  0  0  0  0  0  0
   -2.6442    4.1897    3.4017 H   0  0  0  0  0  0  0  0  0  0  0  0
   -2.3992    3.9510    5.1361 H   0  0  0  0  0  0  0  0  0  0  0  0
   -1.0264    3.8283    4.0198 H   0  0  0  0  0  0  0  0  0  0  0  0
   -4.2521    1.7878    5.4331 N   0  0  0  0  0  0  0  0  0  0  0  0
   -5.6196    1.5292    5.8193 C   0  0  0  0  0  0  0  0  0  0  0  0
   -3.5685    1.9235    6.1720 H   0  0  0  0  0  0  0  0  0  0  0  0
   -6.1618    2.4820    5.9104 H   0  0  0  0  0  0  0  0  0  0  0  0
   -6.1041    0.9034    5.0554 H   0  0  0  0  0  0  0  0  0  0  0  0
   -5.6346    1.0050    6.7862 H   0  0  0  0  0  0  0  0  0  0  0  0
  1  3  1  0  0  0  0
  1  7  1  0  0  0  0
  1  2  2  0  0  0  0
 37 38  1  0  0  0  0
 38 46  1  0  0  0  0
 38 39  2  0  0  0  0
  8  9  1  0  0  0  0
  9 17  1  0  0  0  0
  9 10  2  0  0  0  0
 18 19  1  0  0  0  0
 19 36  1  0  0  0  0
 19 20  2  0  0  0  0
 22 24  1  0  0  0  0
 37 40  1  0  0  0  0
  8 11  1  0  0  0  0
 21 23  1  0  0  0  0
 46 47  1  0  0  0  0
 21 22  1  0  0  0  0
 36 37  1  0  0  0  0
  7  8  1  0  0  0  0
 18 21  1  0  0  0  0
 17 18  1  0  0  0  0
  3  4  1  0  0  0  0
  3  5  1  0  0  0  0
  3  6  1  0  0  0  0
 24 33  1  0  0  0  0
 24 34  1  0  0  0  0
 24 35  1  0  0  0  0
 40 43  1  0  0  0  0
 40 44  1  0  0  0  0
 40 45  1  0  0  0  0
 11 14  1  0  0  0  0
 11 15  1  0  0  0  0
 11 16  1  0  0  0  0
 23 30  1  0  0  0  0
 23 31  1  0  0  0  0
 23 32  1  0  0  0  0
 47 49  1  0  0  0  0
 47 50  1  0  0  0  0
 47 51  1  0  0  0  0
 22 28  1  0  0  0  0
 22 29  1  0  0  0  0
 37 42  1  0  0  0  0
  8 13  1  0  0  0  0
 18 26  1  0  0  0  0
 21 27  1  0  0  0  0
 46 48  1  0  0  0  0
  7 12  1  0  0  0  0
 36 41  1  0  0  0  0
 17 25  1  0  0  0  0
M  END
$$$$

  -OEChem-05262214473D

 51 50  0     1  0  0  0  0  0999 V2000
    1.3524   -3.0009    1.4091 C   0  0  0  0  0  0  0  0  0  0  0  0
    1.8758   -1.9880    0.9598 O   0  0  0  0  0  0  0  0  0  0  0  0
    2.2030   -4.1782    1.7536 C   0  0  0  0  0  0  0  0  0  0  0  0
    2.3264   -4.8705    0.9053 H   0  0  0  0  0  0  0  0  0  0  0  0
    3.2257   -3.8876    2.0432 H   0  0  0  0  0  0  0  0  0  0  0  0
    1.8327   -4.8004    2.5839 H   0  0  0  0  0  0  0  0  0  0  0  0
    0.0005   -3.1873    1.6465 N   0  0  0  0  0  0  0  0  0  0  0  0
   -0.9949   -2.1807    1.3864 C   0  0  2  0  0  0  0  0  0  0  0  0
   -0.3083   -0.8216    1.4164 C   0  0  0  0  0  0  0  0  0  0  0  0
    0.7533   -0.6191    2.0022 O   0  0  0  0  0  0  0  0  0  0  0  0
   -2.1232   -2.2423    2.4042 C   0  0  0  0  0  0  0  0  0  0  0  0
   -0.3048   -4.0823    2.0245 H   0  0  0  0  0  0  0  0  0  0  0  0
   -1.3830   -2.3724    0.3801 H   0  0  0  0  0  0  0  0  0  0  0  0
   -1.7534   -2.0527    3.4185 H   0  0  0  0  0  0  0  0  0  0  0  0
   -2.8936   -1.4947    2.1882 H   0  0  0  0  0  0  0  0  0  0  0  0
   -2.5964   -3.2301    2.4022 H   0  0  0  0  0  0  0  0  0  0  0  0
   -1.0412    0.1517    0.7482 N   0  0  0  0  0  0  0  0  0  0  0  0
   -0.6079    1.5223    0.6467 C   0  0  2  0  0  0  0  0  0  0  0  0
   -0.8369    2.1955    1.9993 C   0  0  0  0  0  0  0  0  0  0  0  0
   -0.3485    3.2845    2.2944 O   0  0  0  0  0  0  0  0  0  0  0  0
   -1.2851    2.2858   -0.5169 C   0  0  2  0  0  0  0  0  0  0  0  0
   -0.9318    1.6837   -1.8951 C   0  0  0  0  0  0  0  0  0  0  0  0
   -0.9347    3.7780   -0.4445 C   0  0  0  0  0  0  0  0  0  0  0  0
   -1.7806    2.2346   -3.0338 C   0  0  0  0  0  0  0  0  0  0  0  0
   -1.9022   -0.1128    0.2753 H   0  0  0  0  0  0  0  0  0  0  0  0
    0.4763    1.4827    0.4811 H   0  0  0  0  0  0  0  0  0  0  0  0
   -2.3726    2.2052   -0.3870 H   0  0  0  0  0  0  0  0  0  0  0  0
    0.1175    1.8959   -2.1305 H   0  0  0  0  0  0  0  0  0  0  0  0
   -1.0378    0.5926   -1.8742 H   0  0  0  0  0  0  0  0  0  0  0  0
    0.1428    3.9312   -0.5675 H   0  0  0  0  0  0  0  0  0  0  0  0
   -1.4310    4.3405   -1.2412 H   0  0  0  0  0  0  0  0  0  0  0  0
   -1.2329    4.2145    0.5142 H   0  0  0  0  0  0  0  0  0  0  0  0
   -2.8463    2.0570   -2.8643 H   0  0  0  0  0  0  0  0  0  0  0  0
   -1.5107    1.7420   -3.9737 H   0  0  0  0  0  0  0  0  0  0  0  0
   -1.6215    3.3103   -3.1583 H   0  0  0  0  0  0  0  0  0  0  0  0
   -1.6746    1.4526    2.8190 N   0  0  0  0  0  0  0  0  0  0  0  0
   -2.0671    1.8760    4.1438 C   0  0  2  0  0  0  0  0  0  0  0  0
   -3.4169    1.2446    4.4587 C   0  0  0  0  0  0  0  0  0  0  0  0
   -4.1956    0.8580    3.5897 O   0  0  0  0  0  0  0  0  0  0  0  0
   -2.1401    3.3918    4.2415 C   0  0  0  0  0  0  0  0  0  0  0  0
   -2.0297    0.5672    2.4704 H   0  0  0  0  0  0  0  0  0  0  0  0
   -1.3118    1.4888    4.8363 H   0  0  0  0  0  0  0  0  0  0  0  0
   -2.8918    3.7980    3.5548 H   0  0  0  0  0  0  0  0  0  0  0  0
   -2.4098    3.7117    5.2534 H   0  0  0  0  0  0  0  0  0  0  0  0
   -1.1766    3.8457    3.9857 H   0  0  0  0  0  0  0  0  0  0  0  0
   -3.6680    1.2030    5.8230 N   0  0  0  0  0  0  0  0  0  0  0  0
   -4.8879    0.6615    6.3750 C   0  0  0  0  0  0  0  0  0  0  0  0
   -2.9577    1.5285    6.4720 H   0  0  0  0  0  0  0  0  0  0  0  0
   -5.6225    1.4698    6.5055 H   0  0  0  0  0  0  0  0  0  0  0  0
   -5.2951   -0.0969    5.6901 H   0  0  0  0  0  0  0  0  0  0  0  0
   -4.6752    0.1986    7.3500 H   0  0  0  0  0  0  0  0  0  0  0  0
  1  3  1  0  0  0  0
  1  7  1  0  0  0  0
  1  2  2  0  0  0  0
 37 38  1  0  0  0  0
 38 46  1  0  0  0  0
 38 39  2  0  0  0  0
  8  9  1  0  0  0  0
  9 17  1  0  0  0  0
  9 10  2  0  0  0  0
 18 19  1  0  0  0  0
 19 36  1  0  0  0  0
 19 20  2  0  0  0  0
 22 24  1  0  0  0  0
 37 40  1  0  0  0  0
  8 11  1  0  0  0  0
 21 23  1  0  0  0  0
 46 47  1  0  0  0  0
 21 22  1  0  0  0  0
 36 37  1  0  0  0  0
  7  8  1  0  0  0  0
 18 21  1  0  0  0  0
 17 18  1  0  0  0  0
  3  4  1  0  0  0  0
  3  5  1  0  0  0  0
  3  6  1  0  0  0  0
 24 33  1  0  0  0  0
 24 34  1  0  0  0  0
 24 35  1  0  0  0  0
 40 43  1  0  0  0  0
 40 44  1  0  0  0  0
 40 45  1  0  0  0  0
 11 14  1  0  0  0  0
 11 15  1  0  0  0  0
 11 16  1  0  0  0  0
 23 30  1  0  0  0  0
 23 31  1  0  0  0  0
 23 32  1  0  0  0  0
 47 49  1  0  0  0  0
 47 50  1  0  0  0  0
 47 51  1  0  0  0  0
 22 28  1  0  0  0  0
 22 29  1  0  0  0  0
 37 42  1  0  0  0  0
  8 13  1  0  0  0  0
 18 26  1  0  0  0  0
 21 27  1  0  0  0  0
 46 48  1  0  0  0  0
  7 12  1  0  0  0  0
 36 41  1  0  0  0  0
 17 25  1  0  0  0  0
M  END
$$$$

  -OEChem-05262214473D

 51 50  0     1  0  0  0  0  0999 V2000
    1.3524   -3.0009    1.4091 C   0  0  0  0  0  0  0  0  0  0  0  0
    1.8758   -1.9880    0.9598 O   0  0  0  0  0  0  0  0  0  0  0  0
    2.2030   -4.1782    1.7536 C   0  0  0  0  0  0  0  0  0  0  0  0
    2.3264   -4.8705    0.9053 H   0  0  0  0  0  0  0  0  0  0  0  0
    3.2257   -3.8876    2.0432 H   0  0  0  0  0  0  0  0  0  0  0  0
    1.8327   -4.8004    2.5839 H   0  0  0  0  0  0  0  0  0  0  0  0
    0.0005   -3.1873    1.6465 N   0  0  0  0  0  0  0  0  0  0  0  0
   -0.9949   -2.1807    1.3864 C   0  0  2  0  0  0  0  0  0  0  0  0
   -0.3083   -0.8216    1.4164 C   0  0  0  0  0  0  0  0  0  0  0  0
    0.7533   -0.6191    2.0022 O   0  0  0  0  0  0  0  0  0  0  0  0
   -2.1232   -2.2423    2.4042 C   0  0  0  0  0  0  0  0  0  0  0  0
   -0.3048   -4.0823    2.0245 H   0  0  0  0  0  0  0  0  0  0  0  0
   -1.3830   -2.3724    0.3801 H   0  0  0  0  0  0  0  0  0  0  0  0
   -1.7534   -2.0527    3.4185 H   0  0  0  0  0  0  0  0  0  0  0  0
   -2.8936   -1.4947    2.1882 H   0  0  0  0  0  0  0  0  0  0  0  0
   -2.5964   -3.2301    2.4022 H   0  0  0  0  0  0  0  0  0  0  0  0
   -1.0412    0.1517    0.7482 N   0  0  0  0  0  0  0  0  0  0  0  0
   -0.6079    1.5223    0.6467 C   0  0  2  0  0  0  0  0  0  0  0  0
   -0.8369    2.1955    1.9993 C   0  0  0  0  0  0  0  0  0  0  0  0
   -0.5843    3.3807    2.2066 O   0  0  0  0  0  0  0  0  0  0  0  0
   -1.2851    2.2858   -0.5169 C   0  0  2  0  0  0  0  0  0  0  0  0
   -0.9318    1.6837   -1.8951 C   0  0  0  0  0  0  0  0  0  0  0  0
   -0.9347    3.7780   -0.4445 C   0  0  0  0  0  0  0  0  0  0  0  0
   -1.7806    2.2346   -3.0338 C   0  0  0  0  0  0  0  0  0  0  0  0
   -1.9022   -0.1128    0.2753 H   0  0  0  0  0  0  0  0  0  0  0  0
    0.4763    1.4827    0.4811 H   0  0  0  0  0  0  0  0  0  0  0  0
   -2.3726    2.2052   -0.3870 H   0  0  0  0  0  0  0  0  0  0  0  0
    0.1175    1.8959   -2.1305 H   0  0  0  0  0  0  0  0  0  0  0  0
   -1.0378    0.5926   -1.8742 H   0  0  0  0  0  0  0  0  0  0  0  0
    0.1428    3.9312   -0.5675 H   0  0  0  0  0  0  0  0  0  0  0  0
   -1.4310    4.3405   -1.2412 H   0  0  0  0  0  0  0  0  0  0  0  0
   -1.2329    4.2145    0.5142 H   0  0  0  0  0  0  0  0  0  0  0  0
   -2.8463    2.0570   -2.8643 H   0  0  0  0  0  0  0  0  0  0  0  0
   -1.5107    1.7420   -3.9737 H   0  0  0  0  0  0  0  0  0  0  0  0
   -1.6215    3.3103   -3.1583 H   0  0  0  0  0  0  0  0  0  0  0  0
   -1.3851    1.3257    2.9312 N   0  0  0  0  0  0  0  0  0  0  0  0
   -1.7174    1.7173    4.2820 C   0  0  2  0  0  0  0  0  0  0  0  0
   -2.8416    0.8135    4.7706 C   0  0  0  0  0  0  0  0  0  0  0  0
   -3.6002    0.2156    4.0102 O   0  0  0  0  0  0  0  0  0  0  0  0
   -2.1280    3.1801    4.3489 C   0  0  0  0  0  0  0  0  0  0  0  0
   -1.5617    0.3658    2.6498 H   0  0  0  0  0  0  0  0  0  0  0  0
   -0.8218    1.5482    4.8897 H   0  0  0  0  0  0  0  0  0  0  0  0
   -3.0237    3.3688    3.7460 H   0  0  0  0  0  0  0  0  0  0  0  0
   -2.3518    3.4827    5.3772 H   0  0  0  0  0  0  0  0  0  0  0  0
   -1.3295    3.8267    3.9693 H   0  0  0  0  0  0  0  0  0  0  0  0
   -2.9254    0.7871    6.1557 N   0  0  0  0  0  0  0  0  0  0  0  0
   -3.9189    0.0125    6.8620 C   0  0  0  0  0  0  0  0  0  0  0  0
   -2.2430    1.2986    6.7074 H   0  0  0  0  0  0  0  0  0  0  0  0
   -4.8017    0.6388    7.0580 H   0  0  0  0  0  0  0  0  0  0  0  0
   -4.2121   -0.8531    6.2498 H   0  0  0  0  0  0  0  0  0  0  0  0
   -3.4994   -0.3386    7.8164 H   0  0  0  0  0  0  0  0  0  0  0  0
  1  3  1  0  0  0  0
  1  7  1  0  0  0  0
  1  2  2  0  0  0  0
 37 38  1  0  0  0  0
 38 46  1  0  0  0  0
 38 39  2  0  0  0  0
  8  9  1  0  0  0  0
  9 17  1  0  0  0  0
  9 10  2  0  0  0  0
 18 19  1  0  0  0  0
 19 36  1  0  0  0  0
 19 20  2  0  0  0  0
 22 24  1  0  0  0  0
 37 40  1  0  0  0  0
  8 11  1  0  0  0  0
 21 23  1  0  0  0  0
 46 47  1  0  0  0  0
 21 22  1  0  0  0  0
 36 37  1  0  0  0  0
  7  8  1  0  0  0  0
 18 21  1  0  0  0  0
 17 18  1  0  0  0  0
  3  4  1  0  0  0  0
  3  5  1  0  0  0  0
  3  6  1  0  0  0  0
 24 33  1  0  0  0  0
 24 34  1  0  0  0  0
 24 35  1  0  0  0  0
 40 43  1  0  0  0  0
 40 44  1  0  0  0  0
 40 45  1  0  0  0  0
 11 14  1  0  0  0  0
 11 15  1  0  0  0  0
 11 16  1  0  0  0  0
 23 30  1  0  0  0  0
 23 31  1  0  0  0  0
 23 32  1  0  0  0  0
 47 49  1  0  0  0  0
 47 50  1  0  0  0  0
 47 51  1  0  0  0  0
 22 28  1  0  0  0  0
 22 29  1  0  0  0  0
 37 42  1  0  0  0  0
  8 13  1  0  0  0  0
 18 26  1  0  0  0  0
 21 27  1  0  0  0  0
 46 48  1  0  0  0  0
  7 12  1  0  0  0  0
 36 41  1  0  0  0  0
 17 25  1  0  0  0  0
M  END
$$$$

  -OEChem-05262214473D

 51 50  0     1  0  0  0  0  0999 V2000
    1.3524   -3.0009    1.4091 C   0  0  0  0  0  0  0  0  0  0  0  0
    1.8758   -1.9880    0.9598 O   0  0  0  0  0  0  0  0  0  0  0  0
    2.2030   -4.1782    1.7536 C   0  0  0  0  0  0  0  0  0  0  0  0
    2.3264   -4.8705    0.9053 H   0  0  0  0  0  0  0  0  0  0  0  0
    3.2257   -3.8876    2.0432 H   0  0  0  0  0  0  0  0  0  0  0  0
    1.8327   -4.8004    2.5839 H   0  0  0  0  0  0  0  0  0  0  0  0
    0.0005   -3.1873    1.6465 N   0  0  0  0  0  0  0  0  0  0  0  0
   -0.9949   -2.1807    1.3864 C   0  0  2  0  0  0  0  0  0  0  0  0
   -0.3083   -0.8216    1.4164 C   0  0  0  0  0  0  0  0  0  0  0  0
    0.7533   -0.6191    2.0022 O   0  0  0  0  0  0  0  0  0  0  0  0
   -2.1232   -2.2423    2.4042 C   0  0  0  0  0  0  0  0  0  0  0  0
   -0.3048   -4.0823    2.0245 H   0  0  0  0  0  0  0  0  0  0  0  0
   -1.3830   -2.3724    0.3801 H   0  0  0  0  0  0  0  0  0  0  0  0
   -1.7534   -2.0527    3.4185 H   0  0  0  0  0  0  0  0  0  0  0  0
   -2.8936   -1.4947    2.1882 H   0  0  0  0  0  0  0  0  0  0  0  0
   -2.5964   -3.2301    2.4022 H   0  0  0  0  0  0  0  0  0  0  0  0
   -1.0412    0.1517    0.7482 N   0  0  0  0  0  0  0  0  0  0  0  0
   -0.6079    1.5223    0.6467 C   0  0  2  0  0  0  0  0  0  0  0  0
   -0.8369    2.1955    1.9993 C   0  0  0  0  0  0  0  0  0  0  0  0
   -0.8442    3.4163    2.1449 O   0  0  0  0  0  0  0  0  0  0  0  0
   -1.2851    2.2858   -0.5169 C   0  0  2  0  0  0  0  0  0  0  0  0
   -0.9318    1.6837   -1.8951 C   0  0  0  0  0  0  0  0  0  0  0  0
   -0.9347    3.7780   -0.4445 C   0  0  0  0  0  0  0  0  0  0  0  0
   -1.7806    2.2346   -3.0338 C   0  0  0  0  0  0  0  0  0  0  0  0
   -1.9022   -0.1128    0.2753 H   0  0  0  0  0  0  0  0  0  0  0  0
    0.4763    1.4827    0.4811 H   0  0  0  0  0  0  0  0  0  0  0  0
   -2.3726    2.2052   -0.3870 H   0  0  0  0  0  0  0  0  0  0  0  0
    0.1175    1.8959   -2.1305 H   0  0  0  0  0  0  0  0  0  0  0  0
   -1.0378    0.5926   -1.8742 H   0  0  0  0  0  0  0  0  0  0  0  0
    0.1428    3.9312   -0.5675 H   0  0  0  0  0  0  0  0  0  0  0  0
   -1.4310    4.3405   -1.2412 H   0  0  0  0  0  0  0  0  0  0  0  0
   -1.2329    4.2145    0.5142 H   0  0  0  0  0  0  0  0  0  0  0  0
   -2.8463    2.0570   -2.8643 H   0  0  0  0  0  0  0  0  0  0  0  0
   -1.5107    1.7420   -3.9737 H   0  0  0  0  0  0  0  0  0  0  0  0
   -1.6215    3.3103   -3.1583 H   0  0  0  0  0  0  0  0  0  0  0  0
   -1.0636    1.2737    3.0114 N   0  0  0  0  0  0  0  0  0  0  0  0
   -1.3275    1.6496    4.3817 C   0  0  2  0  0  0  0  0  0  0  0  0
   -2.1517    0.5410    5.0230 C   0  0  0  0  0  0  0  0  0  0  0  0
   -2.8299   -0.2521    4.3734 O   0  0  0  0  0  0  0  0  0  0  0  0
   -2.0554    2.9825    4.4595 C   0  0  0  0  0  0  0  0  0  0  0  0
   -1.0430    0.2855    2.7775 H   0  0  0  0  0  0  0  0  0  0  0  0
   -0.3560    1.7199    4.8831 H   0  0  0  0  0  0  0  0  0  0  0  0
   -3.0310    2.9315    3.9624 H   0  0  0  0  0  0  0  0  0  0  0  0
   -2.2293    3.2796    5.4990 H   0  0  0  0  0  0  0  0  0  0  0  0
   -1.4747    3.7727    3.9716 H   0  0  0  0  0  0  0  0  0  0  0  0
   -2.0749    0.5684    6.4085 N   0  0  0  0  0  0  0  0  0  0  0  0
   -2.7787   -0.3735    7.2472 C   0  0  0  0  0  0  0  0  0  0  0  0
   -1.4731    1.2494    6.8622 H   0  0  0  0  0  0  0  0  0  0  0  0
   -3.7556    0.0455    7.5304 H   0  0  0  0  0  0  0  0  0  0  0  0
   -2.9290   -1.3137    6.6963 H   0  0  0  0  0  0  0  0  0  0  0  0
   -2.1875   -0.5702    8.1537 H   0  0  0  0  0  0  0  0  0  0  0  0
  1  3  1  0  0  0  0
  1  7  1  0  0  0  0
  1  2  2  0  0  0  0
 37 38  1  0  0  0  0
 38 46  1  0  0  0  0
 38 39  2  0  0  0  0
  8  9  1  0  0  0  0
  9 17  1  0  0  0  0
  9 10  2  0  0  0  0
 18 19  1  0  0  0  0
 19 36  1  0  0  0  0
 19 20  2  0  0  0  0
 22 24  1  0  0  0  0
 37 40  1  0  0  0  0
  8 11  1  0  0  0  0
 21 23  1  0  0  0  0
 46 47  1  0  0  0  0
 21 22  1  0  0  0  0
 36 37  1  0  0  0  0
  7  8  1  0  0  0  0
 18 21  1  0  0  0  0
 17 18  1  0  0  0  0
  3  4  1  0  0  0  0
  3  5  1  0  0  0  0
  3  6  1  0  0  0  0
 24 33  1  0  0  0  0
 24 34  1  0  0  0  0
 24 35  1  0  0  0  0
 40 43  1  0  0  0  0
 40 44  1  0  0  0  0
 40 45  1  0  0  0  0
 11 14  1  0  0  0  0
 11 15  1  0  0  0  0
 11 16  1  0  0  0  0
 23 30  1  0  0  0  0
 23 31  1  0  0  0  0
 23 32  1  0  0  0  0
 47 49  1  0  0  0  0
 47 50  1  0  0  0  0
 47 51  1  0  0  0  0
 22 28  1  0  0  0  0
 22 29  1  0  0  0  0
 37 42  1  0  0  0  0
  8 13  1  0  0  0  0
 18 26  1  0  0  0  0
 21 27  1  0  0  0  0
 46 48  1  0  0  0  0
  7 12  1  0  0  0  0
 36 41  1  0  0  0  0
 17 25  1  0  0  0  0
M  END
$$$$

  -OEChem-05262214473D

 51 50  0     1  0  0  0  0  0999 V2000
    1.3524   -3.0009    1.4091 C   0  0  0  0  0  0  0  0  0  0  0  0
    1.8758   -1.9880    0.9598 O   0  0  0  0  0  0  0  0  0  0  0  0
    2.2030   -4.1782    1.7536 C   0  0  0  0  0  0  0  0  0  0  0  0
    2.3264   -4.8705    0.9053 H   0  0  0  0  0  0  0  0  0  0  0  0
    3.2257   -3.8876    2.0432 H   0  0  0  0  0  0  0  0  0  0  0  0
    1.8327   -4.8004    2.5839 H   0  0  0  0  0  0  0  0  0  0  0  0
    0.0005   -3.1873    1.6465 N   0  0  0  0  0  0  0  0  0  0  0  0
   -0.9949   -2.1807    1.3864 C   0  0  2  0  0  0  0  0  0  0  0  0
   -0.3083   -0.8216    1.4164 C   0  0  0  0  0  0  0  0  0  0  0  0
    0.7533   -0.6191    2.0022 O   0  0  0  0  0  0  0  0  0  0  0  0
   -2.1232   -2.2423    2.4042 C   0  0  0  0  0  0  0  0  0  0  0  0
   -0.3048   -4.0823    2.0245 H   0  0  0  0  0  0  0  0  0  0  0  0
   -1.3830   -2.3724    0.3801 H   0  0  0  0  0  0  0  0  0  0  0  0
   -1.7534   -2.0527    3.4185 H   0  0  0  0  0  0  0  0  0  0  0  0
   -2.8936   -1.4947    2.1882 H   0  0  0  0  0  0  0  0  0  0  0  0
   -2.5964   -3.2301    2.4022 H   0  0  0  0  0  0  0  0  0  0  0  0
   -1.0412    0.1517    0.7482 N   0  0  0  0  0  0  0  0  0  0  0  0
   -0.6079    1.5223    0.6467 C   0  0  2  0  0  0  0  0  0  0  0  0
   -0.8369    2.1955    1.9993 C   0  0  0  0  0  0  0  0  0  0  0  0
   -1.1104    3.3887    2.1136 O   0  0  0  0  0  0  0  0  0  0  0  0
   -1.2851    2.2858   -0.5169 C   0  0  2  0  0  0  0  0  0  0  0  0
   -0.9318    1.6837   -1.8951 C   0  0  0  0  0  0  0  0  0  0  0  0
   -0.9347    3.7780   -0.4445 C   0  0  0  0  0  0  0  0  0  0  0  0
   -1.7806    2.2346   -3.0338 C   0  0  0  0  0  0  0  0  0  0  0  0
   -1.9022   -0.1128    0.2753 H   0  0  0  0  0  0  0  0  0  0  0  0
    0.4763    1.4827    0.4811 H   0  0  0  0  0  0  0  0  0  0  0  0
   -2.3726    2.2052   -0.3870 H   0  0  0  0  0  0  0  0  0  0  0  0
    0.1175    1.8959   -2.1305 H   0  0  0  0  0  0  0  0  0  0  0  0
   -1.0378    0.5926   -1.8742 H   0  0  0  0  0  0  0  0  0  0  0  0
    0.1428    3.9312   -0.5675 H   0  0  0  0  0  0  0  0  0  0  0  0
   -1.4310    4.3405   -1.2412 H   0  0  0  0  0  0  0  0  0  0  0  0
   -1.2329    4.2145    0.5142 H   0  0  0  0  0  0  0  0  0  0  0  0
   -2.8463    2.0570   -2.8643 H   0  0  0  0  0  0  0  0  0  0  0  0
   -1.5107    1.7420   -3.9737 H   0  0  0  0  0  0  0  0  0  0  0  0
   -1.6215    3.3103   -3.1583 H   0  0  0  0  0  0  0  0  0  0  0  0
   -0.7320    1.3003    3.0543 N   0  0  0  0  0  0  0  0  0  0  0  0
   -0.9240    1.6773    4.4362 C   0  0  2  0  0  0  0  0  0  0  0  0
   -1.3940    0.4456    5.1988 C   0  0  0  0  0  0  0  0  0  0  0  0
   -1.9373   -0.5134    4.6545 O   0  0  0  0  0  0  0  0  0  0  0  0
   -1.9275    2.8126    4.5658 C   0  0  0  0  0  0  0  0  0  0  0  0
   -0.5091    0.3317    2.8449 H   0  0  0  0  0  0  0  0  0  0  0  0
    0.0538    1.9922    4.8169 H   0  0  0  0  0  0  0  0  0  0  0  0
   -2.9132    2.5157    4.1893 H   0  0  0  0  0  0  0  0  0  0  0  0
   -2.0505    3.1161    5.6106 H   0  0  0  0  0  0  0  0  0  0  0  0
   -1.6024    3.6874    3.9924 H   0  0  0  0  0  0  0  0  0  0  0  0
   -1.1745    0.5618    6.5642 N   0  0  0  0  0  0  0  0  0  0  0  0
   -1.5451   -0.4702    7.5041 C   0  0  0  0  0  0  0  0  0  0  0  0
   -0.7006    1.3843    6.9259 H   0  0  0  0  0  0  0  0  0  0  0  0
   -2.5553   -0.2696    7.8904 H   0  0  0  0  0  0  0  0  0  0  0  0
   -1.5332   -1.4474    6.9991 H   0  0  0  0  0  0  0  0  0  0  0  0
   -0.8288   -0.4802    8.3389 H   0  0  0  0  0  0  0  0  0  0  0  0
  1  3  1  0  0  0  0
  1  7  1  0  0  0  0
  1  2  2  0  0  0  0
 37 38  1  0  0  0  0
 38 46  1  0  0  0  0
 38 39  2  0  0  0  0
  8  9  1  0  0  0  0
  9 17  1  0  0  0  0
  9 10  2  0  0  0  0
 18 19  1  0  0  0  0
 19 36  1  0  0  0  0
 19 20  2  0  0  0  0
 22 24  1  0  0  0  0
 37 40  1  0  0  0  0
  8 11  1  0  0  0  0
 21 23  1  0  0  0  0
 46 47  1  0  0  0  0
 21 22  1  0  0  0  0
 36 37  1  0  0  0  0
  7  8  1  0  0  0  0
 18 21  1  0  0  0  0
 17 18  1  0  0  0  0
  3  4  1  0  0  0  0
  3  5  1  0  0  0  0
  3  6  1  0  0  0  0
 24 33  1  0  0  0  0
 24 34  1  0  0  0  0
 24 35  1  0  0  0  0
 40 43  1  0  0  0  0
 40 44  1  0  0  0  0
 40 45  1  0  0  0  0
 11 14  1  0  0  0  0
 11 15  1  0  0  0  0
 11 16  1  0  0  0  0
 23 30  1  0  0  0  0
 23 31  1  0  0  0  0
 23 32  1  0  0  0  0
 47 49  1  0  0  0  0
 47 50  1  0  0  0  0
 47 51  1  0  0  0  0
 22 28  1  0  0  0  0
 22 29  1  0  0  0  0
 37 42  1  0  0  0  0
  8 13  1  0  0  0  0
 18 26  1  0  0  0  0
 21 27  1  0  0  0  0
 46 48  1  0  0  0  0
  7 12  1  0  0  0  0
 36 41  1  0  0  0  0
 17 25  1  0  0  0  0
M  END
$$$$

  -OEChem-05262214473D

 51 50  0     1  0  0  0  0  0999 V2000
    1.3524   -3.0009    1.4091 C   0  0  0  0  0  0  0  0  0  0  0  0
    1.8758   -1.9880    0.9598 O   0  0  0  0  0  0  0  0  0  0  0  0
    2.2030   -4.1782    1.7536 C   0  0  0  0  0  0  0  0  0  0  0  0
    2.3264   -4.8705    0.9053 H   0  0  0  0  0  0  0  0  0  0  0  0
    3.2257   -3.8876    2.0432 H   0  0  0  0  0  0  0  0  0  0  0  0
    1.8327   -4.8004    2.5839 H   0  0  0  0  0  0  0  0  0  0  0  0
    0.0005   -3.1873    1.6465 N   0  0  0  0  0  0  0  0  0  0  0  0
   -0.9949   -2.1807    1.3864 C   0  0  2  0  0  0  0  0  0  0  0  0
   -0.3083   -0.8216    1.4164 C   0  0  0  0  0  0  0  0  0  0  0  0
    0.7533   -0.6191    2.0022 O   0  0  0  0  0  0  0  0  0  0  0  0
   -2.1232   -2.2423    2.4042 C   0  0  0  0  0  0  0  0  0  0  0  0
   -0.3048   -4.0823    2.0245 H   0  0  0  0  0  0  0  0  0  0  0  0
   -1.3830   -2.3724    0.3801 H   0  0  0  0  0  0  0  0  0  0  0  0
   -1.7534   -2.0527    3.4185 H   0  0  0  0  0  0  0  0  0  0  0  0
   -2.8936   -1.4947    2.1882 H   0  0  0  0  0  0  0  0  0  0  0  0
   -2.5964   -3.2301    2.4022 H   0  0  0  0  0  0  0  0  0  0  0  0
   -1.0412    0.1517    0.7482 N   0  0  0  0  0  0  0  0  0  0  0  0
   -0.6079    1.5223    0.6467 C   0  0  2  0  0  0  0  0  0  0  0  0
   -0.8369    2.1955    1.9993 C   0  0  0  0  0  0  0  0  0  0  0  0
   -1.3648    3.2998    2.1148 O   0  0  0  0  0  0  0  0  0  0  0  0
   -1.2851    2.2858   -0.5169 C   0  0  2  0  0  0  0  0  0  0  0  0
   -0.9318    1.6837   -1.8951 C   0  0  0  0  0  0  0  0  0  0  0  0
   -0.9347    3.7780   -0.4445 C   0  0  0  0  0  0  0  0  0  0  0  0
   -1.7806    2.2346   -3.0338 C   0  0  0  0  0  0  0  0  0  0  0  0
   -1.9022   -0.1128    0.2753 H   0  0  0  0  0  0  0  0  0  0  0  0
    0.4763    1.4827    0.4811 H   0  0  0  0  0  0  0  0  0  0  0  0
   -2.3726    2.2052   -0.3870 H   0  0  0  0  0  0  0  0  0  0  0  0
    0.1175    1.8959   -2.1305 H   0  0  0  0  0  0  0  0  0  0  0  0
   -1.0378    0.5926   -1.8742 H   0  0  0  0  0  0  0  0  0  0  0  0
    0.1428    3.9312   -0.5675 H   0  0  0  0  0  0  0  0  0  0  0  0
   -1.4310    4.3405   -1.2412 H   0  0  0  0  0  0  0  0  0  0  0  0
   -1.2329    4.2145    0.5142 H   0  0  0  0  0  0  0  0  0  0  0  0
   -2.8463    2.0570   -2.8643 H   0  0  0  0  0  0  0  0  0  0  0  0
   -1.5107    1.7420   -3.9737 H   0  0  0  0  0  0  0  0  0  0  0  0
   -1.6215    3.3103   -3.1583 H   0  0  0  0  0  0  0  0  0  0  0  0
   -0.4128    1.4036    3.0569 N   0  0  0  0  0  0  0  0  0  0  0  0
   -0.5343    1.7986    4.4418 C   0  0  2  0  0  0  0  0  0  0  0  0
   -0.6203    0.5338    5.2858 C   0  0  0  0  0  0  0  0  0  0  0  0
   -0.9832   -0.5504    4.8345 O   0  0  0  0  0  0  0  0  0  0  0  0
   -1.7529    2.6818    4.6604 C   0  0  0  0  0  0  0  0  0  0  0  0
    0.0038    0.5013    2.8473 H   0  0  0  0  0  0  0  0  0  0  0  0
    0.3797    2.3465    4.6958 H   0  0  0  0  0  0  0  0  0  0  0  0
   -2.6784    2.1500    4.4111 H   0  0  0  0  0  0  0  0  0  0  0  0
   -1.8276    3.0036    5.7044 H   0  0  0  0  0  0  0  0  0  0  0  0
   -1.7038    3.5766    4.0304 H   0  0  0  0  0  0  0  0  0  0  0  0
   -0.2854    0.7678    6.6122 N   0  0  0  0  0  0  0  0  0  0  0  0
   -0.3020   -0.2711    7.6154 C   0  0  0  0  0  0  0  0  0  0  0  0
    0.0220    1.6940    6.8941 H   0  0  0  0  0  0  0  0  0  0  0  0
   -1.2827   -0.2850    8.1134 H   0  0  0  0  0  0  0  0  0  0  0  0
   -0.1197   -1.2450    7.1376 H   0  0  0  0  0  0  0  0  0  0  0  0
    0.4841   -0.0748    8.3594 H   0  0  0  0  0  0  0  0  0  0  0  0
  1  3  1  0  0  0  0
  1  7  1  0  0  0  0
  1  2  2  0  0  0  0
 37 38  1  0  0  0  0
 38 46  1  0  0  0  0
 38 39  2  0  0  0  0
  8  9  1  0  0  0  0
  9 17  1  0  0  0  0
  9 10  2  0  0  0  0
 18 19  1  0  0  0  0
 19 36  1  0  0  0  0
 19 20  2  0  0  0  0
 22 24  1  0  0  0  0
 37 40  1  0  0  0  0
  8 11  1  0  0  0  0
 21 23  1  0  0  0  0
 46 47  1  0  0  0  0
 21 22  1  0  0  0  0
 36 37  1  0  0  0  0
  7  8  1  0  0  0  0
 18 21  1  0  0  0  0
 17 18  1  0  0  0  0
  3  4  1  0  0  0  0
  3  5  1  0  0  0  0
  3  6  1  0  0  0  0
 24 33  1  0  0  0  0
 24 34  1  0  0  0  0
 24 35  1  0  0  0  0
 40 43  1  0  0  0  0
 40 44  1  0  0  0  0
 40 45  1  0  0  0  0
 11 14  1  0  0  0  0
 11 15  1  0  0  0  0
 11 16  1  0  0  0  0
 23 30  1  0  0  0  0
 23 31  1  0  0  0  0
 23 32  1  0  0  0  0
 47 49  1  0  0  0  0
 47 50  1  0  0  0  0
 47 51  1  0  0  0  0
 22 28  1  0  0  0  0
 22 29  1  0  0  0  0
 37 42  1  0  0  0  0
  8 13  1  0  0  0  0
 18 26  1  0  0  0  0
 21 27  1  0  0  0  0
 46 48  1  0  0  0  0
  7 12  1  0  0  0  0
 36 41  1  0  0  0  0
 17 25  1  0  0  0  0
M  END
$$$$

  -OEChem-05262214473D

 51 50  0     1  0  0  0  0  0999 V2000
    1.3524   -3.0009    1.4091 C   0  0  0  0  0  0  0  0  0  0  0  0
    1.8758   -1.9880    0.9598 O   0  0  0  0  0  0  0  0  0  0  0  0
    2.2030   -4.1782    1.7536 C   0  0  0  0  0  0  0  0  0  0  0  0
    2.3264   -4.8705    0.9053 H   0  0  0  0  0  0  0  0  0  0  0  0
    3.2257   -3.8876    2.0432 H   0  0  0  0  0  0  0  0  0  0  0  0
    1.8327   -4.8004    2.5839 H   0  0  0  0  0  0  0  0  0  0  0  0
    0.0005   -3.1873    1.6465 N   0  0  0  0  0  0  0  0  0  0  0  0
   -0.9949   -2.1807    1.3864 C   0  0  2  0  0  0  0  0  0  0  0  0
   -0.3083   -0.8216    1.4164 C   0  0  0  0  0  0  0  0  0  0  0  0
    0.7533   -0.6191    2.0022 O   0  0  0  0  0  0  0  0  0  0  0  0
   -2.1232   -2.2423    2.4042 C   0  0  0  0  0  0  0  0  0  0  0  0
   -0.3048   -4.0823    2.0245 H   0  0  0  0  0  0  0  0  0  0  0  0
   -1.3830   -2.3724    0.3801 H   0  0  0  0  0  0  0  0  0  0  0  0
   -1.7534   -2.0527    3.4185 H   0  0  0  0  0  0  0  0  0  0  0  0
   -2.8936   -1.4947    2.1882 H   0  0  0  0  0  0  0  0  0  0  0  0
   -2.5964   -3.2301    2.4022 H   0  0  0  0  0  0  0  0  0  0  0  0
   -1.0412    0.1517    0.7482 N   0  0  0  0  0  0  0  0  0  0  0  0
   -0.6079    1.5223    0.6467 C   0  0  2  0  0  0  0  0  0  0  0  0
   -0.8369    2.1955    1.9993 C   0  0  0  0  0  0  0  0  0  0  0  0
   -1.5901    3.1557    2.1484 O   0  0  0  0  0  0  0  0  0  0  0  0
   -1.2851    2.2858   -0.5169 C   0  0  2  0  0  0  0  0  0  0  0  0
   -0.9318    1.6837   -1.8951 C   0  0  0  0  0  0  0  0  0  0  0  0
   -0.9347    3.7780   -0.4445 C   0  0  0  0  0  0  0  0  0  0  0  0
   -1.7806    2.2346   -3.0338 C   0  0  0  0  0  0  0  0  0  0  0  0
   -1.9022   -0.1128    0.2753 H   0  0  0  0  0  0  0  0  0  0  0  0
    0.4763    1.4827    0.4811 H   0  0  0  0  0  0  0  0  0  0  0  0
   -2.3726    2.2052   -0.3870 H   0  0  0  0  0  0  0  0  0  0  0  0
    0.1175    1.8959   -2.1305 H   0  0  0  0  0  0  0  0  0  0  0  0
   -1.0378    0.5926   -1.8742 H   0  0  0  0  0  0  0  0  0  0  0  0
    0.1428    3.9312   -0.5675 H   0  0  0  0  0  0  0  0  0  0  0  0
   -1.4310    4.3405   -1.2412 H   0  0  0  0  0  0  0  0  0  0  0  0
   -1.2329    4.2145    0.5142 H   0  0  0  0  0  0  0  0  0  0  0  0
   -2.8463    2.0570   -2.8643 H   0  0  0  0  0  0  0  0  0  0  0  0
   -1.5107    1.7420   -3.9737 H   0  0  0  0  0  0  0  0  0  0  0  0
   -1.6215    3.3103   -3.1583 H   0  0  0  0  0  0  0  0  0  0  0  0
   -0.1279    1.5766    3.0191 N   0  0  0  0  0  0  0  0  0  0  0  0
   -0.1851    2.0053    4.3980 C   0  0  2  0  0  0  0  0  0  0  0  0
    0.1168    0.7997    5.2783 C   0  0  0  0  0  0  0  0  0  0  0  0
   -0.0326   -0.3606    4.9009 O   0  0  0  0  0  0  0  0  0  0  0  0
   -1.5435    2.5992    4.7369 C   0  0  0  0  0  0  0  0  0  0  0  0
    0.4606    0.7827    2.7846 H   0  0  0  0  0  0  0  0  0  0  0  0
    0.5995    2.7587    4.5278 H   0  0  0  0  0  0  0  0  0  0  0  0
   -2.3424    1.8591    4.6128 H   0  0  0  0  0  0  0  0  0  0  0  0
   -1.5758    2.9496    5.7739 H   0  0  0  0  0  0  0  0  0  0  0  0
   -1.7720    3.4477    4.0830 H   0  0  0  0  0  0  0  0  0  0  0  0
    0.5316    1.1723    6.5492 N   0  0  0  0  0  0  0  0  0  0  0  0
    0.8658    0.2104    7.5734 C   0  0  0  0  0  0  0  0  0  0  0  0
    0.6454    2.1574    6.7689 H   0  0  0  0  0  0  0  0  0  0  0  0
   -0.0245    0.0003    8.1844 H   0  0  0  0  0  0  0  0  0  0  0  0
    1.2150   -0.7203    7.1024 H   0  0  0  0  0  0  0  0  0  0  0  0
    1.6618    0.6183    8.2137 H   0  0  0  0  0  0  0  0  0  0  0  0
  1  3  1  0  0  0  0
  1  7  1  0  0  0  0
  1  2  2  0  0  0  0
 37 38  1  0  0  0  0
 38 46  1  0  0  0  0
 38 39  2  0  0  0  0
  8  9  1  0  0  0  0
  9 17  1  0  0  0  0
  9 10  2  0  0  0  0
 18 19  1  0  0  0  0
 19 36  1  0  0  0  0
 19 20  2  0  0  0  0
 22 24  1  0  0  0  0
 37 40  1  0  0  0  0
  8 11  1  0  0  0  0
 21 23  1  0  0  0  0
 46 47  1  0  0  0  0
 21 22  1  0  0  0  0
 36 37  1  0  0  0  0
  7  8  1  0  0  0  0
 18 21  1  0  0  0  0
 17 18  1  0  0  0  0
  3  4  1  0  0  0  0
  3  5  1  0  0  0  0
  3  6  1  0  0  0  0
 24 33  1  0  0  0  0
 24 34  1  0  0  0  0
 24 35  1  0  0  0  0
 40 43  1  0  0  0  0
 40 44  1  0  0  0  0
 40 45  1  0  0  0  0
 11 14  1  0  0  0  0
 11 15  1  0  0  0  0
 11 16  1  0  0  0  0
 23 30  1  0  0  0  0
 23 31  1  0  0  0  0
 23 32  1  0  0  0  0
 47 49  1  0  0  0  0
 47 50  1  0  0  0  0
 47 51  1  0  0  0  0
 22 28  1  0  0  0  0
 22 29  1  0  0  0  0
 37 42  1  0  0  0  0
  8 13  1  0  0  0  0
 18 26  1  0  0  0  0
 21 27  1  0  0  0  0
 46 48  1  0  0  0  0
  7 12  1  0  0  0  0
 36 41  1  0  0  0  0
 17 25  1  0  0  0  0
M  END
$$$$

  -OEChem-05262214473D

 51 50  0     1  0  0  0  0  0999 V2000
    1.3524   -3.0009    1.4091 C   0  0  0  0  0  0  0  0  0  0  0  0
    1.8758   -1.9880    0.9598 O   0  0  0  0  0  0  0  0  0  0  0  0
    2.2030   -4.1782    1.7536 C   0  0  0  0  0  0  0  0  0  0  0  0
    2.3264   -4.8705    0.9053 H   0  0  0  0  0  0  0  0  0  0  0  0
    3.2257   -3.8876    2.0432 H   0  0  0  0  0  0  0  0  0  0  0  0
    1.8327   -4.8004    2.5839 H   0  0  0  0  0  0  0  0  0  0  0  0
    0.0005   -3.1873    1.6465 N   0  0  0  0  0  0  0  0  0  0  0  0
   -0.9949   -2.1807    1.3864 C   0  0  2  0  0  0  0  0  0  0  0  0
   -0.3083   -0.8216    1.4164 C   0  0  0  0  0  0  0  0  0  0  0  0
    0.7533   -0.6191    2.0022 O   0  0  0  0  0  0  0  0  0  0  0  0
   -2.1232   -2.2423    2.4042 C   0  0  0  0  0  0  0  0  0  0  0  0
   -0.3048   -4.0823    2.0245 H   0  0  0  0  0  0  0  0  0  0  0  0
   -1.3830   -2.3724    0.3801 H   0  0  0  0  0  0  0  0  0  0  0  0
   -1.7534   -2.0527    3.4185 H   0  0  0  0  0  0  0  0  0  0  0  0
   -2.8936   -1.4947    2.1882 H   0  0  0  0  0  0  0  0  0  0  0  0
   -2.5964   -3.2301    2.4022 H   0  0  0  0  0  0  0  0  0  0  0  0
   -1.0412    0.1517    0.7482 N   0  0  0  0  0  0  0  0  0  0  0  0
   -0.6079    1.5223    0.6467 C   0  0  2  0  0  0  0  0  0  0  0  0
   -0.8369    2.1955    1.9993 C   0  0  0  0  0  0  0  0  0  0  0  0
   -1.7708    2.9662    2.2121 O   0  0  0  0  0  0  0  0  0  0  0  0
   -1.2851    2.2858   -0.5169 C   0  0  2  0  0  0  0  0  0  0  0  0
   -0.9318    1.6837   -1.8951 C   0  0  0  0  0  0  0  0  0  0  0  0
   -0.9347    3.7780   -0.4445 C   0  0  0  0  0  0  0  0  0  0  0  0
   -1.7806    2.2346   -3.0338 C   0  0  0  0  0  0  0  0  0  0  0  0
   -1.9022   -0.1128    0.2753 H   0  0  0  0  0  0  0  0  0  0  0  0
    0.4763    1.4827    0.4811 H   0  0  0  0  0  0  0  0  0  0  0  0
   -2.3726    2.2052   -0.3870 H   0  0  0  0  0  0  0  0  0  0  0  0
    0.1175    1.8959   -2.1305 H   0  0  0  0  0  0  0  0  0  0  0  0
   -1.0378    0.5926   -1.8742 H   0  0  0  0  0  0  0  0  0  0  0  0
    0.1428    3.9312   -0.5675 H   0  0  0  0  0  0  0  0  0  0  0  0
   -1.4310    4.3405   -1.2412 H   0  0  0  0  0  0  0  0  0  0  0  0
   -1.2329    4.2145    0.5142 H   0  0  0  0  0  0  0  0  0  0  0  0
   -2.8463    2.0570   -2.8643 H   0  0  0  0  0  0  0  0  0  0  0  0
   -1.5107    1.7420   -3.9737 H   0  0  0  0  0  0  0  0  0  0  0  0
   -1.6215    3.3103   -3.1583 H   0  0  0  0  0  0  0  0  0  0  0  0
    0.1033    1.8075    2.9433 N   0  0  0  0  0  0  0  0  0  0  0  0
    0.0998    2.2833    4.3079 C   0  0  2  0  0  0  0  0  0  0  0  0
    0.7670    1.2251    5.1766 C   0  0  0  0  0  0  0  0  0  0  0  0
    0.8496    0.0431    4.8493 O   0  0  0  0  0  0  0  0  0  0  0  0
   -1.3136    2.5704    4.7902 C   0  0  0  0  0  0  0  0  0  0  0  0
    0.8302    1.1567    2.6611 H   0  0  0  0  0  0  0  0  0  0  0  0
    0.6982    3.2007    4.3245 H   0  0  0  0  0  0  0  0  0  0  0  0
   -1.9282    1.6629    4.7805 H   0  0  0  0  0  0  0  0  0  0  0  0
   -1.3123    2.9578    5.8144 H   0  0  0  0  0  0  0  0  0  0  0  0
   -1.8024    3.3097    4.1466 H   0  0  0  0  0  0  0  0  0  0  0  0
    1.2210    1.7477    6.3795 N   0  0  0  0  0  0  0  0  0  0  0  0
    1.8787    0.9413    7.3811 C   0  0  0  0  0  0  0  0  0  0  0  0
    1.1272    2.7430    6.5590 H   0  0  0  0  0  0  0  0  0  0  0  0
    1.1335    0.5669    8.0984 H   0  0  0  0  0  0  0  0  0  0  0  0
    2.3800    0.0909    6.8958 H   0  0  0  0  0  0  0  0  0  0  0  0
    2.6239    1.5520    7.9119 H   0  0  0  0  0  0  0  0  0  0  0  0
  1  3  1  0  0  0  0
  1  7  1  0  0  0  0
  1  2  2  0  0  0  0
 37 38  1  0  0  0  0
 38 46  1  0  0  0  0
 38 39  2  0  0  0  0
  8  9  1  0  0  0  0
  9 17  1  0  0  0  0
  9 10  2  0  0  0  0
 18 19  1  0  0  0  0
 19 36  1  0  0  0  0
 19 20  2  0  0  0  0
 22 24  1  0  0  0  0
 37 40  1  0  0  0  0
  8 11  1  0  0  0  0
 21 23  1  0  0  0  0
 46 47  1  0  0  0  0
 21 22  1  0  0  0  0
 36 37  1  0  0  0  0
  7  8  1  0  0  0  0
 18 21  1  0  0  0  0
 17 18  1  0  0  0  0
  3  4  1  0  0  0  0
  3  5  1  0  0  0  0
  3  6  1  0  0  0  0
 24 33  1  0  0  0  0
 24 34  1  0  0  0  0
 24 35  1  0  0  0  0
 40 43  1  0  0  0  0
 40 44  1  0  0  0  0
 40 45  1  0  0  0  0
 11 14  1  0  0  0  0
 11 15  1  0  0  0  0
 11 16  1  0  0  0  0
 23 30  1  0  0  0  0
 23 31  1  0  0  0  0
 23 32  1  0  0  0  0
 47 49  1  0  0  0  0
 47 50  1  0  0  0  0
 47 51  1  0  0  0  0
 22 28  1  0  0  0  0
 22 29  1  0  0  0  0
 37 42  1  0  0  0  0
  8 13  1  0  0  0  0
 18 26  1  0  0  0  0
 21 27  1  0  0  0  0
 46 48  1  0  0  0  0
  7 12  1  0  0  0  0
 36 41  1  0  0  0  0
 17 25  1  0  0  0  0
M  END
$$$$

  -OEChem-05262214473D

 51 50  0     1  0  0  0  0  0999 V2000
    1.3524   -3.0009    1.4091 C   0  0  0  0  0  0  0  0  0  0  0  0
    1.8758   -1.9880    0.9598 O   0  0  0  0  0  0  0  0  0  0  0  0
    2.2030   -4.1782    1.7536 C   0  0  0  0  0  0  0  0  0  0  0  0
    2.3264   -4.8705    0.9053 H   0  0  0  0  0  0  0  0  0  0  0  0
    3.2257   -3.8876    2.0432 H   0  0  0  0  0  0  0  0  0  0  0  0
    1.8327   -4.8004    2.5839 H   0  0  0  0  0  0  0  0  0  0  0  0
    0.0005   -3.1873    1.6465 N   0  0  0  0  0  0  0  0  0  0  0  0
   -0.9949   -2.1807    1.3864 C   0  0  2  0  0  0  0  0  0  0  0  0
   -0.3083   -0.8216    1.4164 C   0  0  0  0  0  0  0  0  0  0  0  0
    0.7533   -0.6191    2.0022 O   0  0  0  0  0  0  0  0  0  0  0  0
   -2.1232   -2.2423    2.4042 C   0  0  0  0  0  0  0  0  0  0  0  0
   -0.3048   -4.0823    2.0245 H   0  0  0  0  0  0  0  0  0  0  0  0
   -1.3830   -2.3724    0.3801 H   0  0  0  0  0  0  0  0  0  0  0  0
   -1.7534   -2.0527    3.4185 H   0  0  0  0  0  0  0  0  0  0  0  0
   -2.8936   -1.4947    2.1882 H   0  0  0  0  0  0  0  0  0  0  0  0
   -2.5964   -3.2301    2.4022 H   0  0  0  0  0  0  0  0  0  0  0  0
   -1.0412    0.1517    0.7482 N   0  0  0  0  0  0  0  0  0  0  0  0
   -0.6079    1.5223    0.6467 C   0  0  2  0  0  0  0  0  0  0  0  0
   -0.8369    2.1955    1.9993 C   0  0  0  0  0  0  0  0  0  0  0  0
   -1.8947    2.7443    2.3016 O   0  0  0  0  0  0  0  0  0  0  0  0
   -1.2851    2.2858   -0.5169 C   0  0  2  0  0  0  0  0  0  0  0  0
   -0.9318    1.6837   -1.8951 C   0  0  0  0  0  0  0  0  0  0  0  0
   -0.9347    3.7780   -0.4445 C   0  0  0  0  0  0  0  0  0  0  0  0
   -1.7806    2.2346   -3.0338 C   0  0  0  0  0  0  0  0  0  0  0  0
   -1.9022   -0.1128    0.2753 H   0  0  0  0  0  0  0  0  0  0  0  0
    0.4763    1.4827    0.4811 H   0  0  0  0  0  0  0  0  0  0  0  0
   -2.3726    2.2052   -0.3870 H   0  0  0  0  0  0  0  0  0  0  0  0
    0.1175    1.8959   -2.1305 H   0  0  0  0  0  0  0  0  0  0  0  0
   -1.0378    0.5926   -1.8742 H   0  0  0  0  0  0  0  0  0  0  0  0
    0.1428    3.9312   -0.5675 H   0  0  0  0  0  0  0  0  0  0  0  0
   -1.4310    4.3405   -1.2412 H   0  0  0  0  0  0  0  0  0  0  0  0
   -1.2329    4.2145    0.5142 H   0  0  0  0  0  0  0  0  0  0  0  0
   -2.8463    2.0570   -2.8643 H   0  0  0  0  0  0  0  0  0  0  0  0
   -1.5107    1.7420   -3.9737 H   0  0  0  0  0  0  0  0  0  0  0  0
   -1.6215    3.3103   -3.1583 H   0  0  0  0  0  0  0  0  0  0  0  0
    0.2651    2.0806    2.8348 N   0  0  0  0  0  0  0  0  0  0  0  0
    0.3011    2.6135    4.1776 C   0  0  2  0  0  0  0  0  0  0  0  0
    1.2860    1.7810    4.9878 C   0  0  0  0  0  0  0  0  0  0  0  0
    1.6035    0.6332    4.6832 O   0  0  0  0  0  0  0  0  0  0  0  0
   -1.0788    2.5972    4.8166 C   0  0  0  0  0  0  0  0  0  0  0  0
    1.0875    1.5978    2.4850 H   0  0  0  0  0  0  0  0  0  0  0  0
    0.6692    3.6424    4.0998 H   0  0  0  0  0  0  0  0  0  0  0  0
   -1.4641    1.5747    4.9030 H   0  0  0  0  0  0  0  0  0  0  0  0
   -1.0551    3.0276    5.8232 H   0  0  0  0  0  0  0  0  0  0  0  0
   -1.7928    3.1719    4.2168 H   0  0  0  0  0  0  0  0  0  0  0  0
    1.7357    2.4548    6.1147 N   0  0  0  0  0  0  0  0  0  0  0  0
    2.6677    1.8720    7.0515 C   0  0  0  0  0  0  0  0  0  0  0  0
    1.4344    3.4109    6.2786 H   0  0  0  0  0  0  0  0  0  0  0  0
    2.1125    1.3762    7.8614 H   0  0  0  0  0  0  0  0  0  0  0  0
    3.2959    1.1333    6.5320 H   0  0  0  0  0  0  0  0  0  0  0  0
    3.3050    2.6626    7.4744 H   0  0  0  0  0  0  0  0  0  0  0  0
  1  3  1  0  0  0  0
  1  7  1  0  0  0  0
  1  2  2  0  0  0  0
 37 38  1  0  0  0  0
 38 46  1  0  0  0  0
 38 39  2  0  0  0  0
  8  9  1  0  0  0  0
  9 17  1  0  0  0  0
  9 10  2  0  0  0  0
 18 19  1  0  0  0  0
 19 36  1  0  0  0  0
 19 20  2  0  0  0  0
 22 24  1  0  0  0  0
 37 40  1  0  0  0  0
  8 11  1  0  0  0  0
 21 23  1  0  0  0  0
 46 47  1  0  0  0  0
 21 22  1  0  0  0  0
 36 37  1  0  0  0  0
  7  8  1  0  0  0  0
 18 21  1  0  0  0  0
 17 18  1  0  0  0  0
  3  4  1  0  0  0  0
  3  5  1  0  0  0  0
  3  6  1  0  0  0  0
 24 33  1  0  0  0  0
 24 34  1  0  0  0  0
 24 35  1  0  0  0  0
 40 43  1  0  0  0  0
 40 44  1  0  0  0  0
 40 45  1  0  0  0  0
 11 14  1  0  0  0  0
 11 15  1  0  0  0  0
 11 16  1  0  0  0  0
 23 30  1  0  0  0  0
 23 31  1  0  0  0  0
 23 32  1  0  0  0  0
 47 49  1  0  0  0  0
 47 50  1  0  0  0  0
 47 51  1  0  0  0  0
 22 28  1  0  0  0  0
 22 29  1  0  0  0  0
 37 42  1  0  0  0  0
  8 13  1  0  0  0  0
 18 26  1  0  0  0  0
 21 27  1  0  0  0  0
 46 48  1  0  0  0  0
  7 12  1  0  0  0  0
 36 41  1  0  0  0  0
 17 25  1  0  0  0  0
M  END
$$$$

  -OEChem-05262214473D

 51 50  0     1  0  0  0  0  0999 V2000
    1.3524   -3.0009    1.4091 C   0  0  0  0  0  0  0  0  0  0  0  0
    1.8758   -1.9880    0.9598 O   0  0  0  0  0  0  0  0  0  0  0  0
    2.2030   -4.1782    1.7536 C   0  0  0  0  0  0  0  0  0  0  0  0
    2.3264   -4.8705    0.9053 H   0  0  0  0  0  0  0  0  0  0  0  0
    3.2257   -3.8876    2.0432 H   0  0  0  0  0  0  0  0  0  0  0  0
    1.8327   -4.8004    2.5839 H   0  0  0  0  0  0  0  0  0  0  0  0
    0.0005   -3.1873    1.6465 N   0  0  0  0  0  0  0  0  0  0  0  0
   -0.9949   -2.1807    1.3864 C   0  0  2  0  0  0  0  0  0  0  0  0
   -0.3083   -0.8216    1.4164 C   0  0  0  0  0  0  0  0  0  0  0  0
    0.7533   -0.6191    2.0022 O   0  0  0  0  0  0  0  0  0  0  0  0
   -2.1232   -2.2423    2.4042 C   0  0  0  0  0  0  0  0  0  0  0  0
   -0.3048   -4.0823    2.0245 H   0  0  0  0  0  0  0  0  0  0  0  0
   -1.3830   -2.3724    0.3801 H   0  0  0  0  0  0  0  0  0  0  0  0
   -1.7534   -2.0527    3.4185 H   0  0  0  0  0  0  0  0  0  0  0  0
   -2.8936   -1.4947    2.1882 H   0  0  0  0  0  0  0  0  0  0  0  0
   -2.5964   -3.2301    2.4022 H   0  0  0  0  0  0  0  0  0  0  0  0
   -1.0412    0.1517    0.7482 N   0  0  0  0  0  0  0  0  0  0  0  0
   -0.6079    1.5223    0.6467 C   0  0  2  0  0  0  0  0  0  0  0  0
   -0.8369    2.1955    1.9993 C   0  0  0  0  0  0  0  0  0  0  0  0
   -1.9533    2.5050    2.4107 O   0  0  0  0  0  0  0  0  0  0  0  0
   -1.2851    2.2858   -0.5169 C   0  0  2  0  0  0  0  0  0  0  0  0
   -0.9318    1.6837   -1.8951 C   0  0  0  0  0  0  0  0  0  0  0  0
   -0.9347    3.7780   -0.4445 C   0  0  0  0  0  0  0  0  0  0  0  0
   -1.7806    2.2346   -3.0338 C   0  0  0  0  0  0  0  0  0  0  0  0
   -1.9022   -0.1128    0.2753 H   0  0  0  0  0  0  0  0  0  0  0  0
    0.4763    1.4827    0.4811 H   0  0  0  0  0  0  0  0  0  0  0  0
   -2.3726    2.2052   -0.3870 H   0  0  0  0  0  0  0  0  0  0  0  0
    0.1175    1.8959   -2.1305 H   0  0  0  0  0  0  0  0  0  0  0  0
   -1.0378    0.5926   -1.8742 H   0  0  0  0  0  0  0  0  0  0  0  0
    0.1428    3.9312   -0.5675 H   0  0  0  0  0  0  0  0  0  0  0  0
   -1.4310    4.3405   -1.2412 H   0  0  0  0  0  0  0  0  0  0  0  0
   -1.2329    4.2145    0.5142 H   0  0  0  0  0  0  0  0  0  0  0  0
   -2.8463    2.0570   -2.8643 H   0  0  0  0  0  0  0  0  0  0  0  0
   -1.5107    1.7420   -3.9737 H   0  0  0  0  0  0  0  0  0  0  0  0
   -1.6215    3.3103   -3.1583 H   0  0  0  0  0  0  0  0  0  0  0  0
    0.3465    2.3772    2.7009 N   0  0  0  0  0  0  0  0  0  0  0  0
    0.4050    2.9736    4.0160 C   0  0  2  0  0  0  0  0  0  0  0  0
    1.6384    2.4295    4.7246 C   0  0  0  0  0  0  0  0  0  0  0  0
    2.1775    1.3694    4.4140 O   0  0  0  0  0  0  0  0  0  0  0  0
   -0.8552    2.6780    4.8142 C   0  0  0  0  0  0  0  0  0  0  0  0
    1.2148    2.0760    2.2686 H   0  0  0  0  0  0  0  0  0  0  0  0
    0.5143    4.0536    3.8689 H   0  0  0  0  0  0  0  0  0  0  0  0
   -0.9816    1.6007    4.9717 H   0  0  0  0  0  0  0  0  0  0  0  0
   -0.8216    3.1543    5.7996 H   0  0  0  0  0  0  0  0  0  0  0  0
   -1.7440    3.0437    4.2888 H   0  0  0  0  0  0  0  0  0  0  0  0
    2.0406    3.2455    5.7727 N   0  0  0  0  0  0  0  0  0  0  0  0
    3.1790    2.9389    6.6070 C   0  0  0  0  0  0  0  0  0  0  0  0
    1.5461    4.1156    5.9468 H   0  0  0  0  0  0  0  0  0  0  0  0
    2.8458    2.3729    7.4894 H   0  0  0  0  0  0  0  0  0  0  0  0
    3.9003    2.3360    6.0358 H   0  0  0  0  0  0  0  0  0  0  0  0
    3.6585    3.8743    6.9312 H   0  0  0  0  0  0  0  0  0  0  0  0
  1  3  1  0  0  0  0
  1  7  1  0  0  0  0
  1  2  2  0  0  0  0
 37 38  1  0  0  0  0
 38 46  1  0  0  0  0
 38 39  2  0  0  0  0
  8  9  1  0  0  0  0
  9 17  1  0  0  0  0
  9 10  2  0  0  0  0
 18 19  1  0  0  0  0
 19 36  1  0  0  0  0
 19 20  2  0  0  0  0
 22 24  1  0  0  0  0
 37 40  1  0  0  0  0
  8 11  1  0  0  0  0
 21 23  1  0  0  0  0
 46 47  1  0  0  0  0
 21 22  1  0  0  0  0
 36 37  1  0  0  0  0
  7  8  1  0  0  0  0
 18 21  1  0  0  0  0
 17 18  1  0  0  0  0
  3  4  1  0  0  0  0
  3  5  1  0  0  0  0
  3  6  1  0  0  0  0
 24 33  1  0  0  0  0
 24 34  1  0  0  0  0
 24 35  1  0  0  0  0
 40 43  1  0  0  0  0
 40 44  1  0  0  0  0
 40 45  1  0  0  0  0
 11 14  1  0  0  0  0
 11 15  1  0  0  0  0
 11 16  1  0  0  0  0
 23 30  1  0  0  0  0
 23 31  1  0  0  0  0
 23 32  1  0  0  0  0
 47 49  1  0  0  0  0
 47 50  1  0  0  0  0
 47 51  1  0  0  0  0
 22 28  1  0  0  0  0
 22 29  1  0  0  0  0
 37 42  1  0  0  0  0
  8 13  1  0  0  0  0
 18 26  1  0  0  0  0
 21 27  1  0  0  0  0
 46 48  1  0  0  0  0
  7 12  1  0  0  0  0
 36 41  1  0  0  0  0
 17 25  1  0  0  0  0
M  END
$$$$

  -OEChem-05262214473D

 51 50  0     1  0  0  0  0  0999 V2000
    1.3524   -3.0009    1.4091 C   0  0  0  0  0  0  0  0  0  0  0  0
    1.8758   -1.9880    0.9598 O   0  0  0  0  0  0  0  0  0  0  0  0
    2.2030   -4.1782    1.7536 C   0  0  0  0  0  0  0  0  0  0  0  0
    2.3264   -4.8705    0.9053 H   0  0  0  0  0  0  0  0  0  0  0  0
    3.2257   -3.8876    2.0432 H   0  0  0  0  0  0  0  0  0  0  0  0
    1.8327   -4.8004    2.5839 H   0  0  0  0  0  0  0  0  0  0  0  0
    0.0005   -3.1873    1.6465 N   0  0  0  0  0  0  0  0  0  0  0  0
   -0.9949   -2.1807    1.3864 C   0  0  2  0  0  0  0  0  0  0  0  0
   -0.3083   -0.8216    1.4164 C   0  0  0  0  0  0  0  0  0  0  0  0
    0.7533   -0.6191    2.0022 O   0  0  0  0  0  0  0  0  0  0  0  0
   -2.1232   -2.2423    2.4042 C   0  0  0  0  0  0  0  0  0  0  0  0
   -0.3048   -4.0823    2.0245 H   0  0  0  0  0  0  0  0  0  0  0  0
   -1.3830   -2.3724    0.3801 H   0  0  0  0  0  0  0  0  0  0  0  0
   -1.7534   -2.0527    3.4185 H   0  0  0  0  0  0  0  0  0  0  0  0
   -2.8936   -1.4947    2.1882 H   0  0  0  0  0  0  0  0  0  0  0  0
   -2.5964   -3.2301    2.4022 H   0  0  0  0  0  0  0  0  0  0  0  0
   -1.0412    0.1517    0.7482 N   0  0  0  0  0  0  0  0  0  0  0  0
   -0.6079    1.5223    0.6467 C   0  0  2  0  0  0  0  0  0  0  0  0
   -0.8369    2.1955    1.9993 C   0  0  0  0  0  0  0  0  0  0  0  0
   -1.9427    2.2647    2.5322 O   0  0  0  0  0  0  0  0  0  0  0  0
   -1.2851    2.2858   -0.5169 C   0  0  2  0  0  0  0  0  0  0  0  0
   -0.9318    1.6837   -1.8951 C   0  0  0  0  0  0  0  0  0  0  0  0
   -0.9347    3.7780   -0.4445 C   0  0  0  0  0  0  0  0  0  0  0  0
   -1.7806    2.2346   -3.0338 C   0  0  0  0  0  0  0  0  0  0  0  0
   -1.9022   -0.1128    0.2753 H   0  0  0  0  0  0  0  0  0  0  0  0
    0.4763    1.4827    0.4811 H   0  0  0  0  0  0  0  0  0  0  0  0
   -2.3726    2.2052   -0.3870 H   0  0  0  0  0  0  0  0  0  0  0  0
    0.1175    1.8959   -2.1305 H   0  0  0  0  0  0  0  0  0  0  0  0
   -1.0378    0.5926   -1.8742 H   0  0  0  0  0  0  0  0  0  0  0  0
    0.1428    3.9312   -0.5675 H   0  0  0  0  0  0  0  0  0  0  0  0
   -1.4310    4.3405   -1.2412 H   0  0  0  0  0  0  0  0  0  0  0  0
   -1.2329    4.2145    0.5142 H   0  0  0  0  0  0  0  0  0  0  0  0
   -2.8463    2.0570   -2.8643 H   0  0  0  0  0  0  0  0  0  0  0  0
   -1.5107    1.7420   -3.9737 H   0  0  0  0  0  0  0  0  0  0  0  0
   -1.6215    3.3103   -3.1583 H   0  0  0  0  0  0  0  0  0  0  0  0
    0.3418    2.6772    2.5508 N   0  0  0  0  0  0  0  0  0  0  0  0
    0.4045    3.3390    3.8341 C   0  0  2  0  0  0  0  0  0  0  0  0
    1.8003    3.1265    4.4052 C   0  0  0  0  0  0  0  0  0  0  0  0
    2.5327    2.2016    4.0599 O   0  0  0  0  0  0  0  0  0  0  0  0
   -0.6580    2.8072    4.7833 C   0  0  0  0  0  0  0  0  0  0  0  0
    1.2036    2.5587    2.0264 H   0  0  0  0  0  0  0  0  0  0  0  0
    0.2442    4.4065    3.6476 H   0  0  0  0  0  0  0  0  0  0  0  0
   -0.5137    1.7389    4.9821 H   0  0  0  0  0  0  0  0  0  0  0  0
   -0.6277    3.3294    5.7453 H   0  0  0  0  0  0  0  0  0  0  0  0
   -1.6593    2.9338    4.3579 H   0  0  0  0  0  0  0  0  0  0  0  0
    2.1151    4.0659    5.3770 N   0  0  0  0  0  0  0  0  0  0  0  0
    3.3778    4.0693    6.0780 C   0  0  0  0  0  0  0  0  0  0  0  0
    1.4548    4.8089    5.5862 H   0  0  0  0  0  0  0  0  0  0  0  0
    3.2832    3.4893    7.0078 H   0  0  0  0  0  0  0  0  0  0  0  0
    4.1520    3.6169    5.4409 H   0  0  0  0  0  0  0  0  0  0  0  0
    3.6604    5.1047    6.3191 H   0  0  0  0  0  0  0  0  0  0  0  0
  1  3  1  0  0  0  0
  1  7  1  0  0  0  0
  1  2  2  0  0  0  0
 37 38  1  0  0  0  0
 38 46  1  0  0  0  0
 38 39  2  0  0  0  0
  8  9  1  0  0  0  0
  9 17  1  0  0  0  0
  9 10  2  0  0  0  0
 18 19  1  0  0  0  0
 19 36  1  0  0  0  0
 19 20  2  0  0  0  0
 22 24  1  0  0  0  0
 37 40  1  0  0  0  0
  8 11  1  0  0  0  0
 21 23  1  0  0  0  0
 46 47  1  0  0  0  0
 21 22  1  0  0  0  0
 36 37  1  0  0  0  0
  7  8  1  0  0  0  0
 18 21  1  0  0  0  0
 17 18  1  0  0  0  0
  3  4  1  0  0  0  0
  3  5  1  0  0  0  0
  3  6  1  0  0  0  0
 24 33  1  0  0  0  0
 24 34  1  0  0  0  0
 24 35  1  0  0  0  0
 40 43  1  0  0  0  0
 40 44  1  0  0  0  0
 40 45  1  0  0  0  0
 11 14  1  0  0  0  0
 11 15  1  0  0  0  0
 11 16  1  0  0  0  0
 23 30  1  0  0  0  0
 23 31  1  0  0  0  0
 23 32  1  0  0  0  0
 47 49  1  0  0  0  0
 47 50  1  0  0  0  0
 47 51  1  0  0  0  0
 22 28  1  0  0  0  0
 22 29  1  0  0  0  0
 37 42  1  0  0  0  0
  8 13  1  0  0  0  0
 18 26  1  0  0  0  0
 21 27  1  0  0  0  0
 46 48  1  0  0  0  0
  7 12  1  0  0  0  0
 36 41  1  0  0  0  0
 17 25  1  0  0  0  0
M  END
$$$$

  -OEChem-05262214473D

 51 50  0     1  0  0  0  0  0999 V2000
    1.3524   -3.0009    1.4091 C   0  0  0  0  0  0  0  0  0  0  0  0
    1.8758   -1.9880    0.9598 O   0  0  0  0  0  0  0  0  0  0  0  0
    2.2030   -4.1782    1.7536 C   0  0  0  0  0  0  0  0  0  0  0  0
    2.3264   -4.8705    0.9053 H   0  0  0  0  0  0  0  0  0  0  0  0
    3.2257   -3.8876    2.0432 H   0  0  0  0  0  0  0  0  0  0  0  0
    1.8327   -4.8004    2.5839 H   0  0  0  0  0  0  0  0  0  0  0  0
    0.0005   -3.1873    1.6465 N   0  0  0  0  0  0  0  0  0  0  0  0
   -0.9949   -2.1807    1.3864 C   0  0  2  0  0  0  0  0  0  0  0  0
   -0.3083   -0.8216    1.4164 C   0  0  0  0  0  0  0  0  0  0  0  0
    0.7533   -0.6191    2.0022 O   0  0  0  0  0  0  0  0  0  0  0  0
   -2.1232   -2.2423    2.4042 C   0  0  0  0  0  0  0  0  0  0  0  0
   -0.3048   -4.0823    2.0245 H   0  0  0  0  0  0  0  0  0  0  0  0
   -1.3830   -2.3724    0.3801 H   0  0  0  0  0  0  0  0  0  0  0  0
   -1.7534   -2.0527    3.4185 H   0  0  0  0  0  0  0  0  0  0  0  0
   -2.8936   -1.4947    2.1882 H   0  0  0  0  0  0  0  0  0  0  0  0
   -2.5964   -3.2301    2.4022 H   0  0  0  0  0  0  0  0  0  0  0  0
   -1.0412    0.1517    0.7482 N   0  0  0  0  0  0  0  0  0  0  0  0
   -0.6079    1.5223    0.6467 C   0  0  2  0  0  0  0  0  0  0  0  0
   -0.8369    2.1955    1.9993 C   0  0  0  0  0  0  0  0  0  0  0  0
   -1.8635    2.0397    2.6575 O   0  0  0  0  0  0  0  0  0  0  0  0
   -1.2851    2.2858   -0.5169 C   0  0  2  0  0  0  0  0  0  0  0  0
   -0.9318    1.6837   -1.8951 C   0  0  0  0  0  0  0  0  0  0  0  0
   -0.9347    3.7780   -0.4445 C   0  0  0  0  0  0  0  0  0  0  0  0
   -1.7806    2.2346   -3.0338 C   0  0  0  0  0  0  0  0  0  0  0  0
   -1.9022   -0.1128    0.2753 H   0  0  0  0  0  0  0  0  0  0  0  0
    0.4763    1.4827    0.4811 H   0  0  0  0  0  0  0  0  0  0  0  0
   -2.3726    2.2052   -0.3870 H   0  0  0  0  0  0  0  0  0  0  0  0
    0.1175    1.8959   -2.1305 H   0  0  0  0  0  0  0  0  0  0  0  0
   -1.0378    0.5926   -1.8742 H   0  0  0  0  0  0  0  0  0  0  0  0
    0.1428    3.9312   -0.5675 H   0  0  0  0  0  0  0  0  0  0  0  0
   -1.4310    4.3405   -1.2412 H   0  0  0  0  0  0  0  0  0  0  0  0
   -1.2329    4.2145    0.5142 H   0  0  0  0  0  0  0  0  0  0  0  0
   -2.8463    2.0570   -2.8643 H   0  0  0  0  0  0  0  0  0  0  0  0
   -1.5107    1.7420   -3.9737 H   0  0  0  0  0  0  0  0  0  0  0  0
   -1.6215    3.3103   -3.1583 H   0  0  0  0  0  0  0  0  0  0  0  0
    0.2515    2.9601    2.3947 N   0  0  0  0  0  0  0  0  0  0  0  0
    0.2995    3.6847    3.6442 C   0  0  2  0  0  0  0  0  0  0  0  0
    1.7605    3.8244    4.0511 C   0  0  0  0  0  0  0  0  0  0  0  0
    2.6446    3.0730    3.6451 O   0  0  0  0  0  0  0  0  0  0  0  0
   -0.5006    2.9759    4.7260 C   0  0  0  0  0  0  0  0  0  0  0  0
    1.0546    3.0130    1.7751 H   0  0  0  0  0  0  0  0  0  0  0  0
   -0.1228    4.6768    3.4509 H   0  0  0  0  0  0  0  0  0  0  0  0
   -0.0922    1.9801    4.9334 H   0  0  0  0  0  0  0  0  0  0  0  0
   -0.4868    3.5407    5.6640 H   0  0  0  0  0  0  0  0  0  0  0  0
   -1.5445    2.8497    4.4191 H   0  0  0  0  0  0  0  0  0  0  0  0
    1.9539    4.8600    4.9545 N   0  0  0  0  0  0  0  0  0  0  0  0
    3.2506    5.1863    5.5006 C   0  0  0  0  0  0  0  0  0  0  0  0
    1.1667    5.4438    5.2215 H   0  0  0  0  0  0  0  0  0  0  0  0
    3.3951    4.6491    6.4495 H   0  0  0  0  0  0  0  0  0  0  0  0
    4.0339    4.8887    4.7879 H   0  0  0  0  0  0  0  0  0  0  0  0
    3.3106    6.2699    5.6800 H   0  0  0  0  0  0  0  0  0  0  0  0
  1  3  1  0  0  0  0
  1  7  1  0  0  0  0
  1  2  2  0  0  0  0
 37 38  1  0  0  0  0
 38 46  1  0  0  0  0
 38 39  2  0  0  0  0
  8  9  1  0  0  0  0
  9 17  1  0  0  0  0
  9 10  2  0  0  0  0
 18 19  1  0  0  0  0
 19 36  1  0  0  0  0
 19 20  2  0  0  0  0
 22 24  1  0  0  0  0
 37 40  1  0  0  0  0
  8 11  1  0  0  0  0
 21 23  1  0  0  0  0
 46 47  1  0  0  0  0
 21 22  1  0  0  0  0
 36 37  1  0  0  0  0
  7  8  1  0  0  0  0
 18 21  1  0  0  0  0
 17 18  1  0  0  0  0
  3  4  1  0  0  0  0
  3  5  1  0  0  0  0
  3  6  1  0  0  0  0
 24 33  1  0  0  0  0
 24 34  1  0  0  0  0
 24 35  1  0  0  0  0
 40 43  1  0  0  0  0
 40 44  1  0  0  0  0
 40 45  1  0  0  0  0
 11 14  1  0  0  0  0
 11 15  1  0  0  0  0
 11 16  1  0  0  0  0
 23 30  1  0  0  0  0
 23 31  1  0  0  0  0
 23 32  1  0  0  0  0
 47 49  1  0  0  0  0
 47 50  1  0  0  0  0
 47 51  1  0  0  0  0
 22 28  1  0  0  0  0
 22 29  1  0  0  0  0
 37 42  1  0  0  0  0
  8 13  1  0  0  0  0
 18 26  1  0  0  0  0
 21 27  1  0  0  0  0
 46 48  1  0  0  0  0
  7 12  1  0  0  0  0
 36 41  1  0  0  0  0
 17 25  1  0  0  0  0
M  END
$$$$

  -OEChem-05262214473D

 51 50  0     1  0  0  0  0  0999 V2000
    1.3524   -3.0009    1.4091 C   0  0  0  0  0  0  0  0  0  0  0  0
    1.8758   -1.9880    0.9598 O   0  0  0  0  0  0  0  0  0  0  0  0
    2.2030   -4.1782    1.7536 C   0  0  0  0  0  0  0  0  0  0  0  0
    2.3264   -4.8705    0.9053 H   0  0  0  0  0  0  0  0  0  0  0  0
    3.2257   -3.8876    2.0432 H   0  0  0  0  0  0  0  0  0  0  0  0
    1.8327   -4.8004    2.5839 H   0  0  0  0  0  0  0  0  0  0  0  0
    0.0005   -3.1873    1.6465 N   0  0  0  0  0  0  0  0  0  0  0  0
   -0.9949   -2.1807    1.3864 C   0  0  2  0  0  0  0  0  0  0  0  0
   -0.3083   -0.8216    1.4164 C   0  0  0  0  0  0  0  0  0  0  0  0
    0.7533   -0.6191    2.0022 O   0  0  0  0  0  0  0  0  0  0  0  0
   -2.1232   -2.2423    2.4042 C   0  0  0  0  0  0  0  0  0  0  0  0
   -0.3048   -4.0823    2.0245 H   0  0  0  0  0  0  0  0  0  0  0  0
   -1.3830   -2.3724    0.3801 H   0  0  0  0  0  0  0  0  0  0  0  0
   -1.7534   -2.0527    3.4185 H   0  0  0  0  0  0  0  0  0  0  0  0
   -2.8936   -1.4947    2.1882 H   0  0  0  0  0  0  0  0  0  0  0  0
   -2.5964   -3.2301    2.4022 H   0  0  0  0  0  0  0  0  0  0  0  0
   -1.0412    0.1517    0.7482 N   0  0  0  0  0  0  0  0  0  0  0  0
   -0.6079    1.5223    0.6467 C   0  0  2  0  0  0  0  0  0  0  0  0
   -0.8369    2.1955    1.9993 C   0  0  0  0  0  0  0  0  0  0  0  0
   -1.7211    1.8454    2.7784 O   0  0  0  0  0  0  0  0  0  0  0  0
   -1.2851    2.2858   -0.5169 C   0  0  2  0  0  0  0  0  0  0  0  0
   -0.9318    1.6837   -1.8951 C   0  0  0  0  0  0  0  0  0  0  0  0
   -0.9347    3.7780   -0.4445 C   0  0  0  0  0  0  0  0  0  0  0  0
   -1.7806    2.2346   -3.0338 C   0  0  0  0  0  0  0  0  0  0  0  0
   -1.9022   -0.1128    0.2753 H   0  0  0  0  0  0  0  0  0  0  0  0
    0.4763    1.4827    0.4811 H   0  0  0  0  0  0  0  0  0  0  0  0
   -2.3726    2.2052   -0.3870 H   0  0  0  0  0  0  0  0  0  0  0  0
    0.1175    1.8959   -2.1305 H   0  0  0  0  0  0  0  0  0  0  0  0
   -1.0378    0.5926   -1.8742 H   0  0  0  0  0  0  0  0  0  0  0  0
    0.1428    3.9312   -0.5675 H   0  0  0  0  0  0  0  0  0  0  0  0
   -1.4310    4.3405   -1.2412 H   0  0  0  0  0  0  0  0  0  0  0  0
   -1.2329    4.2145    0.5142 H   0  0  0  0  0  0  0  0  0  0  0  0
   -2.8463    2.0570   -2.8643 H   0  0  0  0  0  0  0  0  0  0  0  0
   -1.5107    1.7420   -3.9737 H   0  0  0  0  0  0  0  0  0  0  0  0
   -1.6215    3.3103   -3.1583 H   0  0  0  0  0  0  0  0  0  0  0  0
    0.0817    3.2065    2.2433 N   0  0  0  0  0  0  0  0  0  0  0  0
    0.0973    3.9872    3.4594 C   0  0  2  0  0  0  0  0  0  0  0  0
    1.5218    4.4757    3.6865 C   0  0  0  0  0  0  0  0  0  0  0  0
    2.5059    3.9244    3.1979 O   0  0  0  0  0  0  0  0  0  0  0  0
   -0.3937    3.1727    4.6461 C   0  0  0  0  0  0  0  0  0  0  0  0
    0.7779    3.4080    1.5317 H   0  0  0  0  0  0  0  0  0  0  0  0
   -0.5617    4.8462    3.2923 H   0  0  0  0  0  0  0  0  0  0  0  0
    0.2541    2.3077    4.8290 H   0  0  0  0  0  0  0  0  0  0  0  0
   -0.4084    3.7740    5.5612 H   0  0  0  0  0  0  0  0  0  0  0  0
   -1.4073    2.7973    4.4685 H   0  0  0  0  0  0  0  0  0  0  0  0
    1.5681    5.5738    4.5340 N   0  0  0  0  0  0  0  0  0  0  0  0
    2.8059    6.2137    4.9140 C   0  0  0  0  0  0  0  0  0  0  0  0
    0.7013    5.9768    4.8774 H   0  0  0  0  0  0  0  0  0  0  0  0
    3.1739    5.7734    5.8525 H   0  0  0  0  0  0  0  0  0  0  0  0
    3.5539    6.0648    4.1213 H   0  0  0  0  0  0  0  0  0  0  0  0
    2.6329    7.2905    5.0573 H   0  0  0  0  0  0  0  0  0  0  0  0
  1  3  1  0  0  0  0
  1  7  1  0  0  0  0
  1  2  2  0  0  0  0
 37 38  1  0  0  0  0
 38 46  1  0  0  0  0
 38 39  2  0  0  0  0
  8  9  1  0  0  0  0
  9 17  1  0  0  0  0
  9 10  2  0  0  0  0
 18 19  1  0  0  0  0
 19 36  1  0  0  0  0
 19 20  2  0  0  0  0
 22 24  1  0  0  0  0
 37 40  1  0  0  0  0
  8 11  1  0  0  0  0
 21 23  1  0  0  0  0
 46 47  1  0  0  0  0
 21 22  1  0  0  0  0
 36 37  1  0  0  0  0
  7  8  1  0  0  0  0
 18 21  1  0  0  0  0
 17 18  1  0  0  0  0
  3  4  1  0  0  0  0
  3  5  1  0  0  0  0
  3  6  1  0  0  0  0
 24 33  1  0  0  0  0
 24 34  1  0  0  0  0
 24 35  1  0  0  0  0
 40 43  1  0  0  0  0
 40 44  1  0  0  0  0
 40 45  1  0  0  0  0
 11 14  1  0  0  0  0
 11 15  1  0  0  0  0
 11 16  1  0  0  0  0
 23 30  1  0  0  0  0
 23 31  1  0  0  0  0
 23 32  1  0  0  0  0
 47 49  1  0  0  0  0
 47 50  1  0  0  0  0
 47 51  1  0  0  0  0
 22 28  1  0  0  0  0
 22 29  1  0  0  0  0
 37 42  1  0  0  0  0
  8 13  1  0  0  0  0
 18 26  1  0  0  0  0
 21 27  1  0  0  0  0
 46 48  1  0  0  0  0
  7 12  1  0  0  0  0
 36 41  1  0  0  0  0
 17 25  1  0  0  0  0
M  END
$$$$

  -OEChem-05262214473D

 51 50  0     1  0  0  0  0  0999 V2000
    1.3524   -3.0009    1.4091 C   0  0  0  0  0  0  0  0  0  0  0  0
    1.8758   -1.9880    0.9598 O   0  0  0  0  0  0  0  0  0  0  0  0
    2.2030   -4.1782    1.7536 C   0  0  0  0  0  0  0  0  0  0  0  0
    2.3264   -4.8705    0.9053 H   0  0  0  0  0  0  0  0  0  0  0  0
    3.2257   -3.8876    2.0432 H   0  0  0  0  0  0  0  0  0  0  0  0
    1.8327   -4.8004    2.5839 H   0  0  0  0  0  0  0  0  0  0  0  0
    0.0005   -3.1873    1.6465 N   0  0  0  0  0  0  0  0  0  0  0  0
   -0.9949   -2.1807    1.3864 C   0  0  2  0  0  0  0  0  0  0  0  0
   -0.3083   -0.8216    1.4164 C   0  0  0  0  0  0  0  0  0  0  0  0
    0.7533   -0.6191    2.0022 O   0  0  0  0  0  0  0  0  0  0  0  0
   -2.1232   -2.2423    2.4042 C   0  0  0  0  0  0  0  0  0  0  0  0
   -0.3048   -4.0823    2.0245 H   0  0  0  0  0  0  0  0  0  0  0  0
   -1.3830   -2.3724    0.3801 H   0  0  0  0  0  0  0  0  0  0  0  0
   -1.7534   -2.0527    3.4185 H   0  0  0  0  0  0  0  0  0  0  0  0
   -2.8936   -1.4947    2.1882 H   0  0  0  0  0  0  0  0  0  0  0  0
   -2.5964   -3.2301    2.4022 H   0  0  0  0  0  0  0  0  0  0  0  0
   -1.0412    0.1517    0.7482 N   0  0  0  0  0  0  0  0  0  0  0  0
   -0.6079    1.5223    0.6467 C   0  0  2  0  0  0  0  0  0  0  0  0
   -0.8369    2.1955    1.9993 C   0  0  0  0  0  0  0  0  0  0  0  0
   -1.5254    1.6949    2.8864 O   0  0  0  0  0  0  0  0  0  0  0  0
   -1.2851    2.2858   -0.5169 C   0  0  2  0  0  0  0  0  0  0  0  0
   -0.9318    1.6837   -1.8951 C   0  0  0  0  0  0  0  0  0  0  0  0
   -0.9347    3.7780   -0.4445 C   0  0  0  0  0  0  0  0  0  0  0  0
   -1.7806    2.2346   -3.0338 C   0  0  0  0  0  0  0  0  0  0  0  0
   -1.9022   -0.1128    0.2753 H   0  0  0  0  0  0  0  0  0  0  0  0
    0.4763    1.4827    0.4811 H   0  0  0  0  0  0  0  0  0  0  0  0
   -2.3726    2.2052   -0.3870 H   0  0  0  0  0  0  0  0  0  0  0  0
    0.1175    1.8959   -2.1305 H   0  0  0  0  0  0  0  0  0  0  0  0
   -1.0378    0.5926   -1.8742 H   0  0  0  0  0  0  0  0  0  0  0  0
    0.1428    3.9312   -0.5675 H   0  0  0  0  0  0  0  0  0  0  0  0
   -1.4310    4.3405   -1.2412 H   0  0  0  0  0  0  0  0  0  0  0  0
   -1.2329    4.2145    0.5142 H   0  0  0  0  0  0  0  0  0  0  0  0
   -2.8463    2.0570   -2.8643 H   0  0  0  0  0  0  0  0  0  0  0  0
   -1.5107    1.7420   -3.9737 H   0  0  0  0  0  0  0  0  0  0  0  0
   -1.6215    3.3103   -3.1583 H   0  0  0  0  0  0  0  0  0  0  0  0
   -0.1560    3.3999    2.1069 N   0  0  0  0  0  0  0  0  0  0  0  0
   -0.1884    4.2259    3.2922 C   0  0  2  0  0  0  0  0  0  0  0  0
    1.1005    5.0360    3.3364 C   0  0  0  0  0  0  0  0  0  0  0  0
    2.1258    4.6976    2.7487 O   0  0  0  0  0  0  0  0  0  0  0  0
   -0.3447    3.3842    4.5492 C   0  0  0  0  0  0  0  0  0  0  0  0
    0.3924    3.7166    1.3128 H   0  0  0  0  0  0  0  0  0  0  0  0
   -1.0425    4.9031    3.1826 H   0  0  0  0  0  0  0  0  0  0  0  0
    0.5017    2.6994    4.6759 H   0  0  0  0  0  0  0  0  0  0  0  0
   -0.3978    4.0133    5.4439 H   0  0  0  0  0  0  0  0  0  0  0  0
   -1.2571    2.7799    4.5026 H   0  0  0  0  0  0  0  0  0  0  0  0
    0.9840    6.1585    4.1441 N   0  0  0  0  0  0  0  0  0  0  0  0
    2.0742    7.0814    4.3582 C   0  0  0  0  0  0  0  0  0  0  0  0
    0.0905    6.3718    4.5775 H   0  0  0  0  0  0  0  0  0  0  0  0
    2.6345    6.7856    5.2574 H   0  0  0  0  0  0  0  0  0  0  0  0
    2.7449    7.0651    3.4865 H   0  0  0  0  0  0  0  0  0  0  0  0
    1.6735    8.0969    4.4936 H   0  0  0  0  0  0  0  0  0  0  0  0
  1  3  1  0  0  0  0
  1  7  1  0  0  0  0
  1  2  2  0  0  0  0
 37 38  1  0  0  0  0
 38 46  1  0  0  0  0
 38 39  2  0  0  0  0
  8  9  1  0  0  0  0
  9 17  1  0  0  0  0
  9 10  2  0  0  0  0
 18 19  1  0  0  0  0
 19 36  1  0  0  0  0
 19 20  2  0  0  0  0
 22 24  1  0  0  0  0
 37 40  1  0  0  0  0
  8 11  1  0  0  0  0
 21 23  1  0  0  0  0
 46 47  1  0  0  0  0
 21 22  1  0  0  0  0
 36 37  1  0  0  0  0
  7  8  1  0  0  0  0
 18 21  1  0  0  0  0
 17 18  1  0  0  0  0
  3  4  1  0  0  0  0
  3  5  1  0  0  0  0
  3  6  1  0  0  0  0
 24 33  1  0  0  0  0
 24 34  1  0  0  0  0
 24 35  1  0  0  0  0
 40 43  1  0  0  0  0
 40 44  1  0  0  0  0
 40 45  1  0  0  0  0
 11 14  1  0  0  0  0
 11 15  1  0  0  0  0
 11 16  1  0  0  0  0
 23 30  1  0  0  0  0
 23 31  1  0  0  0  0
 23 32  1  0  0  0  0
 47 49  1  0  0  0  0
 47 50  1  0  0  0  0
 47 51  1  0  0  0  0
 22 28  1  0  0  0  0
 22 29  1  0  0  0  0
 37 42  1  0  0  0  0
  8 13  1  0  0  0  0
 18 26  1  0  0  0  0
 21 27  1  0  0  0  0
 46 48  1  0  0  0  0
  7 12  1  0  0  0  0
 36 41  1  0  0  0  0
 17 25  1  0  0  0  0
M  END
$$$$

  -OEChem-05262214473D

 51 50  0     1  0  0  0  0  0999 V2000
    1.3524   -3.0009    1.4091 C   0  0  0  0  0  0  0  0  0  0  0  0
    1.8758   -1.9880    0.9598 O   0  0  0  0  0  0  0  0  0  0  0  0
    2.2030   -4.1782    1.7536 C   0  0  0  0  0  0  0  0  0  0  0  0
    2.3264   -4.8705    0.9053 H   0  0  0  0  0  0  0  0  0  0  0  0
    3.2257   -3.8876    2.0432 H   0  0  0  0  0  0  0  0  0  0  0  0
    1.8327   -4.8004    2.5839 H   0  0  0  0  0  0  0  0  0  0  0  0
    0.0005   -3.1873    1.6465 N   0  0  0  0  0  0  0  0  0  0  0  0
   -0.9949   -2.1807    1.3864 C   0  0  2  0  0  0  0  0  0  0  0  0
   -0.3083   -0.8216    1.4164 C   0  0  0  0  0  0  0  0  0  0  0  0
    0.7533   -0.6191    2.0022 O   0  0  0  0  0  0  0  0  0  0  0  0
   -2.1232   -2.2423    2.4042 C   0  0  0  0  0  0  0  0  0  0  0  0
   -0.3048   -4.0823    2.0245 H   0  0  0  0  0  0  0  0  0  0  0  0
   -1.3830   -2.3724    0.3801 H   0  0  0  0  0  0  0  0  0  0  0  0
   -1.7534   -2.0527    3.4185 H   0  0  0  0  0  0  0  0  0  0  0  0
   -2.8936   -1.4947    2.1882 H   0  0  0  0  0  0  0  0  0  0  0  0
   -2.5964   -3.2301    2.4022 H   0  0  0  0  0  0  0  0  0  0  0  0
   -1.0412    0.1517    0.7482 N   0  0  0  0  0  0  0  0  0  0  0  0
   -0.6079    1.5223    0.6467 C   0  0  2  0  0  0  0  0  0  0  0  0
   -0.4790    2.0869    2.0609 C   0  0  0  0  0  0  0  0  0  0  0  0
   -0.6950    1.4178    3.0693 O   0  0  0  0  0  0  0  0  0  0  0  0
   -1.5284    2.3823   -0.2526 C   0  0  2  0  0  0  0  0  0  0  0  0
   -1.5411    1.8896   -1.7167 C   0  0  0  0  0  0  0  0  0  0  0  0
   -1.1293    3.8608   -0.1565 C   0  0  0  0  0  0  0  0  0  0  0  0
   -2.6277    2.5371   -2.5657 C   0  0  0  0  0  0  0  0  0  0  0  0
   -1.9022   -0.1128    0.2753 H   0  0  0  0  0  0  0  0  0  0  0  0
    0.4009    1.4869    0.2160 H   0  0  0  0  0  0  0  0  0  0  0  0
   -2.5526    2.3007    0.1353 H   0  0  0  0  0  0  0  0  0  0  0  0
   -0.5762    2.1110   -2.1872 H   0  0  0  0  0  0  0  0  0  0  0  0
   -1.6692    0.8012   -1.7528 H   0  0  0  0  0  0  0  0  0  0  0  0
   -0.1111    4.0143   -0.5298 H   0  0  0  0  0  0  0  0  0  0  0  0
   -1.7901    4.4896   -0.7611 H   0  0  0  0  0  0  0  0  0  0  0  0
   -1.1708    4.2217    0.8764 H   0  0  0  0  0  0  0  0  0  0  0  0
   -3.6238    2.3555   -2.1522 H   0  0  0  0  0  0  0  0  0  0  0  0
   -2.6106    2.1190   -3.5776 H   0  0  0  0  0  0  0  0  0  0  0  0
   -2.4740    3.6178   -2.6440 H   0  0  0  0  0  0  0  0  0  0  0  0
   -0.0637    3.4110    2.0603 N   0  0  0  0  0  0  0  0  0  0  0  0
    0.1551    4.1738    3.2681 C   0  0  2  0  0  0  0  0  0  0  0  0
    1.1841    5.2542    2.9620 C   0  0  0  0  0  0  0  0  0  0  0  0
    1.9836    5.1747    2.0317 O   0  0  0  0  0  0  0  0  0  0  0  0
    0.6248    3.2831    4.4077 C   0  0  0  0  0  0  0  0  0  0  0  0
    0.0944    3.8667    1.1665 H   0  0  0  0  0  0  0  0  0  0  0  0
   -0.8016    4.6419    3.5242 H   0  0  0  0  0  0  0  0  0  0  0  0
    1.5821    2.8054    4.1694 H   0  0  0  0  0  0  0  0  0  0  0  0
    0.7627    3.8578    5.3295 H   0  0  0  0  0  0  0  0  0  0  0  0
   -0.1027    2.4887    4.6067 H   0  0  0  0  0  0  0  0  0  0  0  0
    1.1332    6.2973    3.8760 N   0  0  0  0  0  0  0  0  0  0  0  0
    2.0172    7.4374    3.8079 C   0  0  0  0  0  0  0  0  0  0  0  0
    0.4253    6.2893    4.6045 H   0  0  0  0  0  0  0  0  0  0  0  0
    2.9052    7.2512    4.4298 H   0  0  0  0  0  0  0  0  0  0  0  0
    2.3274    7.5989    2.7650 H   0  0  0  0  0  0  0  0  0  0  0  0
    1.4921    8.3309    4.1768 H   0  0  0  0  0  0  0  0  0  0  0  0
  1  3  1  0  0  0  0
  1  7  1  0  0  0  0
  1  2  2  0  0  0  0
 37 38  1  0  0  0  0
 38 46  1  0  0  0  0
 38 39  2  0  0  0  0
  8  9  1  0  0  0  0
  9 17  1  0  0  0  0
  9 10  2  0  0  0  0
 18 19  1  0  0  0  0
 19 36  1  0  0  0  0
 19 20  2  0  0  0  0
 22 24  1  0  0  0  0
 37 40  1  0  0  0  0
  8 11  1  0  0  0  0
 21 23  1  0  0  0  0
 46 47  1  0  0  0  0
 21 22  1  0  0  0  0
 36 37  1  0  0  0  0
  7  8  1  0  0  0  0
 18 21  1  0  0  0  0
 17 18  1  0  0  0  0
  3  4  1  0  0  0  0
  3  5  1  0  0  0  0
  3  6  1  0  0  0  0
 24 33  1  0  0  0  0
 24 34  1  0  0  0  0
 24 35  1  0  0  0  0
 40 43  1  0  0  0  0
 40 44  1  0  0  0  0
 40 45  1  0  0  0  0
 11 14  1  0  0  0  0
 11 15  1  0  0  0  0
 11 16  1  0  0  0  0
 23 30  1  0  0  0  0
 23 31  1  0  0  0  0
 23 32  1  0  0  0  0
 47 49  1  0  0  0  0
 47 50  1  0  0  0  0
 47 51  1  0  0  0  0
 22 28  1  0  0  0  0
 22 29  1  0  0  0  0
 37 42  1  0  0  0  0
  8 13  1  0  0  0  0
 18 26  1  0  0  0  0
 21 27  1  0  0  0  0
 46 48  1  0  0  0  0
  7 12  1  0  0  0  0
 36 41  1  0  0  0  0
 17 25  1  0  0  0  0
M  END
$$$$

  -OEChem-05262214473D

 51 50  0     1  0  0  0  0  0999 V2000
    1.3524   -3.0009    1.4091 C   0  0  0  0  0  0  0  0  0  0  0  0
    1.8758   -1.9880    0.9598 O   0  0  0  0  0  0  0  0  0  0  0  0
    2.2030   -4.1782    1.7536 C   0  0  0  0  0  0  0  0  0  0  0  0
    2.3264   -4.8705    0.9053 H   0  0  0  0  0  0  0  0  0  0  0  0
    3.2257   -3.8876    2.0432 H   0  0  0  0  0  0  0  0  0  0  0  0
    1.8327   -4.8004    2.5839 H   0  0  0  0  0  0  0  0  0  0  0  0
    0.0005   -3.1873    1.6465 N   0  0  0  0  0  0  0  0  0  0  0  0
   -0.9949   -2.1807    1.3864 C   0  0  2  0  0  0  0  0  0  0  0  0
   -0.3083   -0.8216    1.4164 C   0  0  0  0  0  0  0  0  0  0  0  0
    0.7533   -0.6191    2.0022 O   0  0  0  0  0  0  0  0  0  0  0  0
   -2.1232   -2.2423    2.4042 C   0  0  0  0  0  0  0  0  0  0  0  0
   -0.3048   -4.0823    2.0245 H   0  0  0  0  0  0  0  0  0  0  0  0
   -1.3830   -2.3724    0.3801 H   0  0  0  0  0  0  0  0  0  0  0  0
   -1.7534   -2.0527    3.4185 H   0  0  0  0  0  0  0  0  0  0  0  0
   -2.8936   -1.4947    2.1882 H   0  0  0  0  0  0  0  0  0  0  0  0
   -2.5964   -3.2301    2.4022 H   0  0  0  0  0  0  0  0  0  0  0  0
   -1.0412    0.1517    0.7482 N   0  0  0  0  0  0  0  0  0  0  0  0
   -0.6079    1.5223    0.6467 C   0  0  2  0  0  0  0  0  0  0  0  0
   -0.4790    2.0869    2.0609 C   0  0  0  0  0  0  0  0  0  0  0  0
   -0.4290    1.3752    3.0621 O   0  0  0  0  0  0  0  0  0  0  0  0
   -1.5284    2.3823   -0.2526 C   0  0  2  0  0  0  0  0  0  0  0  0
   -1.5411    1.8896   -1.7167 C   0  0  0  0  0  0  0  0  0  0  0  0
   -1.1293    3.8608   -0.1565 C   0  0  0  0  0  0  0  0  0  0  0  0
   -2.6277    2.5371   -2.5657 C   0  0  0  0  0  0  0  0  0  0  0  0
   -1.9022   -0.1128    0.2753 H   0  0  0  0  0  0  0  0  0  0  0  0
    0.4009    1.4869    0.2160 H   0  0  0  0  0  0  0  0  0  0  0  0
   -2.5526    2.3007    0.1353 H   0  0  0  0  0  0  0  0  0  0  0  0
   -0.5762    2.1110   -2.1872 H   0  0  0  0  0  0  0  0  0  0  0  0
   -1.6692    0.8012   -1.7528 H   0  0  0  0  0  0  0  0  0  0  0  0
   -0.1111    4.0143   -0.5298 H   0  0  0  0  0  0  0  0  0  0  0  0
   -1.7901    4.4896   -0.7611 H   0  0  0  0  0  0  0  0  0  0  0  0
   -1.1708    4.2217    0.8764 H   0  0  0  0  0  0  0  0  0  0  0  0
   -3.6238    2.3555   -2.1522 H   0  0  0  0  0  0  0  0  0  0  0  0
   -2.6106    2.1190   -3.5776 H   0  0  0  0  0  0  0  0  0  0  0  0
   -2.4740    3.6178   -2.6440 H   0  0  0  0  0  0  0  0  0  0  0  0
   -0.3935    3.4719    2.0660 N   0  0  0  0  0  0  0  0  0  0  0  0
   -0.2453    4.2527    3.2731 C   0  0  2  0  0  0  0  0  0  0  0  0
    0.4612    5.5519    2.9091 C   0  0  0  0  0  0  0  0  0  0  0  0
    1.1611    5.6766    1.9063 O   0  0  0  0  0  0  0  0  0  0  0  0
    0.5329    3.4895    4.3337 C   0  0  0  0  0  0  0  0  0  0  0  0
   -0.4373    3.9614    1.1771 H   0  0  0  0  0  0  0  0  0  0  0  0
   -1.2561    4.4742    3.6326 H   0  0  0  0  0  0  0  0  0  0  0  0
    1.5483    3.2586    3.9915 H   0  0  0  0  0  0  0  0  0  0  0  0
    0.6197    4.0711    5.2574 H   0  0  0  0  0  0  0  0  0  0  0  0
    0.0390    2.5415    4.5727 H   0  0  0  0  0  0  0  0  0  0  0  0
    0.2531    6.5428    3.8583 N   0  0  0  0  0  0  0  0  0  0  0  0
    0.8286    7.8627    3.7465 C   0  0  0  0  0  0  0  0  0  0  0  0
   -0.3573    6.3573    4.6487 H   0  0  0  0  0  0  0  0  0  0  0  0
    1.7921    7.8893    4.2765 H   0  0  0  0  0  0  0  0  0  0  0  0
    0.9873    8.1047    2.6852 H   0  0  0  0  0  0  0  0  0  0  0  0
    0.1446    8.5998    4.1923 H   0  0  0  0  0  0  0  0  0  0  0  0
  1  3  1  0  0  0  0
  1  7  1  0  0  0  0
  1  2  2  0  0  0  0
 37 38  1  0  0  0  0
 38 46  1  0  0  0  0
 38 39  2  0  0  0  0
  8  9  1  0  0  0  0
  9 17  1  0  0  0  0
  9 10  2  0  0  0  0
 18 19  1  0  0  0  0
 19 36  1  0  0  0  0
 19 20  2  0  0  0  0
 22 24  1  0  0  0  0
 37 40  1  0  0  0  0
  8 11  1  0  0  0  0
 21 23  1  0  0  0  0
 46 47  1  0  0  0  0
 21 22  1  0  0  0  0
 36 37  1  0  0  0  0
  7  8  1  0  0  0  0
 18 21  1  0  0  0  0
 17 18  1  0  0  0  0
  3  4  1  0  0  0  0
  3  5  1  0  0  0  0
  3  6  1  0  0  0  0
 24 33  1  0  0  0  0
 24 34  1  0  0  0  0
 24 35  1  0  0  0  0
 40 43  1  0  0  0  0
 40 44  1  0  0  0  0
 40 45  1  0  0  0  0
 11 14  1  0  0  0  0
 11 15  1  0  0  0  0
 11 16  1  0  0  0  0
 23 30  1  0  0  0  0
 23 31  1  0  0  0  0
 23 32  1  0  0  0  0
 47 49  1  0  0  0  0
 47 50  1  0  0  0  0
 47 51  1  0  0  0  0
 22 28  1  0  0  0  0
 22 29  1  0  0  0  0
 37 42  1  0  0  0  0
  8 13  1  0  0  0  0
 18 26  1  0  0  0  0
 21 27  1  0  0  0  0
 46 48  1  0  0  0  0
  7 12  1  0  0  0  0
 36 41  1  0  0  0  0
 17 25  1  0  0  0  0
M  END
$$$$

  -OEChem-05262214473D

 51 50  0     1  0  0  0  0  0999 V2000
    1.3524   -3.0009    1.4091 C   0  0  0  0  0  0  0  0  0  0  0  0
    1.8758   -1.9880    0.9598 O   0  0  0  0  0  0  0  0  0  0  0  0
    2.2030   -4.1782    1.7536 C   0  0  0  0  0  0  0  0  0  0  0  0
    2.3264   -4.8705    0.9053 H   0  0  0  0  0  0  0  0  0  0  0  0
    3.2257   -3.8876    2.0432 H   0  0  0  0  0  0  0  0  0  0  0  0
    1.8327   -4.8004    2.5839 H   0  0  0  0  0  0  0  0  0  0  0  0
    0.0005   -3.1873    1.6465 N   0  0  0  0  0  0  0  0  0  0  0  0
   -0.9949   -2.1807    1.3864 C   0  0  2  0  0  0  0  0  0  0  0  0
   -0.3083   -0.8216    1.4164 C   0  0  0  0  0  0  0  0  0  0  0  0
    0.7533   -0.6191    2.0022 O   0  0  0  0  0  0  0  0  0  0  0  0
   -2.1232   -2.2423    2.4042 C   0  0  0  0  0  0  0  0  0  0  0  0
   -0.3048   -4.0823    2.0245 H   0  0  0  0  0  0  0  0  0  0  0  0
   -1.3830   -2.3724    0.3801 H   0  0  0  0  0  0  0  0  0  0  0  0
   -1.7534   -2.0527    3.4185 H   0  0  0  0  0  0  0  0  0  0  0  0
   -2.8936   -1.4947    2.1882 H   0  0  0  0  0  0  0  0  0  0  0  0
   -2.5964   -3.2301    2.4022 H   0  0  0  0  0  0  0  0  0  0  0  0
   -1.0412    0.1517    0.7482 N   0  0  0  0  0  0  0  0  0  0  0  0
   -0.6079    1.5223    0.6467 C   0  0  2  0  0  0  0  0  0  0  0  0
   -0.4790    2.0869    2.0609 C   0  0  0  0  0  0  0  0  0  0  0  0
   -0.1626    1.3980    3.0287 O   0  0  0  0  0  0  0  0  0  0  0  0
   -1.5284    2.3823   -0.2526 C   0  0  2  0  0  0  0  0  0  0  0  0
   -1.5411    1.8896   -1.7167 C   0  0  0  0  0  0  0  0  0  0  0  0
   -1.1293    3.8608   -0.1565 C   0  0  0  0  0  0  0  0  0  0  0  0
   -2.6277    2.5371   -2.5657 C   0  0  0  0  0  0  0  0  0  0  0  0
   -1.9022   -0.1128    0.2753 H   0  0  0  0  0  0  0  0  0  0  0  0
    0.4009    1.4869    0.2160 H   0  0  0  0  0  0  0  0  0  0  0  0
   -2.5526    2.3007    0.1353 H   0  0  0  0  0  0  0  0  0  0  0  0
   -0.5762    2.1110   -2.1872 H   0  0  0  0  0  0  0  0  0  0  0  0
   -1.6692    0.8012   -1.7528 H   0  0  0  0  0  0  0  0  0  0  0  0
   -0.1111    4.0143   -0.5298 H   0  0  0  0  0  0  0  0  0  0  0  0
   -1.7901    4.4896   -0.7611 H   0  0  0  0  0  0  0  0  0  0  0  0
   -1.1708    4.2217    0.8764 H   0  0  0  0  0  0  0  0  0  0  0  0
   -3.6238    2.3555   -2.1522 H   0  0  0  0  0  0  0  0  0  0  0  0
   -2.6106    2.1190   -3.5776 H   0  0  0  0  0  0  0  0  0  0  0  0
   -2.4740    3.6178   -2.6440 H   0  0  0  0  0  0  0  0  0  0  0  0
   -0.7261    3.4517    2.1045 N   0  0  0  0  0  0  0  0  0  0  0  0
   -0.6505    4.2328    3.3180 C   0  0  2  0  0  0  0  0  0  0  0  0
   -0.3135    5.6674    2.9336 C   0  0  0  0  0  0  0  0  0  0  0  0
    0.2345    5.9671    1.8748 O   0  0  0  0  0  0  0  0  0  0  0  0
    0.3876    3.6685    4.2755 C   0  0  0  0  0  0  0  0  0  0  0  0
   -0.9725    3.9252    1.2404 H   0  0  0  0  0  0  0  0  0  0  0  0
   -1.6446    4.2010    3.7771 H   0  0  0  0  0  0  0  0  0  0  0  0
    1.3901    3.6921    3.8328 H   0  0  0  0  0  0  0  0  0  0  0  0
    0.4236    4.2444    5.2061 H   0  0  0  0  0  0  0  0  0  0  0  0
    0.1600    2.6271    4.5275 H   0  0  0  0  0  0  0  0  0  0  0  0
   -0.6575    6.5694    3.9307 N   0  0  0  0  0  0  0  0  0  0  0  0
   -0.4272    7.9901    3.8101 C   0  0  0  0  0  0  0  0  0  0  0  0
   -1.1253    6.2345    4.7678 H   0  0  0  0  0  0  0  0  0  0  0  0
    0.5495    8.2423    4.2489 H   0  0  0  0  0  0  0  0  0  0  0  0
   -0.4359    8.2740    2.7474 H   0  0  0  0  0  0  0  0  0  0  0  0
   -1.2200    8.5365    4.3420 H   0  0  0  0  0  0  0  0  0  0  0  0
  1  3  1  0  0  0  0
  1  7  1  0  0  0  0
  1  2  2  0  0  0  0
 37 38  1  0  0  0  0
 38 46  1  0  0  0  0
 38 39  2  0  0  0  0
  8  9  1  0  0  0  0
  9 17  1  0  0  0  0
  9 10  2  0  0  0  0
 18 19  1  0  0  0  0
 19 36  1  0  0  0  0
 19 20  2  0  0  0  0
 22 24  1  0  0  0  0
 37 40  1  0  0  0  0
  8 11  1  0  0  0  0
 21 23  1  0  0  0  0
 46 47  1  0  0  0  0
 21 22  1  0  0  0  0
 36 37  1  0  0  0  0
  7  8  1  0  0  0  0
 18 21  1  0  0  0  0
 17 18  1  0  0  0  0
  3  4  1  0  0  0  0
  3  5  1  0  0  0  0
  3  6  1  0  0  0  0
 24 33  1  0  0  0  0
 24 34  1  0  0  0  0
 24 35  1  0  0  0  0
 40 43  1  0  0  0  0
 40 44  1  0  0  0  0
 40 45  1  0  0  0  0
 11 14  1  0  0  0  0
 11 15  1  0  0  0  0
 11 16  1  0  0  0  0
 23 30  1  0  0  0  0
 23 31  1  0  0  0  0
 23 32  1  0  0  0  0
 47 49  1  0  0  0  0
 47 50  1  0  0  0  0
 47 51  1  0  0  0  0
 22 28  1  0  0  0  0
 22 29  1  0  0  0  0
 37 42  1  0  0  0  0
  8 13  1  0  0  0  0
 18 26  1  0  0  0  0
 21 27  1  0  0  0  0
 46 48  1  0  0  0  0
  7 12  1  0  0  0  0
 36 41  1  0  0  0  0
 17 25  1  0  0  0  0
M  END
$$$$

  -OEChem-05262214473D

 51 50  0     1  0  0  0  0  0999 V2000
    1.3524   -3.0009    1.4091 C   0  0  0  0  0  0  0  0  0  0  0  0
    1.8758   -1.9880    0.9598 O   0  0  0  0  0  0  0  0  0  0  0  0
    2.2030   -4.1782    1.7536 C   0  0  0  0  0  0  0  0  0  0  0  0
    2.3264   -4.8705    0.9053 H   0  0  0  0  0  0  0  0  0  0  0  0
    3.2257   -3.8876    2.0432 H   0  0  0  0  0  0  0  0  0  0  0  0
    1.8327   -4.8004    2.5839 H   0  0  0  0  0  0  0  0  0  0  0  0
    0.0005   -3.1873    1.6465 N   0  0  0  0  0  0  0  0  0  0  0  0
   -0.9949   -2.1807    1.3864 C   0  0  2  0  0  0  0  0  0  0  0  0
   -0.3083   -0.8216    1.4164 C   0  0  0  0  0  0  0  0  0  0  0  0
    0.7533   -0.6191    2.0022 O   0  0  0  0  0  0  0  0  0  0  0  0
   -2.1232   -2.2423    2.4042 C   0  0  0  0  0  0  0  0  0  0  0  0
   -0.3048   -4.0823    2.0245 H   0  0  0  0  0  0  0  0  0  0  0  0
   -1.3830   -2.3724    0.3801 H   0  0  0  0  0  0  0  0  0  0  0  0
   -1.7534   -2.0527    3.4185 H   0  0  0  0  0  0  0  0  0  0  0  0
   -2.8936   -1.4947    2.1882 H   0  0  0  0  0  0  0  0  0  0  0  0
   -2.5964   -3.2301    2.4022 H   0  0  0  0  0  0  0  0  0  0  0  0
   -1.0412    0.1517    0.7482 N   0  0  0  0  0  0  0  0  0  0  0  0
   -0.6079    1.5223    0.6467 C   0  0  2  0  0  0  0  0  0  0  0  0
   -0.4790    2.0869    2.0609 C   0  0  0  0  0  0  0  0  0  0  0  0
    0.0861    1.4845    2.9714 O   0  0  0  0  0  0  0  0  0  0  0  0
   -1.5284    2.3823   -0.2526 C   0  0  2  0  0  0  0  0  0  0  0  0
   -1.5411    1.8896   -1.7167 C   0  0  0  0  0  0  0  0  0  0  0  0
   -1.1293    3.8608   -0.1565 C   0  0  0  0  0  0  0  0  0  0  0  0
   -2.6277    2.5371   -2.5657 C   0  0  0  0  0  0  0  0  0  0  0  0
   -1.9022   -0.1128    0.2753 H   0  0  0  0  0  0  0  0  0  0  0  0
    0.4009    1.4869    0.2160 H   0  0  0  0  0  0  0  0  0  0  0  0
   -2.5526    2.3007    0.1353 H   0  0  0  0  0  0  0  0  0  0  0  0
   -0.5762    2.1110   -2.1872 H   0  0  0  0  0  0  0  0  0  0  0  0
   -1.6692    0.8012   -1.7528 H   0  0  0  0  0  0  0  0  0  0  0  0
   -0.1111    4.0143   -0.5298 H   0  0  0  0  0  0  0  0  0  0  0  0
   -1.7901    4.4896   -0.7611 H   0  0  0  0  0  0  0  0  0  0  0  0
   -1.1708    4.2217    0.8764 H   0  0  0  0  0  0  0  0  0  0  0  0
   -3.6238    2.3555   -2.1522 H   0  0  0  0  0  0  0  0  0  0  0  0
   -2.6106    2.1190   -3.5776 H   0  0  0  0  0  0  0  0  0  0  0  0
   -2.4740    3.6178   -2.6440 H   0  0  0  0  0  0  0  0  0  0  0  0
   -1.0389    3.3516    2.1729 N   0  0  0  0  0  0  0  0  0  0  0  0
   -1.0328    4.1156    3.3997 C   0  0  2  0  0  0  0  0  0  0  0  0
   -1.0871    5.5930    3.0339 C   0  0  0  0  0  0  0  0  0  0  0  0
   -0.7332    6.0265    1.9394 O   0  0  0  0  0  0  0  0  0  0  0  0
    0.1988    3.8079    4.2370 C   0  0  0  0  0  0  0  0  0  0  0  0
   -1.4748    3.7608    1.3518 H   0  0  0  0  0  0  0  0  0  0  0  0
   -1.9405    3.8409    3.9479 H   0  0  0  0  0  0  0  0  0  0  0  0
    1.1183    4.0765    3.7042 H   0  0  0  0  0  0  0  0  0  0  0  0
    0.1877    4.3660    5.1790 H   0  0  0  0  0  0  0  0  0  0  0  0
    0.2520    2.7398    4.4741 H   0  0  0  0  0  0  0  0  0  0  0  0
   -1.5366    6.3755    4.0883 N   0  0  0  0  0  0  0  0  0  0  0  0
   -1.6646    7.8111    3.9945 C   0  0  0  0  0  0  0  0  0  0  0  0
   -1.8264    5.9294    4.9535 H   0  0  0  0  0  0  0  0  0  0  0  0
   -0.7380    8.2863    4.3487 H   0  0  0  0  0  0  0  0  0  0  0  0
   -1.8451    8.0953    2.9473 H   0  0  0  0  0  0  0  0  0  0  0  0
   -2.5086    8.1452    4.6158 H   0  0  0  0  0  0  0  0  0  0  0  0
  1  3  1  0  0  0  0
  1  7  1  0  0  0  0
  1  2  2  0  0  0  0
 37 38  1  0  0  0  0
 38 46  1  0  0  0  0
 38 39  2  0  0  0  0
  8  9  1  0  0  0  0
  9 17  1  0  0  0  0
  9 10  2  0  0  0  0
 18 19  1  0  0  0  0
 19 36  1  0  0  0  0
 19 20  2  0  0  0  0
 22 24  1  0  0  0  0
 37 40  1  0  0  0  0
  8 11  1  0  0  0  0
 21 23  1  0  0  0  0
 46 47  1  0  0  0  0
 21 22  1  0  0  0  0
 36 37  1  0  0  0  0
  7  8  1  0  0  0  0
 18 21  1  0  0  0  0
 17 18  1  0  0  0  0
  3  4  1  0  0  0  0
  3  5  1  0  0  0  0
  3  6  1  0  0  0  0
 24 33  1  0  0  0  0
 24 34  1  0  0  0  0
 24 35  1  0  0  0  0
 40 43  1  0  0  0  0
 40 44  1  0  0  0  0
 40 45  1  0  0  0  0
 11 14  1  0  0  0  0
 11 15  1  0  0  0  0
 11 16  1  0  0  0  0
 23 30  1  0  0  0  0
 23 31  1  0  0  0  0
 23 32  1  0  0  0  0
 47 49  1  0  0  0  0
 47 50  1  0  0  0  0
 47 51  1  0  0  0  0
 22 28  1  0  0  0  0
 22 29  1  0  0  0  0
 37 42  1  0  0  0  0
  8 13  1  0  0  0  0
 18 26  1  0  0  0  0
 21 27  1  0  0  0  0
 46 48  1  0  0  0  0
  7 12  1  0  0  0  0
 36 41  1  0  0  0  0
 17 25  1  0  0  0  0
M  END
$$$$

  -OEChem-05262214473D

 51 50  0     1  0  0  0  0  0999 V2000
    1.3524   -3.0009    1.4091 C   0  0  0  0  0  0  0  0  0  0  0  0
    1.8758   -1.9880    0.9598 O   0  0  0  0  0  0  0  0  0  0  0  0
    2.2030   -4.1782    1.7536 C   0  0  0  0  0  0  0  0  0  0  0  0
    2.3264   -4.8705    0.9053 H   0  0  0  0  0  0  0  0  0  0  0  0
    3.2257   -3.8876    2.0432 H   0  0  0  0  0  0  0  0  0  0  0  0
    1.8327   -4.8004    2.5839 H   0  0  0  0  0  0  0  0  0  0  0  0
    0.0005   -3.1873    1.6465 N   0  0  0  0  0  0  0  0  0  0  0  0
   -0.9949   -2.1807    1.3864 C   0  0  2  0  0  0  0  0  0  0  0  0
   -0.3083   -0.8216    1.4164 C   0  0  0  0  0  0  0  0  0  0  0  0
    0.7533   -0.6191    2.0022 O   0  0  0  0  0  0  0  0  0  0  0  0
   -2.1232   -2.2423    2.4042 C   0  0  0  0  0  0  0  0  0  0  0  0
   -0.3048   -4.0823    2.0245 H   0  0  0  0  0  0  0  0  0  0  0  0
   -1.3830   -2.3724    0.3801 H   0  0  0  0  0  0  0  0  0  0  0  0
   -1.7534   -2.0527    3.4185 H   0  0  0  0  0  0  0  0  0  0  0  0
   -2.8936   -1.4947    2.1882 H   0  0  0  0  0  0  0  0  0  0  0  0
   -2.5964   -3.2301    2.4022 H   0  0  0  0  0  0  0  0  0  0  0  0
   -1.0412    0.1517    0.7482 N   0  0  0  0  0  0  0  0  0  0  0  0
   -0.6079    1.5223    0.6467 C   0  0  2  0  0  0  0  0  0  0  0  0
   -0.4790    2.0869    2.0609 C   0  0  0  0  0  0  0  0  0  0  0  0
    0.3002    1.6289    2.8943 O   0  0  0  0  0  0  0  0  0  0  0  0
   -1.5284    2.3823   -0.2526 C   0  0  2  0  0  0  0  0  0  0  0  0
   -1.5411    1.8896   -1.7167 C   0  0  0  0  0  0  0  0  0  0  0  0
   -1.1293    3.8608   -0.1565 C   0  0  0  0  0  0  0  0  0  0  0  0
   -2.6277    2.5371   -2.5657 C   0  0  0  0  0  0  0  0  0  0  0  0
   -1.9022   -0.1128    0.2753 H   0  0  0  0  0  0  0  0  0  0  0  0
    0.4009    1.4869    0.2160 H   0  0  0  0  0  0  0  0  0  0  0  0
   -2.5526    2.3007    0.1353 H   0  0  0  0  0  0  0  0  0  0  0  0
   -0.5762    2.1110   -2.1872 H   0  0  0  0  0  0  0  0  0  0  0  0
   -1.6692    0.8012   -1.7528 H   0  0  0  0  0  0  0  0  0  0  0  0
   -0.1111    4.0143   -0.5298 H   0  0  0  0  0  0  0  0  0  0  0  0
   -1.7901    4.4896   -0.7611 H   0  0  0  0  0  0  0  0  0  0  0  0
   -1.1708    4.2217    0.8764 H   0  0  0  0  0  0  0  0  0  0  0  0
   -3.6238    2.3555   -2.1522 H   0  0  0  0  0  0  0  0  0  0  0  0
   -2.6106    2.1190   -3.5776 H   0  0  0  0  0  0  0  0  0  0  0  0
   -2.4740    3.6178   -2.6440 H   0  0  0  0  0  0  0  0  0  0  0  0
   -1.3105    3.1785    2.2668 N   0  0  0  0  0  0  0  0  0  0  0  0
   -1.3662    3.9090    3.5125 C   0  0  2  0  0  0  0  0  0  0  0  0
   -1.8069    5.3336    3.2031 C   0  0  0  0  0  0  0  0  0  0  0  0
   -1.6759    5.8507    2.0955 O   0  0  0  0  0  0  0  0  0  0  0  0
   -0.0206    3.8981    4.2210 C   0  0  0  0  0  0  0  0  0  0  0  0
   -1.9099    3.4792    1.5040 H   0  0  0  0  0  0  0  0  0  0  0  0
   -2.1239    3.4184    4.1333 H   0  0  0  0  0  0  0  0  0  0  0  0
    0.7513    4.3854    3.6143 H   0  0  0  0  0  0  0  0  0  0  0  0
   -0.0718    4.4276    5.1781 H   0  0  0  0  0  0  0  0  0  0  0  0
    0.3088    2.8718    4.4162 H   0  0  0  0  0  0  0  0  0  0  0  0
   -2.3241    5.9743    4.3203 N   0  0  0  0  0  0  0  0  0  0  0  0
   -2.7994    7.3377    4.2869 C   0  0  0  0  0  0  0  0  0  0  0  0
   -2.4127    5.4627    5.1933 H   0  0  0  0  0  0  0  0  0  0  0  0
   -1.9826    8.0183    4.5692 H   0  0  0  0  0  0  0  0  0  0  0  0
   -3.1445    7.5808    3.2712 H   0  0  0  0  0  0  0  0  0  0  0  0
   -3.6334    7.4526    4.9949 H   0  0  0  0  0  0  0  0  0  0  0  0
  1  3  1  0  0  0  0
  1  7  1  0  0  0  0
  1  2  2  0  0  0  0
 37 38  1  0  0  0  0
 38 46  1  0  0  0  0
 38 39  2  0  0  0  0
  8  9  1  0  0  0  0
  9 17  1  0  0  0  0
  9 10  2  0  0  0  0
 18 19  1  0  0  0  0
 19 36  1  0  0  0  0
 19 20  2  0  0  0  0
 22 24  1  0  0  0  0
 37 40  1  0  0  0  0
  8 11  1  0  0  0  0
 21 23  1  0  0  0  0
 46 47  1  0  0  0  0
 21 22  1  0  0  0  0
 36 37  1  0  0  0  0
  7  8  1  0  0  0  0
 18 21  1  0  0  0  0
 17 18  1  0  0  0  0
  3  4  1  0  0  0  0
  3  5  1  0  0  0  0
  3  6  1  0  0  0  0
 24 33  1  0  0  0  0
 24 34  1  0  0  0  0
 24 35  1  0  0  0  0
 40 43  1  0  0  0  0
 40 44  1  0  0  0  0
 40 45  1  0  0  0  0
 11 14  1  0  0  0  0
 11 15  1  0  0  0  0
 11 16  1  0  0  0  0
 23 30  1  0  0  0  0
 23 31  1  0  0  0  0
 23 32  1  0  0  0  0
 47 49  1  0  0  0  0
 47 50  1  0  0  0  0
 47 51  1  0  0  0  0
 22 28  1  0  0  0  0
 22 29  1  0  0  0  0
 37 42  1  0  0  0  0
  8 13  1  0  0  0  0
 18 26  1  0  0  0  0
 21 27  1  0  0  0  0
 46 48  1  0  0  0  0
  7 12  1  0  0  0  0
 36 41  1  0  0  0  0
 17 25  1  0  0  0  0
M  END
$$$$

  -OEChem-05262214473D

 51 50  0     1  0  0  0  0  0999 V2000
    1.3524   -3.0009    1.4091 C   0  0  0  0  0  0  0  0  0  0  0  0
    1.8758   -1.9880    0.9598 O   0  0  0  0  0  0  0  0  0  0  0  0
    2.2030   -4.1782    1.7536 C   0  0  0  0  0  0  0  0  0  0  0  0
    2.3264   -4.8705    0.9053 H   0  0  0  0  0  0  0  0  0  0  0  0
    3.2257   -3.8876    2.0432 H   0  0  0  0  0  0  0  0  0  0  0  0
    1.8327   -4.8004    2.5839 H   0  0  0  0  0  0  0  0  0  0  0  0
    0.0005   -3.1873    1.6465 N   0  0  0  0  0  0  0  0  0  0  0  0
   -0.9949   -2.1807    1.3864 C   0  0  2  0  0  0  0  0  0  0  0  0
   -0.3083   -0.8216    1.4164 C   0  0  0  0  0  0  0  0  0  0  0  0
    0.7533   -0.6191    2.0022 O   0  0  0  0  0  0  0  0  0  0  0  0
   -2.1232   -2.2423    2.4042 C   0  0  0  0  0  0  0  0  0  0  0  0
   -0.3048   -4.0823    2.0245 H   0  0  0  0  0  0  0  0  0  0  0  0
   -1.3830   -2.3724    0.3801 H   0  0  0  0  0  0  0  0  0  0  0  0
   -1.7534   -2.0527    3.4185 H   0  0  0  0  0  0  0  0  0  0  0  0
   -2.8936   -1.4947    2.1882 H   0  0  0  0  0  0  0  0  0  0  0  0
   -2.5964   -3.2301    2.4022 H   0  0  0  0  0  0  0  0  0  0  0  0
   -1.0412    0.1517    0.7482 N   0  0  0  0  0  0  0  0  0  0  0  0
   -0.6079    1.5223    0.6467 C   0  0  2  0  0  0  0  0  0  0  0  0
   -0.4790    2.0869    2.0609 C   0  0  0  0  0  0  0  0  0  0  0  0
    0.4650    1.8213    2.8024 O   0  0  0  0  0  0  0  0  0  0  0  0
   -1.5284    2.3823   -0.2526 C   0  0  2  0  0  0  0  0  0  0  0  0
   -1.5411    1.8896   -1.7167 C   0  0  0  0  0  0  0  0  0  0  0  0
   -1.1293    3.8608   -0.1565 C   0  0  0  0  0  0  0  0  0  0  0  0
   -2.6277    2.5371   -2.5657 C   0  0  0  0  0  0  0  0  0  0  0  0
   -1.9022   -0.1128    0.2753 H   0  0  0  0  0  0  0  0  0  0  0  0
    0.4009    1.4869    0.2160 H   0  0  0  0  0  0  0  0  0  0  0  0
   -2.5526    2.3007    0.1353 H   0  0  0  0  0  0  0  0  0  0  0  0
   -0.5762    2.1110   -2.1872 H   0  0  0  0  0  0  0  0  0  0  0  0
   -1.6692    0.8012   -1.7528 H   0  0  0  0  0  0  0  0  0  0  0  0
   -0.1111    4.0143   -0.5298 H   0  0  0  0  0  0  0  0  0  0  0  0
   -1.7901    4.4896   -0.7611 H   0  0  0  0  0  0  0  0  0  0  0  0
   -1.1708    4.2217    0.8764 H   0  0  0  0  0  0  0  0  0  0  0  0
   -3.6238    2.3555   -2.1522 H   0  0  0  0  0  0  0  0  0  0  0  0
   -2.6106    2.1190   -3.5776 H   0  0  0  0  0  0  0  0  0  0  0  0
   -2.4740    3.6178   -2.6440 H   0  0  0  0  0  0  0  0  0  0  0  0
   -1.5224    2.9443    2.3797 N   0  0  0  0  0  0  0  0  0  0  0  0
   -1.6280    3.6272    3.6489 C   0  0  2  0  0  0  0  0  0  0  0  0
   -2.4239    4.9070    3.4297 C   0  0  0  0  0  0  0  0  0  0  0  0
   -2.5294    5.4516    2.3327 O   0  0  0  0  0  0  0  0  0  0  0  0
   -0.2556    3.9331    4.2285 C   0  0  0  0  0  0  0  0  0  0  0  0
   -2.2482    3.0996    1.6864 H   0  0  0  0  0  0  0  0  0  0  0  0
   -2.1820    2.9624    4.3206 H   0  0  0  0  0  0  0  0  0  0  0  0
    0.3143    4.5979    3.5693 H   0  0  0  0  0  0  0  0  0  0  0  0
   -0.3373    4.4249    5.2034 H   0  0  0  0  0  0  0  0  0  0  0  0
    0.3265    3.0143    4.3577 H   0  0  0  0  0  0  0  0  0  0  0  0
   -2.9665    5.3930    4.6110 N   0  0  0  0  0  0  0  0  0  0  0  0
   -3.7541    6.6023    4.6676 C   0  0  0  0  0  0  0  0  0  0  0  0
   -2.8443    4.8662    5.4708 H   0  0  0  0  0  0  0  0  0  0  0  0
   -3.0995    7.4565    4.8954 H   0  0  0  0  0  0  0  0  0  0  0  0
   -4.2454    6.7656    3.6971 H   0  0  0  0  0  0  0  0  0  0  0  0
   -4.5177    6.5059    5.4535 H   0  0  0  0  0  0  0  0  0  0  0  0
  1  3  1  0  0  0  0
  1  7  1  0  0  0  0
  1  2  2  0  0  0  0
 37 38  1  0  0  0  0
 38 46  1  0  0  0  0
 38 39  2  0  0  0  0
  8  9  1  0  0  0  0
  9 17  1  0  0  0  0
  9 10  2  0  0  0  0
 18 19  1  0  0  0  0
 19 36  1  0  0  0  0
 19 20  2  0  0  0  0
 22 24  1  0  0  0  0
 37 40  1  0  0  0  0
  8 11  1  0  0  0  0
 21 23  1  0  0  0  0
 46 47  1  0  0  0  0
 21 22  1  0  0  0  0
 36 37  1  0  0  0  0
  7  8  1  0  0  0  0
 18 21  1  0  0  0  0
 17 18  1  0  0  0  0
  3  4  1  0  0  0  0
  3  5  1  0  0  0  0
  3  6  1  0  0  0  0
 24 33  1  0  0  0  0
 24 34  1  0  0  0  0
 24 35  1  0  0  0  0
 40 43  1  0  0  0  0
 40 44  1  0  0  0  0
 40 45  1  0  0  0  0
 11 14  1  0  0  0  0
 11 15  1  0  0  0  0
 11 16  1  0  0  0  0
 23 30  1  0  0  0  0
 23 31  1  0  0  0  0
 23 32  1  0  0  0  0
 47 49  1  0  0  0  0
 47 50  1  0  0  0  0
 47 51  1  0  0  0  0
 22 28  1  0  0  0  0
 22 29  1  0  0  0  0
 37 42  1  0  0  0  0
  8 13  1  0  0  0  0
 18 26  1  0  0  0  0
 21 27  1  0  0  0  0
 46 48  1  0  0  0  0
  7 12  1  0  0  0  0
 36 41  1  0  0  0  0
 17 25  1  0  0  0  0
M  END
$$$$

  -OEChem-05262214473D

 51 50  0     1  0  0  0  0  0999 V2000
    1.3524   -3.0009    1.4091 C   0  0  0  0  0  0  0  0  0  0  0  0
    1.8758   -1.9880    0.9598 O   0  0  0  0  0  0  0  0  0  0  0  0
    2.2030   -4.1782    1.7536 C   0  0  0  0  0  0  0  0  0  0  0  0
    2.3264   -4.8705    0.9053 H   0  0  0  0  0  0  0  0  0  0  0  0
    3.2257   -3.8876    2.0432 H   0  0  0  0  0  0  0  0  0  0  0  0
    1.8327   -4.8004    2.5839 H   0  0  0  0  0  0  0  0  0  0  0  0
    0.0005   -3.1873    1.6465 N   0  0  0  0  0  0  0  0  0  0  0  0
   -0.9949   -2.1807    1.3864 C   0  0  2  0  0  0  0  0  0  0  0  0
   -0.3083   -0.8216    1.4164 C   0  0  0  0  0  0  0  0  0  0  0  0
    0.7533   -0.6191    2.0022 O   0  0  0  0  0  0  0  0  0  0  0  0
   -2.1232   -2.2423    2.4042 C   0  0  0  0  0  0  0  0  0  0  0  0
   -0.3048   -4.0823    2.0245 H   0  0  0  0  0  0  0  0  0  0  0  0
   -1.3830   -2.3724    0.3801 H   0  0  0  0  0  0  0  0  0  0  0  0
   -1.7534   -2.0527    3.4185 H   0  0  0  0  0  0  0  0  0  0  0  0
   -2.8936   -1.4947    2.1882 H   0  0  0  0  0  0  0  0  0  0  0  0
   -2.5964   -3.2301    2.4022 H   0  0  0  0  0  0  0  0  0  0  0  0
   -1.0412    0.1517    0.7482 N   0  0  0  0  0  0  0  0  0  0  0  0
   -0.6079    1.5223    0.6467 C   0  0  2  0  0  0  0  0  0  0  0  0
   -0.4790    2.0869    2.0609 C   0  0  0  0  0  0  0  0  0  0  0  0
    0.5692    2.0486    2.7021 O   0  0  0  0  0  0  0  0  0  0  0  0
   -1.5284    2.3823   -0.2526 C   0  0  2  0  0  0  0  0  0  0  0  0
   -1.5411    1.8896   -1.7167 C   0  0  0  0  0  0  0  0  0  0  0  0
   -1.1293    3.8608   -0.1565 C   0  0  0  0  0  0  0  0  0  0  0  0
   -2.6277    2.5371   -2.5657 C   0  0  0  0  0  0  0  0  0  0  0  0
   -1.9022   -0.1128    0.2753 H   0  0  0  0  0  0  0  0  0  0  0  0
    0.4009    1.4869    0.2160 H   0  0  0  0  0  0  0  0  0  0  0  0
   -2.5526    2.3007    0.1353 H   0  0  0  0  0  0  0  0  0  0  0  0
   -0.5762    2.1110   -2.1872 H   0  0  0  0  0  0  0  0  0  0  0  0
   -1.6692    0.8012   -1.7528 H   0  0  0  0  0  0  0  0  0  0  0  0
   -0.1111    4.0143   -0.5298 H   0  0  0  0  0  0  0  0  0  0  0  0
   -1.7901    4.4896   -0.7611 H   0  0  0  0  0  0  0  0  0  0  0  0
   -1.1708    4.2217    0.8764 H   0  0  0  0  0  0  0  0  0  0  0  0
   -3.6238    2.3555   -2.1522 H   0  0  0  0  0  0  0  0  0  0  0  0
   -2.6106    2.1190   -3.5776 H   0  0  0  0  0  0  0  0  0  0  0  0
   -2.4740    3.6178   -2.6440 H   0  0  0  0  0  0  0  0  0  0  0  0
   -1.6602    2.6648    2.5038 N   0  0  0  0  0  0  0  0  0  0  0  0
   -1.8003    3.2893    3.7996 C   0  0  2  0  0  0  0  0  0  0  0  0
   -2.8960    4.3422    3.6982 C   0  0  0  0  0  0  0  0  0  0  0  0
   -3.2356    4.8566    2.6347 O   0  0  0  0  0  0  0  0  0  0  0  0
   -0.4903    3.9104    4.2589 C   0  0  0  0  0  0  0  0  0  0  0  0
   -2.4667    2.6480    1.8866 H   0  0  0  0  0  0  0  0  0  0  0  0
   -2.1110    2.5039    4.4972 H   0  0  0  0  0  0  0  0  0  0  0  0
   -0.1630    4.6995    3.5722 H   0  0  0  0  0  0  0  0  0  0  0  0
   -0.5907    4.3581    5.2532 H   0  0  0  0  0  0  0  0  0  0  0  0
    0.3039    3.1573    4.3026 H   0  0  0  0  0  0  0  0  0  0  0  0
   -3.4201    4.6713    4.9405 N   0  0  0  0  0  0  0  0  0  0  0  0
   -4.4638    5.6550    5.1106 C   0  0  0  0  0  0  0  0  0  0  0  0
   -3.0919    4.1807    5.7671 H   0  0  0  0  0  0  0  0  0  0  0  0
   -4.0126    6.6392    5.3050 H   0  0  0  0  0  0  0  0  0  0  0  0
   -5.0727    5.7052    4.1959 H   0  0  0  0  0  0  0  0  0  0  0  0
   -5.1013    5.3697    5.9604 H   0  0  0  0  0  0  0  0  0  0  0  0
  1  3  1  0  0  0  0
  1  7  1  0  0  0  0
  1  2  2  0  0  0  0
 37 38  1  0  0  0  0
 38 46  1  0  0  0  0
 38 39  2  0  0  0  0
  8  9  1  0  0  0  0
  9 17  1  0  0  0  0
  9 10  2  0  0  0  0
 18 19  1  0  0  0  0
 19 36  1  0  0  0  0
 19 20  2  0  0  0  0
 22 24  1  0  0  0  0
 37 40  1  0  0  0  0
  8 11  1  0  0  0  0
 21 23  1  0  0  0  0
 46 47  1  0  0  0  0
 21 22  1  0  0  0  0
 36 37  1  0  0  0  0
  7  8  1  0  0  0  0
 18 21  1  0  0  0  0
 17 18  1  0  0  0  0
  3  4  1  0  0  0  0
  3  5  1  0  0  0  0
  3  6  1  0  0  0  0
 24 33  1  0  0  0  0
 24 34  1  0  0  0  0
 24 35  1  0  0  0  0
 40 43  1  0  0  0  0
 40 44  1  0  0  0  0
 40 45  1  0  0  0  0
 11 14  1  0  0  0  0
 11 15  1  0  0  0  0
 11 16  1  0  0  0  0
 23 30  1  0  0  0  0
 23 31  1  0  0  0  0
 23 32  1  0  0  0  0
 47 49  1  0  0  0  0
 47 50  1  0  0  0  0
 47 51  1  0  0  0  0
 22 28  1  0  0  0  0
 22 29  1  0  0  0  0
 37 42  1  0  0  0  0
  8 13  1  0  0  0  0
 18 26  1  0  0  0  0
 21 27  1  0  0  0  0
 46 48  1  0  0  0  0
  7 12  1  0  0  0  0
 36 41  1  0  0  0  0
 17 25  1  0  0  0  0
M  END
$$$$

  -OEChem-05262214473D

 51 50  0     1  0  0  0  0  0999 V2000
    1.3524   -3.0009    1.4091 C   0  0  0  0  0  0  0  0  0  0  0  0
    1.8758   -1.9880    0.9598 O   0  0  0  0  0  0  0  0  0  0  0  0
    2.2030   -4.1782    1.7536 C   0  0  0  0  0  0  0  0  0  0  0  0
    2.3264   -4.8705    0.9053 H   0  0  0  0  0  0  0  0  0  0  0  0
    3.2257   -3.8876    2.0432 H   0  0  0  0  0  0  0  0  0  0  0  0
    1.8327   -4.8004    2.5839 H   0  0  0  0  0  0  0  0  0  0  0  0
    0.0005   -3.1873    1.6465 N   0  0  0  0  0  0  0  0  0  0  0  0
   -0.9949   -2.1807    1.3864 C   0  0  2  0  0  0  0  0  0  0  0  0
   -0.3083   -0.8216    1.4164 C   0  0  0  0  0  0  0  0  0  0  0  0
    0.7533   -0.6191    2.0022 O   0  0  0  0  0  0  0  0  0  0  0  0
   -2.1232   -2.2423    2.4042 C   0  0  0  0  0  0  0  0  0  0  0  0
   -0.3048   -4.0823    2.0245 H   0  0  0  0  0  0  0  0  0  0  0  0
   -1.3830   -2.3724    0.3801 H   0  0  0  0  0  0  0  0  0  0  0  0
   -1.7534   -2.0527    3.4185 H   0  0  0  0  0  0  0  0  0  0  0  0
   -2.8936   -1.4947    2.1882 H   0  0  0  0  0  0  0  0  0  0  0  0
   -2.5964   -3.2301    2.4022 H   0  0  0  0  0  0  0  0  0  0  0  0
   -1.0412    0.1517    0.7482 N   0  0  0  0  0  0  0  0  0  0  0  0
   -0.6079    1.5223    0.6467 C   0  0  2  0  0  0  0  0  0  0  0  0
   -0.4790    2.0869    2.0609 C   0  0  0  0  0  0  0  0  0  0  0  0
    0.6059    2.2954    2.6003 O   0  0  0  0  0  0  0  0  0  0  0  0
   -1.5284    2.3823   -0.2526 C   0  0  2  0  0  0  0  0  0  0  0  0
   -1.5411    1.8896   -1.7167 C   0  0  0  0  0  0  0  0  0  0  0  0
   -1.1293    3.8608   -0.1565 C   0  0  0  0  0  0  0  0  0  0  0  0
   -2.6277    2.5371   -2.5657 C   0  0  0  0  0  0  0  0  0  0  0  0
   -1.9022   -0.1128    0.2753 H   0  0  0  0  0  0  0  0  0  0  0  0
    0.4009    1.4869    0.2160 H   0  0  0  0  0  0  0  0  0  0  0  0
   -2.5526    2.3007    0.1353 H   0  0  0  0  0  0  0  0  0  0  0  0
   -0.5762    2.1110   -2.1872 H   0  0  0  0  0  0  0  0  0  0  0  0
   -1.6692    0.8012   -1.7528 H   0  0  0  0  0  0  0  0  0  0  0  0
   -0.1111    4.0143   -0.5298 H   0  0  0  0  0  0  0  0  0  0  0  0
   -1.7901    4.4896   -0.7611 H   0  0  0  0  0  0  0  0  0  0  0  0
   -1.1708    4.2217    0.8764 H   0  0  0  0  0  0  0  0  0  0  0  0
   -3.6238    2.3555   -2.1522 H   0  0  0  0  0  0  0  0  0  0  0  0
   -2.6106    2.1190   -3.5776 H   0  0  0  0  0  0  0  0  0  0  0  0
   -2.4740    3.6178   -2.6440 H   0  0  0  0  0  0  0  0  0  0  0  0
   -1.7145    2.3591    2.6308 N   0  0  0  0  0  0  0  0  0  0  0  0
   -1.8714    2.9183    3.9542 C   0  0  2  0  0  0  0  0  0  0  0  0
   -3.1910    3.6777    3.9904 C   0  0  0  0  0  0  0  0  0  0  0  0
   -3.7464    4.1060    2.9809 O   0  0  0  0  0  0  0  0  0  0  0  0
   -0.7087    3.8316    4.3103 C   0  0  0  0  0  0  0  0  0  0  0  0
   -2.5503    2.1551    2.0910 H   0  0  0  0  0  0  0  0  0  0  0  0
   -1.9158    2.0742    4.6510 H   0  0  0  0  0  0  0  0  0  0  0  0
   -0.6481    4.6833    3.6230 H   0  0  0  0  0  0  0  0  0  0  0  0
   -0.8147    4.2319    5.3240 H   0  0  0  0  0  0  0  0  0  0  0  0
    0.2425    3.2913    4.2547 H   0  0  0  0  0  0  0  0  0  0  0  0
   -3.6538    3.8583    5.2864 N   0  0  0  0  0  0  0  0  0  0  0  0
   -4.8800    4.5603    5.5856 C   0  0  0  0  0  0  0  0  0  0  0  0
   -3.1384    3.4527    6.0620 H   0  0  0  0  0  0  0  0  0  0  0  0
   -4.6597    5.6221    5.7701 H   0  0  0  0  0  0  0  0  0  0  0  0
   -5.5702    4.4718    4.7337 H   0  0  0  0  0  0  0  0  0  0  0  0
   -5.3445    4.1214    6.4810 H   0  0  0  0  0  0  0  0  0  0  0  0
  1  3  1  0  0  0  0
  1  7  1  0  0  0  0
  1  2  2  0  0  0  0
 37 38  1  0  0  0  0
 38 46  1  0  0  0  0
 38 39  2  0  0  0  0
  8  9  1  0  0  0  0
  9 17  1  0  0  0  0
  9 10  2  0  0  0  0
 18 19  1  0  0  0  0
 19 36  1  0  0  0  0
 19 20  2  0  0  0  0
 22 24  1  0  0  0  0
 37 40  1  0  0  0  0
  8 11  1  0  0  0  0
 21 23  1  0  0  0  0
 46 47  1  0  0  0  0
 21 22  1  0  0  0  0
 36 37  1  0  0  0  0
  7  8  1  0  0  0  0
 18 21  1  0  0  0  0
 17 18  1  0  0  0  0
  3  4  1  0  0  0  0
  3  5  1  0  0  0  0
  3  6  1  0  0  0  0
 24 33  1  0  0  0  0
 24 34  1  0  0  0  0
 24 35  1  0  0  0  0
 40 43  1  0  0  0  0
 40 44  1  0  0  0  0
 40 45  1  0  0  0  0
 11 14  1  0  0  0  0
 11 15  1  0  0  0  0
 11 16  1  0  0  0  0
 23 30  1  0  0  0  0
 23 31  1  0  0  0  0
 23 32  1  0  0  0  0
 47 49  1  0  0  0  0
 47 50  1  0  0  0  0
 47 51  1  0  0  0  0
 22 28  1  0  0  0  0
 22 29  1  0  0  0  0
 37 42  1  0  0  0  0
  8 13  1  0  0  0  0
 18 26  1  0  0  0  0
 21 27  1  0  0  0  0
 46 48  1  0  0  0  0
  7 12  1  0  0  0  0
 36 41  1  0  0  0  0
 17 25  1  0  0  0  0
M  END
$$$$

  -OEChem-05262214473D

 51 50  0     1  0  0  0  0  0999 V2000
    1.3524   -3.0009    1.4091 C   0  0  0  0  0  0  0  0  0  0  0  0
    1.8758   -1.9880    0.9598 O   0  0  0  0  0  0  0  0  0  0  0  0
    2.2030   -4.1782    1.7536 C   0  0  0  0  0  0  0  0  0  0  0  0
    2.3264   -4.8705    0.9053 H   0  0  0  0  0  0  0  0  0  0  0  0
    3.2257   -3.8876    2.0432 H   0  0  0  0  0  0  0  0  0  0  0  0
    1.8327   -4.8004    2.5839 H   0  0  0  0  0  0  0  0  0  0  0  0
    0.0005   -3.1873    1.6465 N   0  0  0  0  0  0  0  0  0  0  0  0
   -0.9949   -2.1807    1.3864 C   0  0  2  0  0  0  0  0  0  0  0  0
   -0.3083   -0.8216    1.4164 C   0  0  0  0  0  0  0  0  0  0  0  0
    0.7533   -0.6191    2.0022 O   0  0  0  0  0  0  0  0  0  0  0  0
   -2.1232   -2.2423    2.4042 C   0  0  0  0  0  0  0  0  0  0  0  0
   -0.3048   -4.0823    2.0245 H   0  0  0  0  0  0  0  0  0  0  0  0
   -1.3830   -2.3724    0.3801 H   0  0  0  0  0  0  0  0  0  0  0  0
   -1.7534   -2.0527    3.4185 H   0  0  0  0  0  0  0  0  0  0  0  0
   -2.8936   -1.4947    2.1882 H   0  0  0  0  0  0  0  0  0  0  0  0
   -2.5964   -3.2301    2.4022 H   0  0  0  0  0  0  0  0  0  0  0  0
   -1.0412    0.1517    0.7482 N   0  0  0  0  0  0  0  0  0  0  0  0
   -0.6079    1.5223    0.6467 C   0  0  2  0  0  0  0  0  0  0  0  0
   -0.4790    2.0869    2.0609 C   0  0  0  0  0  0  0  0  0  0  0  0
    0.5726    2.5448    2.5038 O   0  0  0  0  0  0  0  0  0  0  0  0
   -1.5284    2.3823   -0.2526 C   0  0  2  0  0  0  0  0  0  0  0  0
   -1.5411    1.8896   -1.7167 C   0  0  0  0  0  0  0  0  0  0  0  0
   -1.1293    3.8608   -0.1565 C   0  0  0  0  0  0  0  0  0  0  0  0
   -2.6277    2.5371   -2.5657 C   0  0  0  0  0  0  0  0  0  0  0  0
   -1.9022   -0.1128    0.2753 H   0  0  0  0  0  0  0  0  0  0  0  0
    0.4009    1.4869    0.2160 H   0  0  0  0  0  0  0  0  0  0  0  0
   -2.5526    2.3007    0.1353 H   0  0  0  0  0  0  0  0  0  0  0  0
   -0.5762    2.1110   -2.1872 H   0  0  0  0  0  0  0  0  0  0  0  0
   -1.6692    0.8012   -1.7528 H   0  0  0  0  0  0  0  0  0  0  0  0
   -0.1111    4.0143   -0.5298 H   0  0  0  0  0  0  0  0  0  0  0  0
   -1.7901    4.4896   -0.7611 H   0  0  0  0  0  0  0  0  0  0  0  0
   -1.1708    4.2217    0.8764 H   0  0  0  0  0  0  0  0  0  0  0  0
   -3.6238    2.3555   -2.1522 H   0  0  0  0  0  0  0  0  0  0  0  0
   -2.6106    2.1190   -3.5776 H   0  0  0  0  0  0  0  0  0  0  0  0
   -2.4740    3.6178   -2.6440 H   0  0  0  0  0  0  0  0  0  0  0  0
   -1.6816    2.0480    2.7520 N   0  0  0  0  0  0  0  0  0  0  0  0
   -1.8364    2.5396    4.1022 C   0  0  2  0  0  0  0  0  0  0  0  0
   -3.2889    2.9588    4.2864 C   0  0  0  0  0  0  0  0  0  0  0  0
   -4.0269    3.2512    3.3478 O   0  0  0  0  0  0  0  0  0  0  0  0
   -0.8959    3.7021    4.3791 C   0  0  0  0  0  0  0  0  0  0  0  0
   -2.4935    1.6544    2.2857 H   0  0  0  0  0  0  0  0  0  0  0  0
   -1.6096    1.7025    4.7715 H   0  0  0  0  0  0  0  0  0  0  0  0
   -1.1079    4.5503    3.7180 H   0  0  0  0  0  0  0  0  0  0  0  0
   -0.9941    4.0548    5.4111 H   0  0  0  0  0  0  0  0  0  0  0  0
    0.1465    3.4071    4.2173 H   0  0  0  0  0  0  0  0  0  0  0  0
   -3.6517    3.0096    5.6251 N   0  0  0  0  0  0  0  0  0  0  0  0
   -4.9744    3.3928    6.0603 C   0  0  0  0  0  0  0  0  0  0  0  0
   -2.9809    2.7319    6.3354 H   0  0  0  0  0  0  0  0  0  0  0  0
   -4.9966    4.4745    6.2590 H   0  0  0  0  0  0  0  0  0  0  0  0
   -5.7040    3.1496    5.2738 H   0  0  0  0  0  0  0  0  0  0  0  0
   -5.2305    2.8459    6.9798 H   0  0  0  0  0  0  0  0  0  0  0  0
  1  3  1  0  0  0  0
  1  7  1  0  0  0  0
  1  2  2  0  0  0  0
 37 38  1  0  0  0  0
 38 46  1  0  0  0  0
 38 39  2  0  0  0  0
  8  9  1  0  0  0  0
  9 17  1  0  0  0  0
  9 10  2  0  0  0  0
 18 19  1  0  0  0  0
 19 36  1  0  0  0  0
 19 20  2  0  0  0  0
 22 24  1  0  0  0  0
 37 40  1  0  0  0  0
  8 11  1  0  0  0  0
 21 23  1  0  0  0  0
 46 47  1  0  0  0  0
 21 22  1  0  0  0  0
 36 37  1  0  0  0  0
  7  8  1  0  0  0  0
 18 21  1  0  0  0  0
 17 18  1  0  0  0  0
  3  4  1  0  0  0  0
  3  5  1  0  0  0  0
  3  6  1  0  0  0  0
 24 33  1  0  0  0  0
 24 34  1  0  0  0  0
 24 35  1  0  0  0  0
 40 43  1  0  0  0  0
 40 44  1  0  0  0  0
 40 45  1  0  0  0  0
 11 14  1  0  0  0  0
 11 15  1  0  0  0  0
 11 16  1  0  0  0  0
 23 30  1  0  0  0  0
 23 31  1  0  0  0  0
 23 32  1  0  0  0  0
 47 49  1  0  0  0  0
 47 50  1  0  0  0  0
 47 51  1  0  0  0  0
 22 28  1  0  0  0  0
 22 29  1  0  0  0  0
 37 42  1  0  0  0  0
  8 13  1  0  0  0  0
 18 26  1  0  0  0  0
 21 27  1  0  0  0  0
 46 48  1  0  0  0  0
  7 12  1  0  0  0  0
 36 41  1  0  0  0  0
 17 25  1  0  0  0  0
M  END
$$$$

  -OEChem-05262214473D

 51 50  0     1  0  0  0  0  0999 V2000
    1.3524   -3.0009    1.4091 C   0  0  0  0  0  0  0  0  0  0  0  0
    1.8758   -1.9880    0.9598 O   0  0  0  0  0  0  0  0  0  0  0  0
    2.2030   -4.1782    1.7536 C   0  0  0  0  0  0  0  0  0  0  0  0
    2.3264   -4.8705    0.9053 H   0  0  0  0  0  0  0  0  0  0  0  0
    3.2257   -3.8876    2.0432 H   0  0  0  0  0  0  0  0  0  0  0  0
    1.8327   -4.8004    2.5839 H   0  0  0  0  0  0  0  0  0  0  0  0
    0.0005   -3.1873    1.6465 N   0  0  0  0  0  0  0  0  0  0  0  0
   -0.9949   -2.1807    1.3864 C   0  0  2  0  0  0  0  0  0  0  0  0
   -0.3083   -0.8216    1.4164 C   0  0  0  0  0  0  0  0  0  0  0  0
    0.7533   -0.6191    2.0022 O   0  0  0  0  0  0  0  0  0  0  0  0
   -2.1232   -2.2423    2.4042 C   0  0  0  0  0  0  0  0  0  0  0  0
   -0.3048   -4.0823    2.0245 H   0  0  0  0  0  0  0  0  0  0  0  0
   -1.3830   -2.3724    0.3801 H   0  0  0  0  0  0  0  0  0  0  0  0
   -1.7534   -2.0527    3.4185 H   0  0  0  0  0  0  0  0  0  0  0  0
   -2.8936   -1.4947    2.1882 H   0  0  0  0  0  0  0  0  0  0  0  0
   -2.5964   -3.2301    2.4022 H   0  0  0  0  0  0  0  0  0  0  0  0
   -1.0412    0.1517    0.7482 N   0  0  0  0  0  0  0  0  0  0  0  0
   -0.6079    1.5223    0.6467 C   0  0  2  0  0  0  0  0  0  0  0  0
   -0.4790    2.0869    2.0609 C   0  0  0  0  0  0  0  0  0  0  0  0
    0.4713    2.7797    2.4192 O   0  0  0  0  0  0  0  0  0  0  0  0
   -1.5284    2.3823   -0.2526 C   0  0  2  0  0  0  0  0  0  0  0  0
   -1.5411    1.8896   -1.7167 C   0  0  0  0  0  0  0  0  0  0  0  0
   -1.1293    3.8608   -0.1565 C   0  0  0  0  0  0  0  0  0  0  0  0
   -2.6277    2.5371   -2.5657 C   0  0  0  0  0  0  0  0  0  0  0  0
   -1.9022   -0.1128    0.2753 H   0  0  0  0  0  0  0  0  0  0  0  0
    0.4009    1.4869    0.2160 H   0  0  0  0  0  0  0  0  0  0  0  0
   -2.5526    2.3007    0.1353 H   0  0  0  0  0  0  0  0  0  0  0  0
   -0.5762    2.1110   -2.1872 H   0  0  0  0  0  0  0  0  0  0  0  0
   -1.6692    0.8012   -1.7528 H   0  0  0  0  0  0  0  0  0  0  0  0
   -0.1111    4.0143   -0.5298 H   0  0  0  0  0  0  0  0  0  0  0  0
   -1.7901    4.4896   -0.7611 H   0  0  0  0  0  0  0  0  0  0  0  0
   -1.1708    4.2217    0.8764 H   0  0  0  0  0  0  0  0  0  0  0  0
   -3.6238    2.3555   -2.1522 H   0  0  0  0  0  0  0  0  0  0  0  0
   -2.6106    2.1190   -3.5776 H   0  0  0  0  0  0  0  0  0  0  0  0
   -2.4740    3.6178   -2.6440 H   0  0  0  0  0  0  0  0  0  0  0  0
   -1.5637    1.7528    2.8591 N   0  0  0  0  0  0  0  0  0  0  0  0
   -1.6978    2.1789    4.2336 C   0  0  2  0  0  0  0  0  0  0  0  0
   -3.1830    2.2344    4.5660 C   0  0  0  0  0  0  0  0  0  0  0  0
   -4.0580    2.3503    3.7103 O   0  0  0  0  0  0  0  0  0  0  0  0
   -1.0390    3.5306    4.4606 C   0  0  0  0  0  0  0  0  0  0  0  0
   -2.3002    1.1802    2.4574 H   0  0  0  0  0  0  0  0  0  0  0  0
   -1.2132    1.4142    4.8504 H   0  0  0  0  0  0  0  0  0  0  0  0
   -1.5112    4.3096    3.8509 H   0  0  0  0  0  0  0  0  0  0  0  0
   -1.1166    3.8388    5.5085 H   0  0  0  0  0  0  0  0  0  0  0  0
    0.0225    3.4967    4.1928 H   0  0  0  0  0  0  0  0  0  0  0  0
   -3.4140    2.1828    5.9335 N   0  0  0  0  0  0  0  0  0  0  0  0
   -4.7406    2.2321    6.5024 C   0  0  0  0  0  0  0  0  0  0  0  0
   -2.6299    2.0675    6.5687 H   0  0  0  0  0  0  0  0  0  0  0  0
   -5.0004    3.2746    6.7384 H   0  0  0  0  0  0  0  0  0  0  0  0
   -5.4648    1.8286    5.7794 H   0  0  0  0  0  0  0  0  0  0  0  0
   -4.7673    1.6304    7.4229 H   0  0  0  0  0  0  0  0  0  0  0  0
  1  3  1  0  0  0  0
  1  7  1  0  0  0  0
  1  2  2  0  0  0  0
 37 38  1  0  0  0  0
 38 46  1  0  0  0  0
 38 39  2  0  0  0  0
  8  9  1  0  0  0  0
  9 17  1  0  0  0  0
  9 10  2  0  0  0  0
 18 19  1  0  0  0  0
 19 36  1  0  0  0  0
 19 20  2  0  0  0  0
 22 24  1  0  0  0  0
 37 40  1  0  0  0  0
  8 11  1  0  0  0  0
 21 23  1  0  0  0  0
 46 47  1  0  0  0  0
 21 22  1  0  0  0  0
 36 37  1  0  0  0  0
  7  8  1  0  0  0  0
 18 21  1  0  0  0  0
 17 18  1  0  0  0  0
  3  4  1  0  0  0  0
  3  5  1  0  0  0  0
  3  6  1  0  0  0  0
 24 33  1  0  0  0  0
 24 34  1  0  0  0  0
 24 35  1  0  0  0  0
 40 43  1  0  0  0  0
 40 44  1  0  0  0  0
 40 45  1  0  0  0  0
 11 14  1  0  0  0  0
 11 15  1  0  0  0  0
 11 16  1  0  0  0  0
 23 30  1  0  0  0  0
 23 31  1  0  0  0  0
 23 32  1  0  0  0  0
 47 49  1  0  0  0  0
 47 50  1  0  0  0  0
 47 51  1  0  0  0  0
 22 28  1  0  0  0  0
 22 29  1  0  0  0  0
 37 42  1  0  0  0  0
  8 13  1  0  0  0  0
 18 26  1  0  0  0  0
 21 27  1  0  0  0  0
 46 48  1  0  0  0  0
  7 12  1  0  0  0  0
 36 41  1  0  0  0  0
 17 25  1  0  0  0  0
M  END
$$$$

  -OEChem-05262214473D

 51 50  0     1  0  0  0  0  0999 V2000
    1.3524   -3.0009    1.4091 C   0  0  0  0  0  0  0  0  0  0  0  0
    1.8758   -1.9880    0.9598 O   0  0  0  0  0  0  0  0  0  0  0  0
    2.2030   -4.1782    1.7536 C   0  0  0  0  0  0  0  0  0  0  0  0
    2.3264   -4.8705    0.9053 H   0  0  0  0  0  0  0  0  0  0  0  0
    3.2257   -3.8876    2.0432 H   0  0  0  0  0  0  0  0  0  0  0  0
    1.8327   -4.8004    2.5839 H   0  0  0  0  0  0  0  0  0  0  0  0
    0.0005   -3.1873    1.6465 N   0  0  0  0  0  0  0  0  0  0  0  0
   -0.9949   -2.1807    1.3864 C   0  0  2  0  0  0  0  0  0  0  0  0
   -0.3083   -0.8216    1.4164 C   0  0  0  0  0  0  0  0  0  0  0  0
    0.7533   -0.6191    2.0022 O   0  0  0  0  0  0  0  0  0  0  0  0
   -2.1232   -2.2423    2.4042 C   0  0  0  0  0  0  0  0  0  0  0  0
   -0.3048   -4.0823    2.0245 H   0  0  0  0  0  0  0  0  0  0  0  0
   -1.3830   -2.3724    0.3801 H   0  0  0  0  0  0  0  0  0  0  0  0
   -1.7534   -2.0527    3.4185 H   0  0  0  0  0  0  0  0  0  0  0  0
   -2.8936   -1.4947    2.1882 H   0  0  0  0  0  0  0  0  0  0  0  0
   -2.5964   -3.2301    2.4022 H   0  0  0  0  0  0  0  0  0  0  0  0
   -1.0412    0.1517    0.7482 N   0  0  0  0  0  0  0  0  0  0  0  0
   -0.6079    1.5223    0.6467 C   0  0  2  0  0  0  0  0  0  0  0  0
   -0.4790    2.0869    2.0609 C   0  0  0  0  0  0  0  0  0  0  0  0
    0.3092    2.9843    2.3523 O   0  0  0  0  0  0  0  0  0  0  0  0
   -1.5284    2.3823   -0.2526 C   0  0  2  0  0  0  0  0  0  0  0  0
   -1.5411    1.8896   -1.7167 C   0  0  0  0  0  0  0  0  0  0  0  0
   -1.1293    3.8608   -0.1565 C   0  0  0  0  0  0  0  0  0  0  0  0
   -2.6277    2.5371   -2.5657 C   0  0  0  0  0  0  0  0  0  0  0  0
   -1.9022   -0.1128    0.2753 H   0  0  0  0  0  0  0  0  0  0  0  0
    0.4009    1.4869    0.2160 H   0  0  0  0  0  0  0  0  0  0  0  0
   -2.5526    2.3007    0.1353 H   0  0  0  0  0  0  0  0  0  0  0  0
   -0.5762    2.1110   -2.1872 H   0  0  0  0  0  0  0  0  0  0  0  0
   -1.6692    0.8012   -1.7528 H   0  0  0  0  0  0  0  0  0  0  0  0
   -0.1111    4.0143   -0.5298 H   0  0  0  0  0  0  0  0  0  0  0  0
   -1.7901    4.4896   -0.7611 H   0  0  0  0  0  0  0  0  0  0  0  0
   -1.1708    4.2217    0.8764 H   0  0  0  0  0  0  0  0  0  0  0  0
   -3.6238    2.3555   -2.1522 H   0  0  0  0  0  0  0  0  0  0  0  0
   -2.6106    2.1190   -3.5776 H   0  0  0  0  0  0  0  0  0  0  0  0
   -2.4740    3.6178   -2.6440 H   0  0  0  0  0  0  0  0  0  0  0  0
   -1.3688    1.4935    2.9449 N   0  0  0  0  0  0  0  0  0  0  0  0
   -1.4649    1.8608    4.3393 C   0  0  2  0  0  0  0  0  0  0  0  0
   -2.8805    1.5540    4.8100 C   0  0  0  0  0  0  0  0  0  0  0  0
   -3.8376    1.4647    4.0438 O   0  0  0  0  0  0  0  0  0  0  0  0
   -1.1285    3.3289    4.5493 C   0  0  0  0  0  0  0  0  0  0  0  0
   -1.9834    0.7647    2.5944 H   0  0  0  0  0  0  0  0  0  0  0  0
   -0.7538    1.2289    4.8825 H   0  0  0  0  0  0  0  0  0  0  0  0
   -1.8303    3.9776    4.0125 H   0  0  0  0  0  0  0  0  0  0  0  0
   -1.1739    3.5987    5.6096 H   0  0  0  0  0  0  0  0  0  0  0  0
   -0.1210    3.5542    4.1829 H   0  0  0  0  0  0  0  0  0  0  0  0
   -2.9570    1.4344    6.1906 N   0  0  0  0  0  0  0  0  0  0  0  0
   -4.1945    1.1573    6.8818 C   0  0  0  0  0  0  0  0  0  0  0  0
   -2.1094    1.5047    6.7460 H   0  0  0  0  0  0  0  0  0  0  0  0
   -4.6709    2.1043    7.1757 H   0  0  0  0  0  0  0  0  0  0  0  0
   -4.8690    0.5988    6.2161 H   0  0  0  0  0  0  0  0  0  0  0  0
   -3.9863    0.5575    7.7800 H   0  0  0  0  0  0  0  0  0  0  0  0
  1  3  1  0  0  0  0
  1  7  1  0  0  0  0
  1  2  2  0  0  0  0
 37 38  1  0  0  0  0
 38 46  1  0  0  0  0
 38 39  2  0  0  0  0
  8  9  1  0  0  0  0
  9 17  1  0  0  0  0
  9 10  2  0  0  0  0
 18 19  1  0  0  0  0
 19 36  1  0  0  0  0
 19 20  2  0  0  0  0
 22 24  1  0  0  0  0
 37 40  1  0  0  0  0
  8 11  1  0  0  0  0
 21 23  1  0  0  0  0
 46 47  1  0  0  0  0
 21 22  1  0  0  0  0
 36 37  1  0  0  0  0
  7  8  1  0  0  0  0
 18 21  1  0  0  0  0
 17 18  1  0  0  0  0
  3  4  1  0  0  0  0
  3  5  1  0  0  0  0
  3  6  1  0  0  0  0
 24 33  1  0  0  0  0
 24 34  1  0  0  0  0
 24 35  1  0  0  0  0
 40 43  1  0  0  0  0
 40 44  1  0  0  0  0
 40 45  1  0  0  0  0
 11 14  1  0  0  0  0
 11 15  1  0  0  0  0
 11 16  1  0  0  0  0
 23 30  1  0  0  0  0
 23 31  1  0  0  0  0
 23 32  1  0  0  0  0
 47 49  1  0  0  0  0
 47 50  1  0  0  0  0
 47 51  1  0  0  0  0
 22 28  1  0  0  0  0
 22 29  1  0  0  0  0
 37 42  1  0  0  0  0
  8 13  1  0  0  0  0
 18 26  1  0  0  0  0
 21 27  1  0  0  0  0
 46 48  1  0  0  0  0
  7 12  1  0  0  0  0
 36 41  1  0  0  0  0
 17 25  1  0  0  0  0
M  END
$$$$

  -OEChem-05262214473D

 51 50  0     1  0  0  0  0  0999 V2000
    1.3524   -3.0009    1.4091 C   0  0  0  0  0  0  0  0  0  0  0  0
    1.8758   -1.9880    0.9598 O   0  0  0  0  0  0  0  0  0  0  0  0
    2.2030   -4.1782    1.7536 C   0  0  0  0  0  0  0  0  0  0  0  0
    2.3264   -4.8705    0.9053 H   0  0  0  0  0  0  0  0  0  0  0  0
    3.2257   -3.8876    2.0432 H   0  0  0  0  0  0  0  0  0  0  0  0
    1.8327   -4.8004    2.5839 H   0  0  0  0  0  0  0  0  0  0  0  0
    0.0005   -3.1873    1.6465 N   0  0  0  0  0  0  0  0  0  0  0  0
   -0.9949   -2.1807    1.3864 C   0  0  2  0  0  0  0  0  0  0  0  0
   -0.3083   -0.8216    1.4164 C   0  0  0  0  0  0  0  0  0  0  0  0
    0.7533   -0.6191    2.0022 O   0  0  0  0  0  0  0  0  0  0  0  0
   -2.1232   -2.2423    2.4042 C   0  0  0  0  0  0  0  0  0  0  0  0
   -0.3048   -4.0823    2.0245 H   0  0  0  0  0  0  0  0  0  0  0  0
   -1.3830   -2.3724    0.3801 H   0  0  0  0  0  0  0  0  0  0  0  0
   -1.7534   -2.0527    3.4185 H   0  0  0  0  0  0  0  0  0  0  0  0
   -2.8936   -1.4947    2.1882 H   0  0  0  0  0  0  0  0  0  0  0  0
   -2.5964   -3.2301    2.4022 H   0  0  0  0  0  0  0  0  0  0  0  0
   -1.0412    0.1517    0.7482 N   0  0  0  0  0  0  0  0  0  0  0  0
   -0.6079    1.5223    0.6467 C   0  0  2  0  0  0  0  0  0  0  0  0
   -0.4790    2.0869    2.0609 C   0  0  0  0  0  0  0  0  0  0  0  0
    0.0972    3.1446    2.3076 O   0  0  0  0  0  0  0  0  0  0  0  0
   -1.5284    2.3823   -0.2526 C   0  0  2  0  0  0  0  0  0  0  0  0
   -1.5411    1.8896   -1.7167 C   0  0  0  0  0  0  0  0  0  0  0  0
   -1.1293    3.8608   -0.1565 C   0  0  0  0  0  0  0  0  0  0  0  0
   -2.6277    2.5371   -2.5657 C   0  0  0  0  0  0  0  0  0  0  0  0
   -1.9022   -0.1128    0.2753 H   0  0  0  0  0  0  0  0  0  0  0  0
    0.4009    1.4869    0.2160 H   0  0  0  0  0  0  0  0  0  0  0  0
   -2.5526    2.3007    0.1353 H   0  0  0  0  0  0  0  0  0  0  0  0
   -0.5762    2.1110   -2.1872 H   0  0  0  0  0  0  0  0  0  0  0  0
   -1.6692    0.8012   -1.7528 H   0  0  0  0  0  0  0  0  0  0  0  0
   -0.1111    4.0143   -0.5298 H   0  0  0  0  0  0  0  0  0  0  0  0
   -1.7901    4.4896   -0.7611 H   0  0  0  0  0  0  0  0  0  0  0  0
   -1.1708    4.2217    0.8764 H   0  0  0  0  0  0  0  0  0  0  0  0
   -3.6238    2.3555   -2.1522 H   0  0  0  0  0  0  0  0  0  0  0  0
   -2.6106    2.1190   -3.5776 H   0  0  0  0  0  0  0  0  0  0  0  0
   -2.4740    3.6178   -2.6440 H   0  0  0  0  0  0  0  0  0  0  0  0
   -1.1103    1.2879    3.0034 N   0  0  0  0  0  0  0  0  0  0  0  0
   -1.1537    1.6070    4.4122 C   0  0  2  0  0  0  0  0  0  0  0  0
   -2.4019    0.9639    5.0020 C   0  0  0  0  0  0  0  0  0  0  0  0
   -3.3807    0.6548    4.3255 O   0  0  0  0  0  0  0  0  0  0  0  0
   -1.1581    3.1108    4.6391 C   0  0  0  0  0  0  0  0  0  0  0  0
   -1.5647    0.4363    2.6874 H   0  0  0  0  0  0  0  0  0  0  0  0
   -0.2626    1.1593    4.8655 H   0  0  0  0  0  0  0  0  0  0  0  0
   -2.0436    3.5770    4.1919 H   0  0  0  0  0  0  0  0  0  0  0  0
   -1.1620    3.3509    5.7074 H   0  0  0  0  0  0  0  0  0  0  0  0
   -0.2744    3.5755    4.1884 H   0  0  0  0  0  0  0  0  0  0  0  0
   -2.3116    0.8154    6.3789 N   0  0  0  0  0  0  0  0  0  0  0  0
   -3.3733    0.2417    7.1724 C   0  0  0  0  0  0  0  0  0  0  0  0
   -1.4549    1.0818    6.8551 H   0  0  0  0  0  0  0  0  0  0  0  0
   -4.0305    1.0431    7.5409 H   0  0  0  0  0  0  0  0  0  0  0  0
   -3.9572   -0.4559    6.5540 H   0  0  0  0  0  0  0  0  0  0  0  0
   -2.9408   -0.2996    8.0269 H   0  0  0  0  0  0  0  0  0  0  0  0
  1  3  1  0  0  0  0
  1  7  1  0  0  0  0
  1  2  2  0  0  0  0
 37 38  1  0  0  0  0
 38 46  1  0  0  0  0
 38 39  2  0  0  0  0
  8  9  1  0  0  0  0
  9 17  1  0  0  0  0
  9 10  2  0  0  0  0
 18 19  1  0  0  0  0
 19 36  1  0  0  0  0
 19 20  2  0  0  0  0
 22 24  1  0  0  0  0
 37 40  1  0  0  0  0
  8 11  1  0  0  0  0
 21 23  1  0  0  0  0
 46 47  1  0  0  0  0
 21 22  1  0  0  0  0
 36 37  1  0  0  0  0
  7  8  1  0  0  0  0
 18 21  1  0  0  0  0
 17 18  1  0  0  0  0
  3  4  1  0  0  0  0
  3  5  1  0  0  0  0
  3  6  1  0  0  0  0
 24 33  1  0  0  0  0
 24 34  1  0  0  0  0
 24 35  1  0  0  0  0
 40 43  1  0  0  0  0
 40 44  1  0  0  0  0
 40 45  1  0  0  0  0
 11 14  1  0  0  0  0
 11 15  1  0  0  0  0
 11 16  1  0  0  0  0
 23 30  1  0  0  0  0
 23 31  1  0  0  0  0
 23 32  1  0  0  0  0
 47 49  1  0  0  0  0
 47 50  1  0  0  0  0
 47 51  1  0  0  0  0
 22 28  1  0  0  0  0
 22 29  1  0  0  0  0
 37 42  1  0  0  0  0
  8 13  1  0  0  0  0
 18 26  1  0  0  0  0
 21 27  1  0  0  0  0
 46 48  1  0  0  0  0
  7 12  1  0  0  0  0
 36 41  1  0  0  0  0
 17 25  1  0  0  0  0
M  END
$$$$

  -OEChem-05262214473D

 51 50  0     1  0  0  0  0  0999 V2000
    1.3524   -3.0009    1.4091 C   0  0  0  0  0  0  0  0  0  0  0  0
    1.8758   -1.9880    0.9598 O   0  0  0  0  0  0  0  0  0  0  0  0
    2.2030   -4.1782    1.7536 C   0  0  0  0  0  0  0  0  0  0  0  0
    2.3264   -4.8705    0.9053 H   0  0  0  0  0  0  0  0  0  0  0  0
    3.2257   -3.8876    2.0432 H   0  0  0  0  0  0  0  0  0  0  0  0
    1.8327   -4.8004    2.5839 H   0  0  0  0  0  0  0  0  0  0  0  0
    0.0005   -3.1873    1.6465 N   0  0  0  0  0  0  0  0  0  0  0  0
   -0.9949   -2.1807    1.3864 C   0  0  2  0  0  0  0  0  0  0  0  0
   -0.3083   -0.8216    1.4164 C   0  0  0  0  0  0  0  0  0  0  0  0
    0.7533   -0.6191    2.0022 O   0  0  0  0  0  0  0  0  0  0  0  0
   -2.1232   -2.2423    2.4042 C   0  0  0  0  0  0  0  0  0  0  0  0
   -0.3048   -4.0823    2.0245 H   0  0  0  0  0  0  0  0  0  0  0  0
   -1.3830   -2.3724    0.3801 H   0  0  0  0  0  0  0  0  0  0  0  0
   -1.7534   -2.0527    3.4185 H   0  0  0  0  0  0  0  0  0  0  0  0
   -2.8936   -1.4947    2.1882 H   0  0  0  0  0  0  0  0  0  0  0  0
   -2.5964   -3.2301    2.4022 H   0  0  0  0  0  0  0  0  0  0  0  0
   -1.0412    0.1517    0.7482 N   0  0  0  0  0  0  0  0  0  0  0  0
   -0.6079    1.5223    0.6467 C   0  0  2  0  0  0  0  0  0  0  0  0
   -0.4790    2.0869    2.0609 C   0  0  0  0  0  0  0  0  0  0  0  0
   -0.1502    3.2495    2.2883 O   0  0  0  0  0  0  0  0  0  0  0  0
   -1.5284    2.3823   -0.2526 C   0  0  2  0  0  0  0  0  0  0  0  0
   -1.5411    1.8896   -1.7167 C   0  0  0  0  0  0  0  0  0  0  0  0
   -1.1293    3.8608   -0.1565 C   0  0  0  0  0  0  0  0  0  0  0  0
   -2.6277    2.5371   -2.5657 C   0  0  0  0  0  0  0  0  0  0  0  0
   -1.9022   -0.1128    0.2753 H   0  0  0  0  0  0  0  0  0  0  0  0
    0.4009    1.4869    0.2160 H   0  0  0  0  0  0  0  0  0  0  0  0
   -2.5526    2.3007    0.1353 H   0  0  0  0  0  0  0  0  0  0  0  0
   -0.5762    2.1110   -2.1872 H   0  0  0  0  0  0  0  0  0  0  0  0
   -1.6692    0.8012   -1.7528 H   0  0  0  0  0  0  0  0  0  0  0  0
   -0.1111    4.0143   -0.5298 H   0  0  0  0  0  0  0  0  0  0  0  0
   -1.7901    4.4896   -0.7611 H   0  0  0  0  0  0  0  0  0  0  0  0
   -1.1708    4.2217    0.8764 H   0  0  0  0  0  0  0  0  0  0  0  0
   -3.6238    2.3555   -2.1522 H   0  0  0  0  0  0  0  0  0  0  0  0
   -2.6106    2.1190   -3.5776 H   0  0  0  0  0  0  0  0  0  0  0  0
   -2.4740    3.6178   -2.6440 H   0  0  0  0  0  0  0  0  0  0  0  0
   -0.8058    1.1499    3.0307 N   0  0  0  0  0  0  0  0  0  0  0  0
   -0.7853    1.4349    4.4474 C   0  0  2  0  0  0  0  0  0  0  0  0
   -1.7800    0.5044    5.1287 C   0  0  0  0  0  0  0  0  0  0  0  0
   -2.7184   -0.0242    4.5362 O   0  0  0  0  0  0  0  0  0  0  0  0
   -1.1258    2.8910    4.7239 C   0  0  0  0  0  0  0  0  0  0  0  0
   -1.0728    0.2172    2.7300 H   0  0  0  0  0  0  0  0  0  0  0  0
    0.2270    1.2100    4.8006 H   0  0  0  0  0  0  0  0  0  0  0  0
   -2.1365    3.1350    4.3769 H   0  0  0  0  0  0  0  0  0  0  0  0
   -1.0819    3.1122    5.7954 H   0  0  0  0  0  0  0  0  0  0  0  0
   -0.4272    3.5592    4.2089 H   0  0  0  0  0  0  0  0  0  0  0  0
   -1.5220    0.3679    6.4856 N   0  0  0  0  0  0  0  0  0  0  0  0
   -2.3330   -0.4524    7.3547 C   0  0  0  0  0  0  0  0  0  0  0  0
   -0.7110    0.8277    6.8887 H   0  0  0  0  0  0  0  0  0  0  0  0
   -3.1228    0.1636    7.8093 H   0  0  0  0  0  0  0  0  0  0  0  0
   -2.7916   -1.2636    6.7702 H   0  0  0  0  0  0  0  0  0  0  0  0
   -1.7021   -0.8824    8.1466 H   0  0  0  0  0  0  0  0  0  0  0  0
  1  3  1  0  0  0  0
  1  7  1  0  0  0  0
  1  2  2  0  0  0  0
 37 38  1  0  0  0  0
 38 46  1  0  0  0  0
 38 39  2  0  0  0  0
  8  9  1  0  0  0  0
  9 17  1  0  0  0  0
  9 10  2  0  0  0  0
 18 19  1  0  0  0  0
 19 36  1  0  0  0  0
 19 20  2  0  0  0  0
 22 24  1  0  0  0  0
 37 40  1  0  0  0  0
  8 11  1  0  0  0  0
 21 23  1  0  0  0  0
 46 47  1  0  0  0  0
 21 22  1  0  0  0  0
 36 37  1  0  0  0  0
  7  8  1  0  0  0  0
 18 21  1  0  0  0  0
 17 18  1  0  0  0  0
  3  4  1  0  0  0  0
  3  5  1  0  0  0  0
  3  6  1  0  0  0  0
 24 33  1  0  0  0  0
 24 34  1  0  0  0  0
 24 35  1  0  0  0  0
 40 43  1  0  0  0  0
 40 44  1  0  0  0  0
 40 45  1  0  0  0  0
 11 14  1  0  0  0  0
 11 15  1  0  0  0  0
 11 16  1  0  0  0  0
 23 30  1  0  0  0  0
 23 31  1  0  0  0  0
 23 32  1  0  0  0  0
 47 49  1  0  0  0  0
 47 50  1  0  0  0  0
 47 51  1  0  0  0  0
 22 28  1  0  0  0  0
 22 29  1  0  0  0  0
 37 42  1  0  0  0  0
  8 13  1  0  0  0  0
 18 26  1  0  0  0  0
 21 27  1  0  0  0  0
 46 48  1  0  0  0  0
  7 12  1  0  0  0  0
 36 41  1  0  0  0  0
 17 25  1  0  0  0  0
M  END
$$$$

  -OEChem-05262214473D

 51 50  0     1  0  0  0  0  0999 V2000
    1.3524   -3.0009    1.4091 C   0  0  0  0  0  0  0  0  0  0  0  0
    1.8758   -1.9880    0.9598 O   0  0  0  0  0  0  0  0  0  0  0  0
    2.2030   -4.1782    1.7536 C   0  0  0  0  0  0  0  0  0  0  0  0
    2.3264   -4.8705    0.9053 H   0  0  0  0  0  0  0  0  0  0  0  0
    3.2257   -3.8876    2.0432 H   0  0  0  0  0  0  0  0  0  0  0  0
    1.8327   -4.8004    2.5839 H   0  0  0  0  0  0  0  0  0  0  0  0
    0.0005   -3.1873    1.6465 N   0  0  0  0  0  0  0  0  0  0  0  0
   -0.9949   -2.1807    1.3864 C   0  0  2  0  0  0  0  0  0  0  0  0
   -0.3083   -0.8216    1.4164 C   0  0  0  0  0  0  0  0  0  0  0  0
    0.7533   -0.6191    2.0022 O   0  0  0  0  0  0  0  0  0  0  0  0
   -2.1232   -2.2423    2.4042 C   0  0  0  0  0  0  0  0  0  0  0  0
   -0.3048   -4.0823    2.0245 H   0  0  0  0  0  0  0  0  0  0  0  0
   -1.3830   -2.3724    0.3801 H   0  0  0  0  0  0  0  0  0  0  0  0
   -1.7534   -2.0527    3.4185 H   0  0  0  0  0  0  0  0  0  0  0  0
   -2.8936   -1.4947    2.1882 H   0  0  0  0  0  0  0  0  0  0  0  0
   -2.5964   -3.2301    2.4022 H   0  0  0  0  0  0  0  0  0  0  0  0
   -1.0412    0.1517    0.7482 N   0  0  0  0  0  0  0  0  0  0  0  0
   -0.6079    1.5223    0.6467 C   0  0  2  0  0  0  0  0  0  0  0  0
   -0.4790    2.0869    2.0609 C   0  0  0  0  0  0  0  0  0  0  0  0
   -0.4162    3.2921    2.2956 O   0  0  0  0  0  0  0  0  0  0  0  0
   -1.5284    2.3823   -0.2526 C   0  0  2  0  0  0  0  0  0  0  0  0
   -1.5411    1.8896   -1.7167 C   0  0  0  0  0  0  0  0  0  0  0  0
   -1.1293    3.8608   -0.1565 C   0  0  0  0  0  0  0  0  0  0  0  0
   -2.6277    2.5371   -2.5657 C   0  0  0  0  0  0  0  0  0  0  0  0
   -1.9022   -0.1128    0.2753 H   0  0  0  0  0  0  0  0  0  0  0  0
    0.4009    1.4869    0.2160 H   0  0  0  0  0  0  0  0  0  0  0  0
   -2.5526    2.3007    0.1353 H   0  0  0  0  0  0  0  0  0  0  0  0
   -0.5762    2.1110   -2.1872 H   0  0  0  0  0  0  0  0  0  0  0  0
   -1.6692    0.8012   -1.7528 H   0  0  0  0  0  0  0  0  0  0  0  0
   -0.1111    4.0143   -0.5298 H   0  0  0  0  0  0  0  0  0  0  0  0
   -1.7901    4.4896   -0.7611 H   0  0  0  0  0  0  0  0  0  0  0  0
   -1.1708    4.2217    0.8764 H   0  0  0  0  0  0  0  0  0  0  0  0
   -3.6238    2.3555   -2.1522 H   0  0  0  0  0  0  0  0  0  0  0  0
   -2.6106    2.1190   -3.5776 H   0  0  0  0  0  0  0  0  0  0  0  0
   -2.4740    3.6178   -2.6440 H   0  0  0  0  0  0  0  0  0  0  0  0
   -0.4760    1.0890    3.0250 N   0  0  0  0  0  0  0  0  0  0  0  0
   -0.3849    1.3560    4.4424 C   0  0  2  0  0  0  0  0  0  0  0  0
   -1.0571    0.2067    5.1817 C   0  0  0  0  0  0  0  0  0  0  0  0
   -1.8959   -0.5261    4.6616 O   0  0  0  0  0  0  0  0  0  0  0  0
   -1.0339    2.6846    4.7979 C   0  0  0  0  0  0  0  0  0  0  0  0
   -0.5411    0.1226    2.7193 H   0  0  0  0  0  0  0  0  0  0  0  0
    0.6815    1.3778    4.6922 H   0  0  0  0  0  0  0  0  0  0  0  0
   -2.1027    2.6818    4.5547 H   0  0  0  0  0  0  0  0  0  0  0  0
   -0.9389    2.8989    5.8675 H   0  0  0  0  0  0  0  0  0  0  0  0
   -0.5689    3.5064    4.2428 H   0  0  0  0  0  0  0  0  0  0  0  0
   -0.6419    0.1224    6.5033 N   0  0  0  0  0  0  0  0  0  0  0  0
   -1.1444   -0.8777    7.4161 C   0  0  0  0  0  0  0  0  0  0  0  0
    0.0716    0.7598    6.8445 H   0  0  0  0  0  0  0  0  0  0  0  0
   -2.0098   -0.4744    7.9625 H   0  0  0  0  0  0  0  0  0  0  0  0
   -1.4515   -1.7694    6.8500 H   0  0  0  0  0  0  0  0  0  0  0  0
   -0.3545   -1.1513    8.1311 H   0  0  0  0  0  0  0  0  0  0  0  0
  1  3  1  0  0  0  0
  1  7  1  0  0  0  0
  1  2  2  0  0  0  0
 37 38  1  0  0  0  0
 38 46  1  0  0  0  0
 38 39  2  0  0  0  0
  8  9  1  0  0  0  0
  9 17  1  0  0  0  0
  9 10  2  0  0  0  0
 18 19  1  0  0  0  0
 19 36  1  0  0  0  0
 19 20  2  0  0  0  0
 22 24  1  0  0  0  0
 37 40  1  0  0  0  0
  8 11  1  0  0  0  0
 21 23  1  0  0  0  0
 46 47  1  0  0  0  0
 21 22  1  0  0  0  0
 36 37  1  0  0  0  0
  7  8  1  0  0  0  0
 18 21  1  0  0  0  0
 17 18  1  0  0  0  0
  3  4  1  0  0  0  0
  3  5  1  0  0  0  0
  3  6  1  0  0  0  0
 24 33  1  0  0  0  0
 24 34  1  0  0  0  0
 24 35  1  0  0  0  0
 40 43  1  0  0  0  0
 40 44  1  0  0  0  0
 40 45  1  0  0  0  0
 11 14  1  0  0  0  0
 11 15  1  0  0  0  0
 11 16  1  0  0  0  0
 23 30  1  0  0  0  0
 23 31  1  0  0  0  0
 23 32  1  0  0  0  0
 47 49  1  0  0  0  0
 47 50  1  0  0  0  0
 47 51  1  0  0  0  0
 22 28  1  0  0  0  0
 22 29  1  0  0  0  0
 37 42  1  0  0  0  0
  8 13  1  0  0  0  0
 18 26  1  0  0  0  0
 21 27  1  0  0  0  0
 46 48  1  0  0  0  0
  7 12  1  0  0  0  0
 36 41  1  0  0  0  0
 17 25  1  0  0  0  0
M  END
$$$$

  -OEChem-05262214473D

 51 50  0     1  0  0  0  0  0999 V2000
    1.3524   -3.0009    1.4091 C   0  0  0  0  0  0  0  0  0  0  0  0
    1.8758   -1.9880    0.9598 O   0  0  0  0  0  0  0  0  0  0  0  0
    2.2030   -4.1782    1.7536 C   0  0  0  0  0  0  0  0  0  0  0  0
    2.3264   -4.8705    0.9053 H   0  0  0  0  0  0  0  0  0  0  0  0
    3.2257   -3.8876    2.0432 H   0  0  0  0  0  0  0  0  0  0  0  0
    1.8327   -4.8004    2.5839 H   0  0  0  0  0  0  0  0  0  0  0  0
    0.0005   -3.1873    1.6465 N   0  0  0  0  0  0  0  0  0  0  0  0
   -0.9949   -2.1807    1.3864 C   0  0  2  0  0  0  0  0  0  0  0  0
   -0.3083   -0.8216    1.4164 C   0  0  0  0  0  0  0  0  0  0  0  0
    0.7533   -0.6191    2.0022 O   0  0  0  0  0  0  0  0  0  0  0  0
   -2.1232   -2.2423    2.4042 C   0  0  0  0  0  0  0  0  0  0  0  0
   -0.3048   -4.0823    2.0245 H   0  0  0  0  0  0  0  0  0  0  0  0
   -1.3830   -2.3724    0.3801 H   0  0  0  0  0  0  0  0  0  0  0  0
   -1.7534   -2.0527    3.4185 H   0  0  0  0  0  0  0  0  0  0  0  0
   -2.8936   -1.4947    2.1882 H   0  0  0  0  0  0  0  0  0  0  0  0
   -2.5964   -3.2301    2.4022 H   0  0  0  0  0  0  0  0  0  0  0  0
   -1.0412    0.1517    0.7482 N   0  0  0  0  0  0  0  0  0  0  0  0
   -0.6079    1.5223    0.6467 C   0  0  2  0  0  0  0  0  0  0  0  0
   -0.4790    2.0869    2.0609 C   0  0  0  0  0  0  0  0  0  0  0  0
   -0.6826    3.2693    2.3289 O   0  0  0  0  0  0  0  0  0  0  0  0
   -1.5284    2.3823   -0.2526 C   0  0  2  0  0  0  0  0  0  0  0  0
   -1.5411    1.8896   -1.7167 C   0  0  0  0  0  0  0  0  0  0  0  0
   -1.1293    3.8608   -0.1565 C   0  0  0  0  0  0  0  0  0  0  0  0
   -2.6277    2.5371   -2.5657 C   0  0  0  0  0  0  0  0  0  0  0  0
   -1.9022   -0.1128    0.2753 H   0  0  0  0  0  0  0  0  0  0  0  0
    0.4009    1.4869    0.2160 H   0  0  0  0  0  0  0  0  0  0  0  0
   -2.5526    2.3007    0.1353 H   0  0  0  0  0  0  0  0  0  0  0  0
   -0.5762    2.1110   -2.1872 H   0  0  0  0  0  0  0  0  0  0  0  0
   -1.6692    0.8012   -1.7528 H   0  0  0  0  0  0  0  0  0  0  0  0
   -0.1111    4.0143   -0.5298 H   0  0  0  0  0  0  0  0  0  0  0  0
   -1.7901    4.4896   -0.7611 H   0  0  0  0  0  0  0  0  0  0  0  0
   -1.1708    4.2217    0.8764 H   0  0  0  0  0  0  0  0  0  0  0  0
   -3.6238    2.3555   -2.1522 H   0  0  0  0  0  0  0  0  0  0  0  0
   -2.6106    2.1190   -3.5776 H   0  0  0  0  0  0  0  0  0  0  0  0
   -2.4740    3.6178   -2.6440 H   0  0  0  0  0  0  0  0  0  0  0  0
   -0.1434    1.1092    2.9866 N   0  0  0  0  0  0  0  0  0  0  0  0
    0.0203    1.3759    4.3975 C   0  0  2  0  0  0  0  0  0  0  0  0
   -0.2825    0.0911    5.1572 C   0  0  0  0  0  0  0  0  0  0  0  0
   -0.9693   -0.8166    4.6931 O   0  0  0  0  0  0  0  0  0  0  0  0
   -0.8886    2.5056    4.8561 C   0  0  0  0  0  0  0  0  0  0  0  0
   -0.0059    0.1587    2.6561 H   0  0  0  0  0  0  0  0  0  0  0  0
    1.0700    1.6510    4.5477 H   0  0  0  0  0  0  0  0  0  0  0  0
   -1.9445    2.2483    4.7134 H   0  0  0  0  0  0  0  0  0  0  0  0
   -0.7428    2.7256    5.9189 H   0  0  0  0  0  0  0  0  0  0  0  0
   -0.6898    3.4208    4.2881 H   0  0  0  0  0  0  0  0  0  0  0  0
    0.2687    0.0958    6.4309 N   0  0  0  0  0  0  0  0  0  0  0  0
    0.1114   -1.0051    7.3525 C   0  0  0  0  0  0  0  0  0  0  0  0
    0.8396    0.8825    6.7254 H   0  0  0  0  0  0  0  0  0  0  0  0
   -0.7671   -0.8275    7.9902 H   0  0  0  0  0  0  0  0  0  0  0  0
   -0.0284   -1.9387    6.7878 H   0  0  0  0  0  0  0  0  0  0  0  0
    1.0101   -1.0880    7.9813 H   0  0  0  0  0  0  0  0  0  0  0  0
  1  3  1  0  0  0  0
  1  7  1  0  0  0  0
  1  2  2  0  0  0  0
 37 38  1  0  0  0  0
 38 46  1  0  0  0  0
 38 39  2  0  0  0  0
  8  9  1  0  0  0  0
  9 17  1  0  0  0  0
  9 10  2  0  0  0  0
 18 19  1  0  0  0  0
 19 36  1  0  0  0  0
 19 20  2  0  0  0  0
 22 24  1  0  0  0  0
 37 40  1  0  0  0  0
  8 11  1  0  0  0  0
 21 23  1  0  0  0  0
 46 47  1  0  0  0  0
 21 22  1  0  0  0  0
 36 37  1  0  0  0  0
  7  8  1  0  0  0  0
 18 21  1  0  0  0  0
 17 18  1  0  0  0  0
  3  4  1  0  0  0  0
  3  5  1  0  0  0  0
  3  6  1  0  0  0  0
 24 33  1  0  0  0  0
 24 34  1  0  0  0  0
 24 35  1  0  0  0  0
 40 43  1  0  0  0  0
 40 44  1  0  0  0  0
 40 45  1  0  0  0  0
 11 14  1  0  0  0  0
 11 15  1  0  0  0  0
 11 16  1  0  0  0  0
 23 30  1  0  0  0  0
 23 31  1  0  0  0  0
 23 32  1  0  0  0  0
 47 49  1  0  0  0  0
 47 50  1  0  0  0  0
 47 51  1  0  0  0  0
 22 28  1  0  0  0  0
 22 29  1  0  0  0  0
 37 42  1  0  0  0  0
  8 13  1  0  0  0  0
 18 26  1  0  0  0  0
 21 27  1  0  0  0  0
 46 48  1  0  0  0  0
  7 12  1  0  0  0  0
 36 41  1  0  0  0  0
 17 25  1  0  0  0  0
M  END
$$$$

  -OEChem-05262214473D

 51 50  0     1  0  0  0  0  0999 V2000
    1.3524   -3.0009    1.4091 C   0  0  0  0  0  0  0  0  0  0  0  0
    1.8758   -1.9880    0.9598 O   0  0  0  0  0  0  0  0  0  0  0  0
    2.2030   -4.1782    1.7536 C   0  0  0  0  0  0  0  0  0  0  0  0
    2.3264   -4.8705    0.9053 H   0  0  0  0  0  0  0  0  0  0  0  0
    3.2257   -3.8876    2.0432 H   0  0  0  0  0  0  0  0  0  0  0  0
    1.8327   -4.8004    2.5839 H   0  0  0  0  0  0  0  0  0  0  0  0
    0.0005   -3.1873    1.6465 N   0  0  0  0  0  0  0  0  0  0  0  0
   -0.9949   -2.1807    1.3864 C   0  0  2  0  0  0  0  0  0  0  0  0
   -0.3083   -0.8216    1.4164 C   0  0  0  0  0  0  0  0  0  0  0  0
    0.7533   -0.6191    2.0022 O   0  0  0  0  0  0  0  0  0  0  0  0
   -2.1232   -2.2423    2.4042 C   0  0  0  0  0  0  0  0  0  0  0  0
   -0.3048   -4.0823    2.0245 H   0  0  0  0  0  0  0  0  0  0  0  0
   -1.3830   -2.3724    0.3801 H   0  0  0  0  0  0  0  0  0  0  0  0
   -1.7534   -2.0527    3.4185 H   0  0  0  0  0  0  0  0  0  0  0  0
   -2.8936   -1.4947    2.1882 H   0  0  0  0  0  0  0  0  0  0  0  0
   -2.5964   -3.2301    2.4022 H   0  0  0  0  0  0  0  0  0  0  0  0
   -1.0412    0.1517    0.7482 N   0  0  0  0  0  0  0  0  0  0  0  0
   -0.6079    1.5223    0.6467 C   0  0  2  0  0  0  0  0  0  0  0  0
   -0.4790    2.0869    2.0609 C   0  0  0  0  0  0  0  0  0  0  0  0
   -0.9313    3.1828    2.3862 O   0  0  0  0  0  0  0  0  0  0  0  0
   -1.5284    2.3823   -0.2526 C   0  0  2  0  0  0  0  0  0  0  0  0
   -1.5411    1.8896   -1.7167 C   0  0  0  0  0  0  0  0  0  0  0  0
   -1.1293    3.8608   -0.1565 C   0  0  0  0  0  0  0  0  0  0  0  0
   -2.6277    2.5371   -2.5657 C   0  0  0  0  0  0  0  0  0  0  0  0
   -1.9022   -0.1128    0.2753 H   0  0  0  0  0  0  0  0  0  0  0  0
    0.4009    1.4869    0.2160 H   0  0  0  0  0  0  0  0  0  0  0  0
   -2.5526    2.3007    0.1353 H   0  0  0  0  0  0  0  0  0  0  0  0
   -0.5762    2.1110   -2.1872 H   0  0  0  0  0  0  0  0  0  0  0  0
   -1.6692    0.8012   -1.7528 H   0  0  0  0  0  0  0  0  0  0  0  0
   -0.1111    4.0143   -0.5298 H   0  0  0  0  0  0  0  0  0  0  0  0
   -1.7901    4.4896   -0.7611 H   0  0  0  0  0  0  0  0  0  0  0  0
   -1.1708    4.2217    0.8764 H   0  0  0  0  0  0  0  0  0  0  0  0
   -3.6238    2.3555   -2.1522 H   0  0  0  0  0  0  0  0  0  0  0  0
   -2.6106    2.1190   -3.5776 H   0  0  0  0  0  0  0  0  0  0  0  0
   -2.4740    3.6178   -2.6440 H   0  0  0  0  0  0  0  0  0  0  0  0
    0.1694    1.2093    2.9181 N   0  0  0  0  0  0  0  0  0  0  0  0
    0.4026    1.4931    4.3158 C   0  0  2  0  0  0  0  0  0  0  0  0
    0.4911    0.1655    5.0569 C   0  0  0  0  0  0  0  0  0  0  0  0
   -0.0017   -0.8760    4.6285 O   0  0  0  0  0  0  0  0  0  0  0  0
   -0.6998    2.3662    4.8946 C   0  0  0  0  0  0  0  0  0  0  0  0
    0.4964    0.3232    2.5446 H   0  0  0  0  0  0  0  0  0  0  0  0
    1.3659    2.0111    4.3769 H   0  0  0  0  0  0  0  0  0  0  0  0
   -1.6727    1.8639    4.8421 H   0  0  0  0  0  0  0  0  0  0  0  0
   -0.5070    2.6040    5.9459 H   0  0  0  0  0  0  0  0  0  0  0  0
   -0.7819    3.3081    4.3415 H   0  0  0  0  0  0  0  0  0  0  0  0
    1.1477    0.2897    6.2733 N   0  0  0  0  0  0  0  0  0  0  0  0
    1.3488   -0.8261    7.1681 C   0  0  0  0  0  0  0  0  0  0  0  0
    1.5407    1.1876    6.5397 H   0  0  0  0  0  0  0  0  0  0  0  0
    0.5203   -0.8715    7.8903 H   0  0  0  0  0  0  0  0  0  0  0  0
    1.3809   -1.7601    6.5879 H   0  0  0  0  0  0  0  0  0  0  0  0
    2.2987   -0.6967    7.7076 H   0  0  0  0  0  0  0  0  0  0  0  0
  1  3  1  0  0  0  0
  1  7  1  0  0  0  0
  1  2  2  0  0  0  0
 37 38  1  0  0  0  0
 38 46  1  0  0  0  0
 38 39  2  0  0  0  0
  8  9  1  0  0  0  0
  9 17  1  0  0  0  0
  9 10  2  0  0  0  0
 18 19  1  0  0  0  0
 19 36  1  0  0  0  0
 19 20  2  0  0  0  0
 22 24  1  0  0  0  0
 37 40  1  0  0  0  0
  8 11  1  0  0  0  0
 21 23  1  0  0  0  0
 46 47  1  0  0  0  0
 21 22  1  0  0  0  0
 36 37  1  0  0  0  0
  7  8  1  0  0  0  0
 18 21  1  0  0  0  0
 17 18  1  0  0  0  0
  3  4  1  0  0  0  0
  3  5  1  0  0  0  0
  3  6  1  0  0  0  0
 24 33  1  0  0  0  0
 24 34  1  0  0  0  0
 24 35  1  0  0  0  0
 40 43  1  0  0  0  0
 40 44  1  0  0  0  0
 40 45  1  0  0  0  0
 11 14  1  0  0  0  0
 11 15  1  0  0  0  0
 11 16  1  0  0  0  0
 23 30  1  0  0  0  0
 23 31  1  0  0  0  0
 23 32  1  0  0  0  0
 47 49  1  0  0  0  0
 47 50  1  0  0  0  0
 47 51  1  0  0  0  0
 22 28  1  0  0  0  0
 22 29  1  0  0  0  0
 37 42  1  0  0  0  0
  8 13  1  0  0  0  0
 18 26  1  0  0  0  0
 21 27  1  0  0  0  0
 46 48  1  0  0  0  0
  7 12  1  0  0  0  0
 36 41  1  0  0  0  0
 17 25  1  0  0  0  0
M  END
$$$$

  -OEChem-05262214473D

 51 50  0     1  0  0  0  0  0999 V2000
    1.3524   -3.0009    1.4091 C   0  0  0  0  0  0  0  0  0  0  0  0
    1.8758   -1.9880    0.9598 O   0  0  0  0  0  0  0  0  0  0  0  0
    2.2030   -4.1782    1.7536 C   0  0  0  0  0  0  0  0  0  0  0  0
    2.3264   -4.8705    0.9053 H   0  0  0  0  0  0  0  0  0  0  0  0
    3.2257   -3.8876    2.0432 H   0  0  0  0  0  0  0  0  0  0  0  0
    1.8327   -4.8004    2.5839 H   0  0  0  0  0  0  0  0  0  0  0  0
    0.0005   -3.1873    1.6465 N   0  0  0  0  0  0  0  0  0  0  0  0
   -0.9949   -2.1807    1.3864 C   0  0  2  0  0  0  0  0  0  0  0  0
   -0.3083   -0.8216    1.4164 C   0  0  0  0  0  0  0  0  0  0  0  0
    0.7533   -0.6191    2.0022 O   0  0  0  0  0  0  0  0  0  0  0  0
   -2.1232   -2.2423    2.4042 C   0  0  0  0  0  0  0  0  0  0  0  0
   -0.3048   -4.0823    2.0245 H   0  0  0  0  0  0  0  0  0  0  0  0
   -1.3830   -2.3724    0.3801 H   0  0  0  0  0  0  0  0  0  0  0  0
   -1.7534   -2.0527    3.4185 H   0  0  0  0  0  0  0  0  0  0  0  0
   -2.8936   -1.4947    2.1882 H   0  0  0  0  0  0  0  0  0  0  0  0
   -2.5964   -3.2301    2.4022 H   0  0  0  0  0  0  0  0  0  0  0  0
   -1.0412    0.1517    0.7482 N   0  0  0  0  0  0  0  0  0  0  0  0
   -0.6079    1.5223    0.6467 C   0  0  2  0  0  0  0  0  0  0  0  0
   -0.4790    2.0869    2.0609 C   0  0  0  0  0  0  0  0  0  0  0  0
   -1.1454    3.0384    2.4633 O   0  0  0  0  0  0  0  0  0  0  0  0
   -1.5284    2.3823   -0.2526 C   0  0  2  0  0  0  0  0  0  0  0  0
   -1.5411    1.8896   -1.7167 C   0  0  0  0  0  0  0  0  0  0  0  0
   -1.1293    3.8608   -0.1565 C   0  0  0  0  0  0  0  0  0  0  0  0
   -2.6277    2.5371   -2.5657 C   0  0  0  0  0  0  0  0  0  0  0  0
   -1.9022   -0.1128    0.2753 H   0  0  0  0  0  0  0  0  0  0  0  0
    0.4009    1.4869    0.2160 H   0  0  0  0  0  0  0  0  0  0  0  0
   -2.5526    2.3007    0.1353 H   0  0  0  0  0  0  0  0  0  0  0  0
   -0.5762    2.1110   -2.1872 H   0  0  0  0  0  0  0  0  0  0  0  0
   -1.6692    0.8012   -1.7528 H   0  0  0  0  0  0  0  0  0  0  0  0
   -0.1111    4.0143   -0.5298 H   0  0  0  0  0  0  0  0  0  0  0  0
   -1.7901    4.4896   -0.7611 H   0  0  0  0  0  0  0  0  0  0  0  0
   -1.1708    4.2217    0.8764 H   0  0  0  0  0  0  0  0  0  0  0  0
   -3.6238    2.3555   -2.1522 H   0  0  0  0  0  0  0  0  0  0  0  0
   -2.6106    2.1190   -3.5776 H   0  0  0  0  0  0  0  0  0  0  0  0
   -2.4740    3.6178   -2.6440 H   0  0  0  0  0  0  0  0  0  0  0  0
    0.4410    1.3823    2.8242 N   0  0  0  0  0  0  0  0  0  0  0  0
    0.7360    1.6997    4.2029 C   0  0  2  0  0  0  0  0  0  0  0  0
    1.2109    0.4249    4.8877 C   0  0  0  0  0  0  0  0  0  0  0  0
    0.9411   -0.7001    4.4724 O   0  0  0  0  0  0  0  0  0  0  0  0
   -0.4805    2.2760    4.9106 C   0  0  0  0  0  0  0  0  0  0  0  0
    0.9315    0.6048    2.3925 H   0  0  0  0  0  0  0  0  0  0  0  0
    1.5493    2.4335    4.1915 H   0  0  0  0  0  0  0  0  0  0  0  0
   -1.3058    1.5550    4.9320 H   0  0  0  0  0  0  0  0  0  0  0  0
   -0.2475    2.5424    5.9468 H   0  0  0  0  0  0  0  0  0  0  0  0
   -0.8387    3.1761    4.3994 H   0  0  0  0  0  0  0  0  0  0  0  0
    1.9353    0.6909    6.0413 N   0  0  0  0  0  0  0  0  0  0  0  0
    2.4836   -0.3527    6.8756 C   0  0  0  0  0  0  0  0  0  0  0  0
    2.1270    1.6543    6.2999 H   0  0  0  0  0  0  0  0  0  0  0  0
    1.7649   -0.6035    7.6698 H   0  0  0  0  0  0  0  0  0  0  0  0
    2.6803   -1.2456    6.2640 H   0  0  0  0  0  0  0  0  0  0  0  0
    3.4235   -0.0041    7.3285 H   0  0  0  0  0  0  0  0  0  0  0  0
  1  3  1  0  0  0  0
  1  7  1  0  0  0  0
  1  2  2  0  0  0  0
 37 38  1  0  0  0  0
 38 46  1  0  0  0  0
 38 39  2  0  0  0  0
  8  9  1  0  0  0  0
  9 17  1  0  0  0  0
  9 10  2  0  0  0  0
 18 19  1  0  0  0  0
 19 36  1  0  0  0  0
 19 20  2  0  0  0  0
 22 24  1  0  0  0  0
 37 40  1  0  0  0  0
  8 11  1  0  0  0  0
 21 23  1  0  0  0  0
 46 47  1  0  0  0  0
 21 22  1  0  0  0  0
 36 37  1  0  0  0  0
  7  8  1  0  0  0  0
 18 21  1  0  0  0  0
 17 18  1  0  0  0  0
  3  4  1  0  0  0  0
  3  5  1  0  0  0  0
  3  6  1  0  0  0  0
 24 33  1  0  0  0  0
 24 34  1  0  0  0  0
 24 35  1  0  0  0  0
 40 43  1  0  0  0  0
 40 44  1  0  0  0  0
 40 45  1  0  0  0  0
 11 14  1  0  0  0  0
 11 15  1  0  0  0  0
 11 16  1  0  0  0  0
 23 30  1  0  0  0  0
 23 31  1  0  0  0  0
 23 32  1  0  0  0  0
 47 49  1  0  0  0  0
 47 50  1  0  0  0  0
 47 51  1  0  0  0  0
 22 28  1  0  0  0  0
 22 29  1  0  0  0  0
 37 42  1  0  0  0  0
  8 13  1  0  0  0  0
 18 26  1  0  0  0  0
 21 27  1  0  0  0  0
 46 48  1  0  0  0  0
  7 12  1  0  0  0  0
 36 41  1  0  0  0  0
 17 25  1  0  0  0  0
M  END
$$$$

  -OEChem-05262214473D

 51 50  0     1  0  0  0  0  0999 V2000
    1.3524   -3.0009    1.4091 C   0  0  0  0  0  0  0  0  0  0  0  0
    1.8758   -1.9880    0.9598 O   0  0  0  0  0  0  0  0  0  0  0  0
    2.2030   -4.1782    1.7536 C   0  0  0  0  0  0  0  0  0  0  0  0
    2.3264   -4.8705    0.9053 H   0  0  0  0  0  0  0  0  0  0  0  0
    3.2257   -3.8876    2.0432 H   0  0  0  0  0  0  0  0  0  0  0  0
    1.8327   -4.8004    2.5839 H   0  0  0  0  0  0  0  0  0  0  0  0
    0.0005   -3.1873    1.6465 N   0  0  0  0  0  0  0  0  0  0  0  0
   -0.9949   -2.1807    1.3864 C   0  0  2  0  0  0  0  0  0  0  0  0
   -0.3083   -0.8216    1.4164 C   0  0  0  0  0  0  0  0  0  0  0  0
    0.7533   -0.6191    2.0022 O   0  0  0  0  0  0  0  0  0  0  0  0
   -2.1232   -2.2423    2.4042 C   0  0  0  0  0  0  0  0  0  0  0  0
   -0.3048   -4.0823    2.0245 H   0  0  0  0  0  0  0  0  0  0  0  0
   -1.3830   -2.3724    0.3801 H   0  0  0  0  0  0  0  0  0  0  0  0
   -1.7534   -2.0527    3.4185 H   0  0  0  0  0  0  0  0  0  0  0  0
   -2.8936   -1.4947    2.1882 H   0  0  0  0  0  0  0  0  0  0  0  0
   -2.5964   -3.2301    2.4022 H   0  0  0  0  0  0  0  0  0  0  0  0
   -1.0412    0.1517    0.7482 N   0  0  0  0  0  0  0  0  0  0  0  0
   -0.6079    1.5223    0.6467 C   0  0  2  0  0  0  0  0  0  0  0  0
   -0.4790    2.0869    2.0609 C   0  0  0  0  0  0  0  0  0  0  0  0
   -1.3101    2.8460    2.5552 O   0  0  0  0  0  0  0  0  0  0  0  0
   -1.5284    2.3823   -0.2526 C   0  0  2  0  0  0  0  0  0  0  0  0
   -1.5411    1.8896   -1.7167 C   0  0  0  0  0  0  0  0  0  0  0  0
   -1.1293    3.8608   -0.1565 C   0  0  0  0  0  0  0  0  0  0  0  0
   -2.6277    2.5371   -2.5657 C   0  0  0  0  0  0  0  0  0  0  0  0
   -1.9022   -0.1128    0.2753 H   0  0  0  0  0  0  0  0  0  0  0  0
    0.4009    1.4869    0.2160 H   0  0  0  0  0  0  0  0  0  0  0  0
   -2.5526    2.3007    0.1353 H   0  0  0  0  0  0  0  0  0  0  0  0
   -0.5762    2.1110   -2.1872 H   0  0  0  0  0  0  0  0  0  0  0  0
   -1.6692    0.8012   -1.7528 H   0  0  0  0  0  0  0  0  0  0  0  0
   -0.1111    4.0143   -0.5298 H   0  0  0  0  0  0  0  0  0  0  0  0
   -1.7901    4.4896   -0.7611 H   0  0  0  0  0  0  0  0  0  0  0  0
   -1.1708    4.2217    0.8764 H   0  0  0  0  0  0  0  0  0  0  0  0
   -3.6238    2.3555   -2.1522 H   0  0  0  0  0  0  0  0  0  0  0  0
   -2.6106    2.1190   -3.5776 H   0  0  0  0  0  0  0  0  0  0  0  0
   -2.4740    3.6178   -2.6440 H   0  0  0  0  0  0  0  0  0  0  0  0
    0.6529    1.6166    2.7114 N   0  0  0  0  0  0  0  0  0  0  0  0
    0.9978    1.9815    4.0665 C   0  0  2  0  0  0  0  0  0  0  0  0
    1.8279    0.8515    4.6611 C   0  0  0  0  0  0  0  0  0  0  0  0
    1.7946   -0.3011    4.2352 O   0  0  0  0  0  0  0  0  0  0  0  0
   -0.2454    2.2410    4.9031 C   0  0  0  0  0  0  0  0  0  0  0  0
    1.2698    0.9843    2.2101 H   0  0  0  0  0  0  0  0  0  0  0  0
    1.6074    2.8896    4.0041 H   0  0  0  0  0  0  0  0  0  0  0  0
   -0.8687    1.3425    4.9770 H   0  0  0  0  0  0  0  0  0  0  0  0
    0.0180    2.5451    5.9215 H   0  0  0  0  0  0  0  0  0  0  0  0
   -0.8563    3.0337    4.4578 H   0  0  0  0  0  0  0  0  0  0  0  0
    2.5777    1.2722    5.7506 N   0  0  0  0  0  0  0  0  0  0  0  0
    3.4383    0.3827    6.4950 C   0  0  0  0  0  0  0  0  0  0  0  0
    2.5587    2.2508    6.0224 H   0  0  0  0  0  0  0  0  0  0  0  0
    2.8819   -0.0417    7.3437 H   0  0  0  0  0  0  0  0  0  0  0  0
    3.7811   -0.4304    5.8381 H   0  0  0  0  0  0  0  0  0  0  0  0
    4.3078    0.9425    6.8699 H   0  0  0  0  0  0  0  0  0  0  0  0
  1  3  1  0  0  0  0
  1  7  1  0  0  0  0
  1  2  2  0  0  0  0
 37 38  1  0  0  0  0
 38 46  1  0  0  0  0
 38 39  2  0  0  0  0
  8  9  1  0  0  0  0
  9 17  1  0  0  0  0
  9 10  2  0  0  0  0
 18 19  1  0  0  0  0
 19 36  1  0  0  0  0
 19 20  2  0  0  0  0
 22 24  1  0  0  0  0
 37 40  1  0  0  0  0
  8 11  1  0  0  0  0
 21 23  1  0  0  0  0
 46 47  1  0  0  0  0
 21 22  1  0  0  0  0
 36 37  1  0  0  0  0
  7  8  1  0  0  0  0
 18 21  1  0  0  0  0
 17 18  1  0  0  0  0
  3  4  1  0  0  0  0
  3  5  1  0  0  0  0
  3  6  1  0  0  0  0
 24 33  1  0  0  0  0
 24 34  1  0  0  0  0
 24 35  1  0  0  0  0
 40 43  1  0  0  0  0
 40 44  1  0  0  0  0
 40 45  1  0  0  0  0
 11 14  1  0  0  0  0
 11 15  1  0  0  0  0
 11 16  1  0  0  0  0
 23 30  1  0  0  0  0
 23 31  1  0  0  0  0
 23 32  1  0  0  0  0
 47 49  1  0  0  0  0
 47 50  1  0  0  0  0
 47 51  1  0  0  0  0
 22 28  1  0  0  0  0
 22 29  1  0  0  0  0
 37 42  1  0  0  0  0
  8 13  1  0  0  0  0
 18 26  1  0  0  0  0
 21 27  1  0  0  0  0
 46 48  1  0  0  0  0
  7 12  1  0  0  0  0
 36 41  1  0  0  0  0
 17 25  1  0  0  0  0
M  END
$$$$

  -OEChem-05262214473D

 51 50  0     1  0  0  0  0  0999 V2000
    1.3524   -3.0009    1.4091 C   0  0  0  0  0  0  0  0  0  0  0  0
    1.8758   -1.9880    0.9598 O   0  0  0  0  0  0  0  0  0  0  0  0
    2.2030   -4.1782    1.7536 C   0  0  0  0  0  0  0  0  0  0  0  0
    2.3264   -4.8705    0.9053 H   0  0  0  0  0  0  0  0  0  0  0  0
    3.2257   -3.8876    2.0432 H   0  0  0  0  0  0  0  0  0  0  0  0
    1.8327   -4.8004    2.5839 H   0  0  0  0  0  0  0  0  0  0  0  0
    0.0005   -3.1873    1.6465 N   0  0  0  0  0  0  0  0  0  0  0  0
   -0.9949   -2.1807    1.3864 C   0  0  2  0  0  0  0  0  0  0  0  0
   -0.3083   -0.8216    1.4164 C   0  0  0  0  0  0  0  0  0  0  0  0
    0.7533   -0.6191    2.0022 O   0  0  0  0  0  0  0  0  0  0  0  0
   -2.1232   -2.2423    2.4042 C   0  0  0  0  0  0  0  0  0  0  0  0
   -0.3048   -4.0823    2.0245 H   0  0  0  0  0  0  0  0  0  0  0  0
   -1.3830   -2.3724    0.3801 H   0  0  0  0  0  0  0  0  0  0  0  0
   -1.7534   -2.0527    3.4185 H   0  0  0  0  0  0  0  0  0  0  0  0
   -2.8936   -1.4947    2.1882 H   0  0  0  0  0  0  0  0  0  0  0  0
   -2.5964   -3.2301    2.4022 H   0  0  0  0  0  0  0  0  0  0  0  0
   -1.0412    0.1517    0.7482 N   0  0  0  0  0  0  0  0  0  0  0  0
   -0.6079    1.5223    0.6467 C   0  0  2  0  0  0  0  0  0  0  0  0
   -0.4790    2.0869    2.0609 C   0  0  0  0  0  0  0  0  0  0  0  0
   -1.4144    2.6187    2.6555 O   0  0  0  0  0  0  0  0  0  0  0  0
   -1.5284    2.3823   -0.2526 C   0  0  2  0  0  0  0  0  0  0  0  0
   -1.5411    1.8896   -1.7167 C   0  0  0  0  0  0  0  0  0  0  0  0
   -1.1293    3.8608   -0.1565 C   0  0  0  0  0  0  0  0  0  0  0  0
   -2.6277    2.5371   -2.5657 C   0  0  0  0  0  0  0  0  0  0  0  0
   -1.9022   -0.1128    0.2753 H   0  0  0  0  0  0  0  0  0  0  0  0
    0.4009    1.4869    0.2160 H   0  0  0  0  0  0  0  0  0  0  0  0
   -2.5526    2.3007    0.1353 H   0  0  0  0  0  0  0  0  0  0  0  0
   -0.5762    2.1110   -2.1872 H   0  0  0  0  0  0  0  0  0  0  0  0
   -1.6692    0.8012   -1.7528 H   0  0  0  0  0  0  0  0  0  0  0  0
   -0.1111    4.0143   -0.5298 H   0  0  0  0  0  0  0  0  0  0  0  0
   -1.7901    4.4896   -0.7611 H   0  0  0  0  0  0  0  0  0  0  0  0
   -1.1708    4.2217    0.8764 H   0  0  0  0  0  0  0  0  0  0  0  0
   -3.6238    2.3555   -2.1522 H   0  0  0  0  0  0  0  0  0  0  0  0
   -2.6106    2.1190   -3.5776 H   0  0  0  0  0  0  0  0  0  0  0  0
   -2.4740    3.6178   -2.6440 H   0  0  0  0  0  0  0  0  0  0  0  0
    0.7907    1.8961    2.5872 N   0  0  0  0  0  0  0  0  0  0  0  0
    1.1701    2.3195    3.9159 C   0  0  2  0  0  0  0  0  0  0  0  0
    2.3000    1.4164    4.3925 C   0  0  0  0  0  0  0  0  0  0  0  0
    2.5008    0.2940    3.9332 O   0  0  0  0  0  0  0  0  0  0  0  0
   -0.0107    2.2637    4.8727 C   0  0  0  0  0  0  0  0  0  0  0  0
    1.4882    1.4359    2.0098 H   0  0  0  0  0  0  0  0  0  0  0  0
    1.5364    3.3481    3.8276 H   0  0  0  0  0  0  0  0  0  0  0  0
   -0.3914    1.2409    4.9740 H   0  0  0  0  0  0  0  0  0  0  0  0
    0.2714    2.6118    5.8718 H   0  0  0  0  0  0  0  0  0  0  0  0
   -0.8337    2.8906    4.5129 H   0  0  0  0  0  0  0  0  0  0  0  0
    3.0312    1.9939    5.4211 N   0  0  0  0  0  0  0  0  0  0  0  0
    4.1480    1.3300    6.0520 C   0  0  0  0  0  0  0  0  0  0  0  0
    2.8062    2.9363    5.7261 H   0  0  0  0  0  0  0  0  0  0  0  0
    3.7949    0.7756    6.9341 H   0  0  0  0  0  0  0  0  0  0  0  0
    4.6085    0.6301    5.3393 H   0  0  0  0  0  0  0  0  0  0  0  0
    4.8914    2.0788    6.3630 H   0  0  0  0  0  0  0  0  0  0  0  0
  1  3  1  0  0  0  0
  1  7  1  0  0  0  0
  1  2  2  0  0  0  0
 37 38  1  0  0  0  0
 38 46  1  0  0  0  0
 38 39  2  0  0  0  0
  8  9  1  0  0  0  0
  9 17  1  0  0  0  0
  9 10  2  0  0  0  0
 18 19  1  0  0  0  0
 19 36  1  0  0  0  0
 19 20  2  0  0  0  0
 22 24  1  0  0  0  0
 37 40  1  0  0  0  0
  8 11  1  0  0  0  0
 21 23  1  0  0  0  0
 46 47  1  0  0  0  0
 21 22  1  0  0  0  0
 36 37  1  0  0  0  0
  7  8  1  0  0  0  0
 18 21  1  0  0  0  0
 17 18  1  0  0  0  0
  3  4  1  0  0  0  0
  3  5  1  0  0  0  0
  3  6  1  0  0  0  0
 24 33  1  0  0  0  0
 24 34  1  0  0  0  0
 24 35  1  0  0  0  0
 40 43  1  0  0  0  0
 40 44  1  0  0  0  0
 40 45  1  0  0  0  0
 11 14  1  0  0  0  0
 11 15  1  0  0  0  0
 11 16  1  0  0  0  0
 23 30  1  0  0  0  0
 23 31  1  0  0  0  0
 23 32  1  0  0  0  0
 47 49  1  0  0  0  0
 47 50  1  0  0  0  0
 47 51  1  0  0  0  0
 22 28  1  0  0  0  0
 22 29  1  0  0  0  0
 37 42  1  0  0  0  0
  8 13  1  0  0  0  0
 18 26  1  0  0  0  0
 21 27  1  0  0  0  0
 46 48  1  0  0  0  0
  7 12  1  0  0  0  0
 36 41  1  0  0  0  0
 17 25  1  0  0  0  0
M  END
$$$$

  -OEChem-05262214473D

 51 50  0     1  0  0  0  0  0999 V2000
    1.3524   -3.0009    1.4091 C   0  0  0  0  0  0  0  0  0  0  0  0
    1.8758   -1.9880    0.9598 O   0  0  0  0  0  0  0  0  0  0  0  0
    2.2030   -4.1782    1.7536 C   0  0  0  0  0  0  0  0  0  0  0  0
    2.3264   -4.8705    0.9053 H   0  0  0  0  0  0  0  0  0  0  0  0
    3.2257   -3.8876    2.0432 H   0  0  0  0  0  0  0  0  0  0  0  0
    1.8327   -4.8004    2.5839 H   0  0  0  0  0  0  0  0  0  0  0  0
    0.0005   -3.1873    1.6465 N   0  0  0  0  0  0  0  0  0  0  0  0
   -0.9949   -2.1807    1.3864 C   0  0  2  0  0  0  0  0  0  0  0  0
   -0.3083   -0.8216    1.4164 C   0  0  0  0  0  0  0  0  0  0  0  0
    0.7533   -0.6191    2.0022 O   0  0  0  0  0  0  0  0  0  0  0  0
   -2.1232   -2.2423    2.4042 C   0  0  0  0  0  0  0  0  0  0  0  0
   -0.3048   -4.0823    2.0245 H   0  0  0  0  0  0  0  0  0  0  0  0
   -1.3830   -2.3724    0.3801 H   0  0  0  0  0  0  0  0  0  0  0  0
   -1.7534   -2.0527    3.4185 H   0  0  0  0  0  0  0  0  0  0  0  0
   -2.8936   -1.4947    2.1882 H   0  0  0  0  0  0  0  0  0  0  0  0
   -2.5964   -3.2301    2.4022 H   0  0  0  0  0  0  0  0  0  0  0  0
   -1.0412    0.1517    0.7482 N   0  0  0  0  0  0  0  0  0  0  0  0
   -0.6079    1.5223    0.6467 C   0  0  2  0  0  0  0  0  0  0  0  0
   -0.4790    2.0869    2.0609 C   0  0  0  0  0  0  0  0  0  0  0  0
   -1.4511    2.3719    2.7573 O   0  0  0  0  0  0  0  0  0  0  0  0
   -1.5284    2.3823   -0.2526 C   0  0  2  0  0  0  0  0  0  0  0  0
   -1.5411    1.8896   -1.7167 C   0  0  0  0  0  0  0  0  0  0  0  0
   -1.1293    3.8608   -0.1565 C   0  0  0  0  0  0  0  0  0  0  0  0
   -2.6277    2.5371   -2.5657 C   0  0  0  0  0  0  0  0  0  0  0  0
   -1.9022   -0.1128    0.2753 H   0  0  0  0  0  0  0  0  0  0  0  0
    0.4009    1.4869    0.2160 H   0  0  0  0  0  0  0  0  0  0  0  0
   -2.5526    2.3007    0.1353 H   0  0  0  0  0  0  0  0  0  0  0  0
   -0.5762    2.1110   -2.1872 H   0  0  0  0  0  0  0  0  0  0  0  0
   -1.6692    0.8012   -1.7528 H   0  0  0  0  0  0  0  0  0  0  0  0
   -0.1111    4.0143   -0.5298 H   0  0  0  0  0  0  0  0  0  0  0  0
   -1.7901    4.4896   -0.7611 H   0  0  0  0  0  0  0  0  0  0  0  0
   -1.1708    4.2217    0.8764 H   0  0  0  0  0  0  0  0  0  0  0  0
   -3.6238    2.3555   -2.1522 H   0  0  0  0  0  0  0  0  0  0  0  0
   -2.6106    2.1190   -3.5776 H   0  0  0  0  0  0  0  0  0  0  0  0
   -2.4740    3.6178   -2.6440 H   0  0  0  0  0  0  0  0  0  0  0  0
    0.8450    2.2018    2.4602 N   0  0  0  0  0  0  0  0  0  0  0  0
    1.2412    2.6904    3.7613 C   0  0  2  0  0  0  0  0  0  0  0  0
    2.5951    2.0809    4.1003 C   0  0  0  0  0  0  0  0  0  0  0  0
    3.0116    1.0445    3.5870 O   0  0  0  0  0  0  0  0  0  0  0  0
    0.2077    2.3425    4.8213 C   0  0  0  0  0  0  0  0  0  0  0  0
    1.5719    1.9289    1.8054 H   0  0  0  0  0  0  0  0  0  0  0  0
    1.3412    3.7778    3.6738 H   0  0  0  0  0  0  0  0  0  0  0  0
    0.0937    1.2571    4.9232 H   0  0  0  0  0  0  0  0  0  0  0  0
    0.4955    2.7381    5.8009 H   0  0  0  0  0  0  0  0  0  0  0  0
   -0.7723    2.7566    4.5608 H   0  0  0  0  0  0  0  0  0  0  0  0
    3.2649    2.8069    5.0752 N   0  0  0  0  0  0  0  0  0  0  0  0
    4.5642    2.4247    5.5770 C   0  0  0  0  0  0  0  0  0  0  0  0
    2.8528    3.6643    5.4312 H   0  0  0  0  0  0  0  0  0  0  0  0
    4.4420    1.7927    6.4690 H   0  0  0  0  0  0  0  0  0  0  0  0
    5.1060    1.8634    4.8015 H   0  0  0  0  0  0  0  0  0  0  0  0
    5.1345    3.3271    5.8424 H   0  0  0  0  0  0  0  0  0  0  0  0
  1  3  1  0  0  0  0
  1  7  1  0  0  0  0
  1  2  2  0  0  0  0
 37 38  1  0  0  0  0
 38 46  1  0  0  0  0
 38 39  2  0  0  0  0
  8  9  1  0  0  0  0
  9 17  1  0  0  0  0
  9 10  2  0  0  0  0
 18 19  1  0  0  0  0
 19 36  1  0  0  0  0
 19 20  2  0  0  0  0
 22 24  1  0  0  0  0
 37 40  1  0  0  0  0
  8 11  1  0  0  0  0
 21 23  1  0  0  0  0
 46 47  1  0  0  0  0
 21 22  1  0  0  0  0
 36 37  1  0  0  0  0
  7  8  1  0  0  0  0
 18 21  1  0  0  0  0
 17 18  1  0  0  0  0
  3  4  1  0  0  0  0
  3  5  1  0  0  0  0
  3  6  1  0  0  0  0
 24 33  1  0  0  0  0
 24 34  1  0  0  0  0
 24 35  1  0  0  0  0
 40 43  1  0  0  0  0
 40 44  1  0  0  0  0
 40 45  1  0  0  0  0
 11 14  1  0  0  0  0
 11 15  1  0  0  0  0
 11 16  1  0  0  0  0
 23 30  1  0  0  0  0
 23 31  1  0  0  0  0
 23 32  1  0  0  0  0
 47 49  1  0  0  0  0
 47 50  1  0  0  0  0
 47 51  1  0  0  0  0
 22 28  1  0  0  0  0
 22 29  1  0  0  0  0
 37 42  1  0  0  0  0
  8 13  1  0  0  0  0
 18 26  1  0  0  0  0
 21 27  1  0  0  0  0
 46 48  1  0  0  0  0
  7 12  1  0  0  0  0
 36 41  1  0  0  0  0
 17 25  1  0  0  0  0
M  END
$$$$

  -OEChem-05262214473D

 51 50  0     1  0  0  0  0  0999 V2000
    1.3524   -3.0009    1.4091 C   0  0  0  0  0  0  0  0  0  0  0  0
    1.8758   -1.9880    0.9598 O   0  0  0  0  0  0  0  0  0  0  0  0
    2.2030   -4.1782    1.7536 C   0  0  0  0  0  0  0  0  0  0  0  0
    2.3264   -4.8705    0.9053 H   0  0  0  0  0  0  0  0  0  0  0  0
    3.2257   -3.8876    2.0432 H   0  0  0  0  0  0  0  0  0  0  0  0
    1.8327   -4.8004    2.5839 H   0  0  0  0  0  0  0  0  0  0  0  0
    0.0005   -3.1873    1.6465 N   0  0  0  0  0  0  0  0  0  0  0  0
   -0.9949   -2.1807    1.3864 C   0  0  2  0  0  0  0  0  0  0  0  0
   -0.3083   -0.8216    1.4164 C   0  0  0  0  0  0  0  0  0  0  0  0
    0.7533   -0.6191    2.0022 O   0  0  0  0  0  0  0  0  0  0  0  0
   -2.1232   -2.2423    2.4042 C   0  0  0  0  0  0  0  0  0  0  0  0
   -0.3048   -4.0823    2.0245 H   0  0  0  0  0  0  0  0  0  0  0  0
   -1.3830   -2.3724    0.3801 H   0  0  0  0  0  0  0  0  0  0  0  0
   -1.7534   -2.0527    3.4185 H   0  0  0  0  0  0  0  0  0  0  0  0
   -2.8936   -1.4947    2.1882 H   0  0  0  0  0  0  0  0  0  0  0  0
   -2.5964   -3.2301    2.4022 H   0  0  0  0  0  0  0  0  0  0  0  0
   -1.0412    0.1517    0.7482 N   0  0  0  0  0  0  0  0  0  0  0  0
   -0.6079    1.5223    0.6467 C   0  0  2  0  0  0  0  0  0  0  0  0
   -0.4790    2.0869    2.0609 C   0  0  0  0  0  0  0  0  0  0  0  0
   -1.4178    2.1225    2.8538 O   0  0  0  0  0  0  0  0  0  0  0  0
   -1.5284    2.3823   -0.2526 C   0  0  2  0  0  0  0  0  0  0  0  0
   -1.5411    1.8896   -1.7167 C   0  0  0  0  0  0  0  0  0  0  0  0
   -1.1293    3.8608   -0.1565 C   0  0  0  0  0  0  0  0  0  0  0  0
   -2.6277    2.5371   -2.5657 C   0  0  0  0  0  0  0  0  0  0  0  0
   -1.9022   -0.1128    0.2753 H   0  0  0  0  0  0  0  0  0  0  0  0
    0.4009    1.4869    0.2160 H   0  0  0  0  0  0  0  0  0  0  0  0
   -2.5526    2.3007    0.1353 H   0  0  0  0  0  0  0  0  0  0  0  0
   -0.5762    2.1110   -2.1872 H   0  0  0  0  0  0  0  0  0  0  0  0
   -1.6692    0.8012   -1.7528 H   0  0  0  0  0  0  0  0  0  0  0  0
   -0.1111    4.0143   -0.5298 H   0  0  0  0  0  0  0  0  0  0  0  0
   -1.7901    4.4896   -0.7611 H   0  0  0  0  0  0  0  0  0  0  0  0
   -1.1708    4.2217    0.8764 H   0  0  0  0  0  0  0  0  0  0  0  0
   -3.6238    2.3555   -2.1522 H   0  0  0  0  0  0  0  0  0  0  0  0
   -2.6106    2.1190   -3.5776 H   0  0  0  0  0  0  0  0  0  0  0  0
   -2.4740    3.6178   -2.6440 H   0  0  0  0  0  0  0  0  0  0  0  0
    0.8121    2.5129    2.3390 N   0  0  0  0  0  0  0  0  0  0  0  0
    1.2062    3.0692    3.6133 C   0  0  2  0  0  0  0  0  0  0  0  0
    2.6930    2.7998    3.8044 C   0  0  0  0  0  0  0  0  0  0  0  0
    3.2921    1.8993    3.2201 O   0  0  0  0  0  0  0  0  0  0  0  0
    0.3948    2.4721    4.7525 C   0  0  0  0  0  0  0  0  0  0  0  0
    1.5151    2.4295    1.6107 H   0  0  0  0  0  0  0  0  0  0  0  0
    1.0350    4.1495    3.5533 H   0  0  0  0  0  0  0  0  0  0  0  0
    0.5535    1.3901    4.8282 H   0  0  0  0  0  0  0  0  0  0  0  0
    0.6748    2.9152    5.7139 H   0  0  0  0  0  0  0  0  0  0  0  0
   -0.6764    2.6408    4.5983 H   0  0  0  0  0  0  0  0  0  0  0  0
    3.2628    3.6556    4.7365 N   0  0  0  0  0  0  0  0  0  0  0  0
    4.6586    3.5922    5.1022 C   0  0  0  0  0  0  0  0  0  0  0  0
    2.6952    4.3851    5.1578 H   0  0  0  0  0  0  0  0  0  0  0  0
    4.7789    2.9403    5.9801 H   0  0  0  0  0  0  0  0  0  0  0  0
    5.2397    3.1857    4.2614 H   0  0  0  0  0  0  0  0  0  0  0  0
    5.0206    4.6025    5.3436 H   0  0  0  0  0  0  0  0  0  0  0  0
  1  3  1  0  0  0  0
  1  7  1  0  0  0  0
  1  2  2  0  0  0  0
 37 38  1  0  0  0  0
 38 46  1  0  0  0  0
 38 39  2  0  0  0  0
  8  9  1  0  0  0  0
  9 17  1  0  0  0  0
  9 10  2  0  0  0  0
 18 19  1  0  0  0  0
 19 36  1  0  0  0  0
 19 20  2  0  0  0  0
 22 24  1  0  0  0  0
 37 40  1  0  0  0  0
  8 11  1  0  0  0  0
 21 23  1  0  0  0  0
 46 47  1  0  0  0  0
 21 22  1  0  0  0  0
 36 37  1  0  0  0  0
  7  8  1  0  0  0  0
 18 21  1  0  0  0  0
 17 18  1  0  0  0  0
  3  4  1  0  0  0  0
  3  5  1  0  0  0  0
  3  6  1  0  0  0  0
 24 33  1  0  0  0  0
 24 34  1  0  0  0  0
 24 35  1  0  0  0  0
 40 43  1  0  0  0  0
 40 44  1  0  0  0  0
 40 45  1  0  0  0  0
 11 14  1  0  0  0  0
 11 15  1  0  0  0  0
 11 16  1  0  0  0  0
 23 30  1  0  0  0  0
 23 31  1  0  0  0  0
 23 32  1  0  0  0  0
 47 49  1  0  0  0  0
 47 50  1  0  0  0  0
 47 51  1  0  0  0  0
 22 28  1  0  0  0  0
 22 29  1  0  0  0  0
 37 42  1  0  0  0  0
  8 13  1  0  0  0  0
 18 26  1  0  0  0  0
 21 27  1  0  0  0  0
 46 48  1  0  0  0  0
  7 12  1  0  0  0  0
 36 41  1  0  0  0  0
 17 25  1  0  0  0  0
M  END
$$$$

  -OEChem-05262214473D

 51 50  0     1  0  0  0  0  0999 V2000
    1.3524   -3.0009    1.4091 C   0  0  0  0  0  0  0  0  0  0  0  0
    1.8758   -1.9880    0.9598 O   0  0  0  0  0  0  0  0  0  0  0  0
    2.2030   -4.1782    1.7536 C   0  0  0  0  0  0  0  0  0  0  0  0
    2.3264   -4.8705    0.9053 H   0  0  0  0  0  0  0  0  0  0  0  0
    3.2257   -3.8876    2.0432 H   0  0  0  0  0  0  0  0  0  0  0  0
    1.8327   -4.8004    2.5839 H   0  0  0  0  0  0  0  0  0  0  0  0
    0.0005   -3.1873    1.6465 N   0  0  0  0  0  0  0  0  0  0  0  0
   -0.9949   -2.1807    1.3864 C   0  0  2  0  0  0  0  0  0  0  0  0
   -0.3083   -0.8216    1.4164 C   0  0  0  0  0  0  0  0  0  0  0  0
    0.7533   -0.6191    2.0022 O   0  0  0  0  0  0  0  0  0  0  0  0
   -2.1232   -2.2423    2.4042 C   0  0  0  0  0  0  0  0  0  0  0  0
   -0.3048   -4.0823    2.0245 H   0  0  0  0  0  0  0  0  0  0  0  0
   -1.3830   -2.3724    0.3801 H   0  0  0  0  0  0  0  0  0  0  0  0
   -1.7534   -2.0527    3.4185 H   0  0  0  0  0  0  0  0  0  0  0  0
   -2.8936   -1.4947    2.1882 H   0  0  0  0  0  0  0  0  0  0  0  0
   -2.5964   -3.2301    2.4022 H   0  0  0  0  0  0  0  0  0  0  0  0
   -1.0412    0.1517    0.7482 N   0  0  0  0  0  0  0  0  0  0  0  0
   -0.6079    1.5223    0.6467 C   0  0  2  0  0  0  0  0  0  0  0  0
   -0.4790    2.0869    2.0609 C   0  0  0  0  0  0  0  0  0  0  0  0
   -1.3165    1.8876    2.9384 O   0  0  0  0  0  0  0  0  0  0  0  0
   -1.5284    2.3823   -0.2526 C   0  0  2  0  0  0  0  0  0  0  0  0
   -1.5411    1.8896   -1.7167 C   0  0  0  0  0  0  0  0  0  0  0  0
   -1.1293    3.8608   -0.1565 C   0  0  0  0  0  0  0  0  0  0  0  0
   -2.6277    2.5371   -2.5657 C   0  0  0  0  0  0  0  0  0  0  0  0
   -1.9022   -0.1128    0.2753 H   0  0  0  0  0  0  0  0  0  0  0  0
    0.4009    1.4869    0.2160 H   0  0  0  0  0  0  0  0  0  0  0  0
   -2.5526    2.3007    0.1353 H   0  0  0  0  0  0  0  0  0  0  0  0
   -0.5762    2.1110   -2.1872 H   0  0  0  0  0  0  0  0  0  0  0  0
   -1.6692    0.8012   -1.7528 H   0  0  0  0  0  0  0  0  0  0  0  0
   -0.1111    4.0143   -0.5298 H   0  0  0  0  0  0  0  0  0  0  0  0
   -1.7901    4.4896   -0.7611 H   0  0  0  0  0  0  0  0  0  0  0  0
   -1.1708    4.2217    0.8764 H   0  0  0  0  0  0  0  0  0  0  0  0
   -3.6238    2.3555   -2.1522 H   0  0  0  0  0  0  0  0  0  0  0  0
   -2.6106    2.1190   -3.5776 H   0  0  0  0  0  0  0  0  0  0  0  0
   -2.4740    3.6178   -2.6440 H   0  0  0  0  0  0  0  0  0  0  0  0
    0.6942    2.8081    2.2319 N   0  0  0  0  0  0  0  0  0  0  0  0
    1.0676    3.4298    3.4819 C   0  0  2  0  0  0  0  0  0  0  0  0
    2.5870    3.5241    3.5248 C   0  0  0  0  0  0  0  0  0  0  0  0
    3.3231    2.8003    2.8576 O   0  0  0  0  0  0  0  0  0  0  0  0
    0.5380    2.6435    4.6710 C   0  0  0  0  0  0  0  0  0  0  0  0
    1.3217    2.9037    1.4390 H   0  0  0  0  0  0  0  0  0  0  0  0
    0.6386    4.4378    3.4743 H   0  0  0  0  0  0  0  0  0  0  0  0
    0.9567    1.6308    4.6953 H   0  0  0  0  0  0  0  0  0  0  0  0
    0.7973    3.1312    5.6165 H   0  0  0  0  0  0  0  0  0  0  0  0
   -0.5524    2.5512    4.6227 H   0  0  0  0  0  0  0  0  0  0  0  0
    3.0252    4.4824    4.4281 N   0  0  0  0  0  0  0  0  0  0  0  0
    4.4248    4.7529    4.6601 C   0  0  0  0  0  0  0  0  0  0  0  0
    2.3442    5.0495    4.9245 H   0  0  0  0  0  0  0  0  0  0  0  0
    4.7828    4.1402    5.5007 H   0  0  0  0  0  0  0  0  0  0  0  0
    5.0006    4.5067    3.7558 H   0  0  0  0  0  0  0  0  0  0  0  0
    4.5573    5.8181    4.9005 H   0  0  0  0  0  0  0  0  0  0  0  0
  1  3  1  0  0  0  0
  1  7  1  0  0  0  0
  1  2  2  0  0  0  0
 37 38  1  0  0  0  0
 38 46  1  0  0  0  0
 38 39  2  0  0  0  0
  8  9  1  0  0  0  0
  9 17  1  0  0  0  0
  9 10  2  0  0  0  0
 18 19  1  0  0  0  0
 19 36  1  0  0  0  0
 19 20  2  0  0  0  0
 22 24  1  0  0  0  0
 37 40  1  0  0  0  0
  8 11  1  0  0  0  0
 21 23  1  0  0  0  0
 46 47  1  0  0  0  0
 21 22  1  0  0  0  0
 36 37  1  0  0  0  0
  7  8  1  0  0  0  0
 18 21  1  0  0  0  0
 17 18  1  0  0  0  0
  3  4  1  0  0  0  0
  3  5  1  0  0  0  0
  3  6  1  0  0  0  0
 24 33  1  0  0  0  0
 24 34  1  0  0  0  0
 24 35  1  0  0  0  0
 40 43  1  0  0  0  0
 40 44  1  0  0  0  0
 40 45  1  0  0  0  0
 11 14  1  0  0  0  0
 11 15  1  0  0  0  0
 11 16  1  0  0  0  0
 23 30  1  0  0  0  0
 23 31  1  0  0  0  0
 23 32  1  0  0  0  0
 47 49  1  0  0  0  0
 47 50  1  0  0  0  0
 47 51  1  0  0  0  0
 22 28  1  0  0  0  0
 22 29  1  0  0  0  0
 37 42  1  0  0  0  0
  8 13  1  0  0  0  0
 18 26  1  0  0  0  0
 21 27  1  0  0  0  0
 46 48  1  0  0  0  0
  7 12  1  0  0  0  0
 36 41  1  0  0  0  0
 17 25  1  0  0  0  0
M  END
$$$$

  -OEChem-05262214473D

 51 50  0     1  0  0  0  0  0999 V2000
    1.3524   -3.0009    1.4091 C   0  0  0  0  0  0  0  0  0  0  0  0
    1.8758   -1.9880    0.9598 O   0  0  0  0  0  0  0  0  0  0  0  0
    2.2030   -4.1782    1.7536 C   0  0  0  0  0  0  0  0  0  0  0  0
    2.3264   -4.8705    0.9053 H   0  0  0  0  0  0  0  0  0  0  0  0
    3.2257   -3.8876    2.0432 H   0  0  0  0  0  0  0  0  0  0  0  0
    1.8327   -4.8004    2.5839 H   0  0  0  0  0  0  0  0  0  0  0  0
    0.0005   -3.1873    1.6465 N   0  0  0  0  0  0  0  0  0  0  0  0
   -0.9949   -2.1807    1.3864 C   0  0  2  0  0  0  0  0  0  0  0  0
   -0.3083   -0.8216    1.4164 C   0  0  0  0  0  0  0  0  0  0  0  0
    0.7533   -0.6191    2.0022 O   0  0  0  0  0  0  0  0  0  0  0  0
   -2.1232   -2.2423    2.4042 C   0  0  0  0  0  0  0  0  0  0  0  0
   -0.3048   -4.0823    2.0245 H   0  0  0  0  0  0  0  0  0  0  0  0
   -1.3830   -2.3724    0.3801 H   0  0  0  0  0  0  0  0  0  0  0  0
   -1.7534   -2.0527    3.4185 H   0  0  0  0  0  0  0  0  0  0  0  0
   -2.8936   -1.4947    2.1882 H   0  0  0  0  0  0  0  0  0  0  0  0
   -2.5964   -3.2301    2.4022 H   0  0  0  0  0  0  0  0  0  0  0  0
   -1.0412    0.1517    0.7482 N   0  0  0  0  0  0  0  0  0  0  0  0
   -0.6079    1.5223    0.6467 C   0  0  2  0  0  0  0  0  0  0  0  0
   -0.4790    2.0869    2.0609 C   0  0  0  0  0  0  0  0  0  0  0  0
   -1.1544    1.6830    3.0053 O   0  0  0  0  0  0  0  0  0  0  0  0
   -1.5284    2.3823   -0.2526 C   0  0  2  0  0  0  0  0  0  0  0  0
   -1.5411    1.8896   -1.7167 C   0  0  0  0  0  0  0  0  0  0  0  0
   -1.1293    3.8608   -0.1565 C   0  0  0  0  0  0  0  0  0  0  0  0
   -2.6277    2.5371   -2.5657 C   0  0  0  0  0  0  0  0  0  0  0  0
   -1.9022   -0.1128    0.2753 H   0  0  0  0  0  0  0  0  0  0  0  0
    0.4009    1.4869    0.2160 H   0  0  0  0  0  0  0  0  0  0  0  0
   -2.5526    2.3007    0.1353 H   0  0  0  0  0  0  0  0  0  0  0  0
   -0.5762    2.1110   -2.1872 H   0  0  0  0  0  0  0  0  0  0  0  0
   -1.6692    0.8012   -1.7528 H   0  0  0  0  0  0  0  0  0  0  0  0
   -0.1111    4.0143   -0.5298 H   0  0  0  0  0  0  0  0  0  0  0  0
   -1.7901    4.4896   -0.7611 H   0  0  0  0  0  0  0  0  0  0  0  0
   -1.1708    4.2217    0.8764 H   0  0  0  0  0  0  0  0  0  0  0  0
   -3.6238    2.3555   -2.1522 H   0  0  0  0  0  0  0  0  0  0  0  0
   -2.6106    2.1190   -3.5776 H   0  0  0  0  0  0  0  0  0  0  0  0
   -2.4740    3.6178   -2.6440 H   0  0  0  0  0  0  0  0  0  0  0  0
    0.4993    3.0673    2.1462 N   0  0  0  0  0  0  0  0  0  0  0  0
    0.8347    3.7479    3.3762 C   0  0  2  0  0  0  0  0  0  0  0  0
    2.2845    4.2045    3.2808 C   0  0  0  0  0  0  0  0  0  0  0  0
    3.1027    3.6858    2.5241 O   0  0  0  0  0  0  0  0  0  0  0  0
    0.6274    2.8452    4.5823 C   0  0  0  0  0  0  0  0  0  0  0  0
    1.0049    3.3192    1.3020 H   0  0  0  0  0  0  0  0  0  0  0  0
    0.1792    4.6231    3.4423 H   0  0  0  0  0  0  0  0  0  0  0  0
    1.2759    1.9628    4.5337 H   0  0  0  0  0  0  0  0  0  0  0  0
    0.8546    3.3713    5.5154 H   0  0  0  0  0  0  0  0  0  0  0  0
   -0.4088    2.4937    4.6326 H   0  0  0  0  0  0  0  0  0  0  0  0
    2.5681    5.2308    4.1710 N   0  0  0  0  0  0  0  0  0  0  0  0
    3.8787    5.8277    4.2808 C   0  0  0  0  0  0  0  0  0  0  0  0
    1.8237    5.6123    4.7472 H   0  0  0  0  0  0  0  0  0  0  0  0
    4.4533    5.3106    5.0634 H   0  0  0  0  0  0  0  0  0  0  0  0
    4.4048    5.7365    3.3191 H   0  0  0  0  0  0  0  0  0  0  0  0
    3.7764    6.8910    4.5434 H   0  0  0  0  0  0  0  0  0  0  0  0
  1  3  1  0  0  0  0
  1  7  1  0  0  0  0
  1  2  2  0  0  0  0
 37 38  1  0  0  0  0
 38 46  1  0  0  0  0
 38 39  2  0  0  0  0
  8  9  1  0  0  0  0
  9 17  1  0  0  0  0
  9 10  2  0  0  0  0
 18 19  1  0  0  0  0
 19 36  1  0  0  0  0
 19 20  2  0  0  0  0
 22 24  1  0  0  0  0
 37 40  1  0  0  0  0
  8 11  1  0  0  0  0
 21 23  1  0  0  0  0
 46 47  1  0  0  0  0
 21 22  1  0  0  0  0
 36 37  1  0  0  0  0
  7  8  1  0  0  0  0
 18 21  1  0  0  0  0
 17 18  1  0  0  0  0
  3  4  1  0  0  0  0
  3  5  1  0  0  0  0
  3  6  1  0  0  0  0
 24 33  1  0  0  0  0
 24 34  1  0  0  0  0
 24 35  1  0  0  0  0
 40 43  1  0  0  0  0
 40 44  1  0  0  0  0
 40 45  1  0  0  0  0
 11 14  1  0  0  0  0
 11 15  1  0  0  0  0
 11 16  1  0  0  0  0
 23 30  1  0  0  0  0
 23 31  1  0  0  0  0
 23 32  1  0  0  0  0
 47 49  1  0  0  0  0
 47 50  1  0  0  0  0
 47 51  1  0  0  0  0
 22 28  1  0  0  0  0
 22 29  1  0  0  0  0
 37 42  1  0  0  0  0
  8 13  1  0  0  0  0
 18 26  1  0  0  0  0
 21 27  1  0  0  0  0
 46 48  1  0  0  0  0
  7 12  1  0  0  0  0
 36 41  1  0  0  0  0
 17 25  1  0  0  0  0
M  END
$$$$

  -OEChem-05262214473D

 51 50  0     1  0  0  0  0  0999 V2000
    1.3524   -3.0009    1.4091 C   0  0  0  0  0  0  0  0  0  0  0  0
    1.8758   -1.9880    0.9598 O   0  0  0  0  0  0  0  0  0  0  0  0
    2.2030   -4.1782    1.7536 C   0  0  0  0  0  0  0  0  0  0  0  0
    2.3264   -4.8705    0.9053 H   0  0  0  0  0  0  0  0  0  0  0  0
    3.2257   -3.8876    2.0432 H   0  0  0  0  0  0  0  0  0  0  0  0
    1.8327   -4.8004    2.5839 H   0  0  0  0  0  0  0  0  0  0  0  0
    0.0005   -3.1873    1.6465 N   0  0  0  0  0  0  0  0  0  0  0  0
   -0.9949   -2.1807    1.3864 C   0  0  2  0  0  0  0  0  0  0  0  0
   -0.3083   -0.8216    1.4164 C   0  0  0  0  0  0  0  0  0  0  0  0
    0.7533   -0.6191    2.0022 O   0  0  0  0  0  0  0  0  0  0  0  0
   -2.1232   -2.2423    2.4042 C   0  0  0  0  0  0  0  0  0  0  0  0
   -0.3048   -4.0823    2.0245 H   0  0  0  0  0  0  0  0  0  0  0  0
   -1.3830   -2.3724    0.3801 H   0  0  0  0  0  0  0  0  0  0  0  0
   -1.7534   -2.0527    3.4185 H   0  0  0  0  0  0  0  0  0  0  0  0
   -2.8936   -1.4947    2.1882 H   0  0  0  0  0  0  0  0  0  0  0  0
   -2.5964   -3.2301    2.4022 H   0  0  0  0  0  0  0  0  0  0  0  0
   -1.0412    0.1517    0.7482 N   0  0  0  0  0  0  0  0  0  0  0  0
   -0.6079    1.5223    0.6467 C   0  0  2  0  0  0  0  0  0  0  0  0
   -0.4790    2.0869    2.0609 C   0  0  0  0  0  0  0  0  0  0  0  0
   -0.9424    1.5227    3.0500 O   0  0  0  0  0  0  0  0  0  0  0  0
   -1.5284    2.3823   -0.2526 C   0  0  2  0  0  0  0  0  0  0  0  0
   -1.5411    1.8896   -1.7167 C   0  0  0  0  0  0  0  0  0  0  0  0
   -1.1293    3.8608   -0.1565 C   0  0  0  0  0  0  0  0  0  0  0  0
   -2.6277    2.5371   -2.5657 C   0  0  0  0  0  0  0  0  0  0  0  0
   -1.9022   -0.1128    0.2753 H   0  0  0  0  0  0  0  0  0  0  0  0
    0.4009    1.4869    0.2160 H   0  0  0  0  0  0  0  0  0  0  0  0
   -2.5526    2.3007    0.1353 H   0  0  0  0  0  0  0  0  0  0  0  0
   -0.5762    2.1110   -2.1872 H   0  0  0  0  0  0  0  0  0  0  0  0
   -1.6692    0.8012   -1.7528 H   0  0  0  0  0  0  0  0  0  0  0  0
   -0.1111    4.0143   -0.5298 H   0  0  0  0  0  0  0  0  0  0  0  0
   -1.7901    4.4896   -0.7611 H   0  0  0  0  0  0  0  0  0  0  0  0
   -1.1708    4.2217    0.8764 H   0  0  0  0  0  0  0  0  0  0  0  0
   -3.6238    2.3555   -2.1522 H   0  0  0  0  0  0  0  0  0  0  0  0
   -2.6106    2.1190   -3.5776 H   0  0  0  0  0  0  0  0  0  0  0  0
   -2.4740    3.6178   -2.6440 H   0  0  0  0  0  0  0  0  0  0  0  0
    0.2408    3.2730    2.0876 N   0  0  0  0  0  0  0  0  0  0  0  0
    0.5235    4.0017    3.3032 C   0  0  2  0  0  0  0  0  0  0  0  0
    1.8060    4.7946    3.0888 C   0  0  0  0  0  0  0  0  0  0  0  0
    2.6458    4.4957    2.2424 O   0  0  0  0  0  0  0  0  0  0  0  0
    0.6570    3.0633    4.4925 C   0  0  0  0  0  0  0  0  0  0  0  0
    0.5863    3.6477    1.2090 H   0  0  0  0  0  0  0  0  0  0  0  0
   -0.3121    4.6927    3.4593 H   0  0  0  0  0  0  0  0  0  0  0  0
    1.4892    2.3634    4.3543 H   0  0  0  0  0  0  0  0  0  0  0  0
    0.8428    3.6191    5.4175 H   0  0  0  0  0  0  0  0  0  0  0  0
   -0.2554    2.4724    4.6271 H   0  0  0  0  0  0  0  0  0  0  0  0
    1.9228    5.8498    3.9827 N   0  0  0  0  0  0  0  0  0  0  0  0
    3.0575    6.7433    3.9901 C   0  0  0  0  0  0  0  0  0  0  0  0
    1.1692    6.0352    4.6381 H   0  0  0  0  0  0  0  0  0  0  0  0
    3.8129    6.3717    4.6982 H   0  0  0  0  0  0  0  0  0  0  0  0
    3.4930    6.7911    2.9812 H   0  0  0  0  0  0  0  0  0  0  0  0
    2.7309    7.7480    4.2965 H   0  0  0  0  0  0  0  0  0  0  0  0
  1  3  1  0  0  0  0
  1  7  1  0  0  0  0
  1  2  2  0  0  0  0
 37 38  1  0  0  0  0
 38 46  1  0  0  0  0
 38 39  2  0  0  0  0
  8  9  1  0  0  0  0
  9 17  1  0  0  0  0
  9 10  2  0  0  0  0
 18 19  1  0  0  0  0
 19 36  1  0  0  0  0
 19 20  2  0  0  0  0
 22 24  1  0  0  0  0
 37 40  1  0  0  0  0
  8 11  1  0  0  0  0
 21 23  1  0  0  0  0
 46 47  1  0  0  0  0
 21 22  1  0  0  0  0
 36 37  1  0  0  0  0
  7  8  1  0  0  0  0
 18 21  1  0  0  0  0
 17 18  1  0  0  0  0
  3  4  1  0  0  0  0
  3  5  1  0  0  0  0
  3  6  1  0  0  0  0
 24 33  1  0  0  0  0
 24 34  1  0  0  0  0
 24 35  1  0  0  0  0
 40 43  1  0  0  0  0
 40 44  1  0  0  0  0
 40 45  1  0  0  0  0
 11 14  1  0  0  0  0
 11 15  1  0  0  0  0
 11 16  1  0  0  0  0
 23 30  1  0  0  0  0
 23 31  1  0  0  0  0
 23 32  1  0  0  0  0
 47 49  1  0  0  0  0
 47 50  1  0  0  0  0
 47 51  1  0  0  0  0
 22 28  1  0  0  0  0
 22 29  1  0  0  0  0
 37 42  1  0  0  0  0
  8 13  1  0  0  0  0
 18 26  1  0  0  0  0
 21 27  1  0  0  0  0
 46 48  1  0  0  0  0
  7 12  1  0  0  0  0
 36 41  1  0  0  0  0
 17 25  1  0  0  0  0
M  END
$$$$

  -OEChem-05262214473D

 51 50  0     1  0  0  0  0  0999 V2000
    1.3524   -3.0009    1.4091 C   0  0  0  0  0  0  0  0  0  0  0  0
    1.8758   -1.9880    0.9598 O   0  0  0  0  0  0  0  0  0  0  0  0
    2.2030   -4.1782    1.7536 C   0  0  0  0  0  0  0  0  0  0  0  0
    2.3264   -4.8705    0.9053 H   0  0  0  0  0  0  0  0  0  0  0  0
    3.2257   -3.8876    2.0432 H   0  0  0  0  0  0  0  0  0  0  0  0
    1.8327   -4.8004    2.5839 H   0  0  0  0  0  0  0  0  0  0  0  0
    0.0005   -3.1873    1.6465 N   0  0  0  0  0  0  0  0  0  0  0  0
   -0.9949   -2.1807    1.3864 C   0  0  2  0  0  0  0  0  0  0  0  0
   -0.3083   -0.8216    1.4164 C   0  0  0  0  0  0  0  0  0  0  0  0
    0.7533   -0.6191    2.0022 O   0  0  0  0  0  0  0  0  0  0  0  0
   -2.1232   -2.2423    2.4042 C   0  0  0  0  0  0  0  0  0  0  0  0
   -0.3048   -4.0823    2.0245 H   0  0  0  0  0  0  0  0  0  0  0  0
   -1.3830   -2.3724    0.3801 H   0  0  0  0  0  0  0  0  0  0  0  0
   -1.7534   -2.0527    3.4185 H   0  0  0  0  0  0  0  0  0  0  0  0
   -2.8936   -1.4947    2.1882 H   0  0  0  0  0  0  0  0  0  0  0  0
   -2.5964   -3.2301    2.4022 H   0  0  0  0  0  0  0  0  0  0  0  0
   -1.0412    0.1517    0.7482 N   0  0  0  0  0  0  0  0  0  0  0  0
   -0.6079    1.5223    0.6467 C   0  0  2  0  0  0  0  0  0  0  0  0
   -0.1201    1.9707    2.0237 C   0  0  0  0  0  0  0  0  0  0  0  0
   -0.1006    1.2248    3.0008 O   0  0  0  0  0  0  0  0  0  0  0  0
   -1.6966    2.4593    0.0701 C   0  0  2  0  0  0  0  0  0  0  0  0
   -2.0820    2.0856   -1.3785 C   0  0  0  0  0  0  0  0  0  0  0  0
   -1.2449    3.9220    0.1762 C   0  0  0  0  0  0  0  0  0  0  0  0
   -3.3252    2.8082   -1.8814 C   0  0  0  0  0  0  0  0  0  0  0  0
   -1.9022   -0.1128    0.2753 H   0  0  0  0  0  0  0  0  0  0  0  0
    0.2629    1.5129   -0.0211 H   0  0  0  0  0  0  0  0  0  0  0  0
   -2.5961    2.3557    0.6916 H   0  0  0  0  0  0  0  0  0  0  0  0
   -1.2563    2.3358   -2.0544 H   0  0  0  0  0  0  0  0  0  0  0  0
   -2.2455    1.0048   -1.4639 H   0  0  0  0  0  0  0  0  0  0  0  0
   -0.3456    4.0962   -0.4243 H   0  0  0  0  0  0  0  0  0  0  0  0
   -2.0160    4.6027   -0.1973 H   0  0  0  0  0  0  0  0  0  0  0  0
   -1.0215    4.1993    1.2115 H   0  0  0  0  0  0  0  0  0  0  0  0
   -4.1940    2.6026   -1.2498 H   0  0  0  0  0  0  0  0  0  0  0  0
   -3.5687    2.4724   -2.8948 H   0  0  0  0  0  0  0  0  0  0  0  0
   -3.1653    3.8904   -1.9134 H   0  0  0  0  0  0  0  0  0  0  0  0
    0.3192    3.2870    2.0207 N   0  0  0  0  0  0  0  0  0  0  0  0
    0.8490    3.9488    3.1911 C   0  0  2  0  0  0  0  0  0  0  0  0
    1.8012    5.0414    2.7230 C   0  0  0  0  0  0  0  0  0  0  0  0
    2.3453    5.0300    1.6208 O   0  0  0  0  0  0  0  0  0  0  0  0
    1.5589    2.9657    4.1089 C   0  0  0  0  0  0  0  0  0  0  0  0
    0.2657    3.8115    1.1525 H   0  0  0  0  0  0  0  0  0  0  0  0
   -0.0021    4.4029    3.7101 H   0  0  0  0  0  0  0  0  0  0  0  0
    2.4147    2.5004    3.6062 H   0  0  0  0  0  0  0  0  0  0  0  0
    1.9349    3.4635    5.0088 H   0  0  0  0  0  0  0  0  0  0  0  0
    0.8807    2.1641    4.4207 H   0  0  0  0  0  0  0  0  0  0  0  0
    2.0053    6.0084    3.6974 N   0  0  0  0  0  0  0  0  0  0  0  0
    2.8771    7.1427    3.4994 C   0  0  0  0  0  0  0  0  0  0  0  0
    1.4980    5.9480    4.5753 H   0  0  0  0  0  0  0  0  0  0  0  0
    3.8850    6.8998    3.8669 H   0  0  0  0  0  0  0  0  0  0  0  0
    2.9262    7.3846    2.4275 H   0  0  0  0  0  0  0  0  0  0  0  0
    2.4839    8.0082    4.0529 H   0  0  0  0  0  0  0  0  0  0  0  0
  1  3  1  0  0  0  0
  1  7  1  0  0  0  0
  1  2  2  0  0  0  0
 37 38  1  0  0  0  0
 38 46  1  0  0  0  0
 38 39  2  0  0  0  0
  8  9  1  0  0  0  0
  9 17  1  0  0  0  0
  9 10  2  0  0  0  0
 18 19  1  0  0  0  0
 19 36  1  0  0  0  0
 19 20  2  0  0  0  0
 22 24  1  0  0  0  0
 37 40  1  0  0  0  0
  8 11  1  0  0  0  0
 21 23  1  0  0  0  0
 46 47  1  0  0  0  0
 21 22  1  0  0  0  0
 36 37  1  0  0  0  0
  7  8  1  0  0  0  0
 18 21  1  0  0  0  0
 17 18  1  0  0  0  0
  3  4  1  0  0  0  0
  3  5  1  0  0  0  0
  3  6  1  0  0  0  0
 24 33  1  0  0  0  0
 24 34  1  0  0  0  0
 24 35  1  0  0  0  0
 40 43  1  0  0  0  0
 40 44  1  0  0  0  0
 40 45  1  0  0  0  0
 11 14  1  0  0  0  0
 11 15  1  0  0  0  0
 11 16  1  0  0  0  0
 23 30  1  0  0  0  0
 23 31  1  0  0  0  0
 23 32  1  0  0  0  0
 47 49  1  0  0  0  0
 47 50  1  0  0  0  0
 47 51  1  0  0  0  0
 22 28  1  0  0  0  0
 22 29  1  0  0  0  0
 37 42  1  0  0  0  0
  8 13  1  0  0  0  0
 18 26  1  0  0  0  0
 21 27  1  0  0  0  0
 46 48  1  0  0  0  0
  7 12  1  0  0  0  0
 36 41  1  0  0  0  0
 17 25  1  0  0  0  0
M  END
$$$$

  -OEChem-05262214473D

 51 50  0     1  0  0  0  0  0999 V2000
    1.3524   -3.0009    1.4091 C   0  0  0  0  0  0  0  0  0  0  0  0
    1.8758   -1.9880    0.9598 O   0  0  0  0  0  0  0  0  0  0  0  0
    2.2030   -4.1782    1.7536 C   0  0  0  0  0  0  0  0  0  0  0  0
    2.3264   -4.8705    0.9053 H   0  0  0  0  0  0  0  0  0  0  0  0
    3.2257   -3.8876    2.0432 H   0  0  0  0  0  0  0  0  0  0  0  0
    1.8327   -4.8004    2.5839 H   0  0  0  0  0  0  0  0  0  0  0  0
    0.0005   -3.1873    1.6465 N   0  0  0  0  0  0  0  0  0  0  0  0
   -0.9949   -2.1807    1.3864 C   0  0  2  0  0  0  0  0  0  0  0  0
   -0.3083   -0.8216    1.4164 C   0  0  0  0  0  0  0  0  0  0  0  0
    0.7533   -0.6191    2.0022 O   0  0  0  0  0  0  0  0  0  0  0  0
   -2.1232   -2.2423    2.4042 C   0  0  0  0  0  0  0  0  0  0  0  0
   -0.3048   -4.0823    2.0245 H   0  0  0  0  0  0  0  0  0  0  0  0
   -1.3830   -2.3724    0.3801 H   0  0  0  0  0  0  0  0  0  0  0  0
   -1.7534   -2.0527    3.4185 H   0  0  0  0  0  0  0  0  0  0  0  0
   -2.8936   -1.4947    2.1882 H   0  0  0  0  0  0  0  0  0  0  0  0
   -2.5964   -3.2301    2.4022 H   0  0  0  0  0  0  0  0  0  0  0  0
   -1.0412    0.1517    0.7482 N   0  0  0  0  0  0  0  0  0  0  0  0
   -0.6079    1.5223    0.6467 C   0  0  2  0  0  0  0  0  0  0  0  0
   -0.1201    1.9707    2.0237 C   0  0  0  0  0  0  0  0  0  0  0  0
    0.1542    1.1807    2.9249 O   0  0  0  0  0  0  0  0  0  0  0  0
   -1.6966    2.4593    0.0701 C   0  0  2  0  0  0  0  0  0  0  0  0
   -2.0820    2.0856   -1.3785 C   0  0  0  0  0  0  0  0  0  0  0  0
   -1.2449    3.9220    0.1762 C   0  0  0  0  0  0  0  0  0  0  0  0
   -3.3252    2.8082   -1.8814 C   0  0  0  0  0  0  0  0  0  0  0  0
   -1.9022   -0.1128    0.2753 H   0  0  0  0  0  0  0  0  0  0  0  0
    0.2629    1.5129   -0.0211 H   0  0  0  0  0  0  0  0  0  0  0  0
   -2.5961    2.3557    0.6916 H   0  0  0  0  0  0  0  0  0  0  0  0
   -1.2563    2.3358   -2.0544 H   0  0  0  0  0  0  0  0  0  0  0  0
   -2.2455    1.0048   -1.4639 H   0  0  0  0  0  0  0  0  0  0  0  0
   -0.3456    4.0962   -0.4243 H   0  0  0  0  0  0  0  0  0  0  0  0
   -2.0160    4.6027   -0.1973 H   0  0  0  0  0  0  0  0  0  0  0  0
   -1.0215    4.1993    1.2115 H   0  0  0  0  0  0  0  0  0  0  0  0
   -4.1940    2.6026   -1.2498 H   0  0  0  0  0  0  0  0  0  0  0  0
   -3.5687    2.4724   -2.8948 H   0  0  0  0  0  0  0  0  0  0  0  0
   -3.1653    3.8904   -1.9134 H   0  0  0  0  0  0  0  0  0  0  0  0
    0.0027    3.3501    2.1123 N   0  0  0  0  0  0  0  0  0  0  0  0
    0.4645    4.0303    3.3008 C   0  0  2  0  0  0  0  0  0  0  0  0
    1.0960    5.3485    2.8728 C   0  0  0  0  0  0  0  0  0  0  0  0
    1.5316    5.5472    1.7407 O   0  0  0  0  0  0  0  0  0  0  0  0
    1.4575    3.1781    4.0756 C   0  0  0  0  0  0  0  0  0  0  0  0
   -0.2442    3.9095    1.3013 H   0  0  0  0  0  0  0  0  0  0  0  0
   -0.4206    4.2309    3.9144 H   0  0  0  0  0  0  0  0  0  0  0  0
    2.3510    2.9667    3.4769 H   0  0  0  0  0  0  0  0  0  0  0  0
    1.7846    3.6830    4.9905 H   0  0  0  0  0  0  0  0  0  0  0  0
    1.0111    2.2182    4.3568 H   0  0  0  0  0  0  0  0  0  0  0  0
    1.1550    6.2619    3.9161 N   0  0  0  0  0  0  0  0  0  0  0  0
    1.7222    7.5816    3.7657 C   0  0  0  0  0  0  0  0  0  0  0  0
    0.7524    6.0188    4.8164 H   0  0  0  0  0  0  0  0  0  0  0  0
    2.7867    7.5575    4.0419 H   0  0  0  0  0  0  0  0  0  0  0  0
    1.6223    7.9065    2.7195 H   0  0  0  0  0  0  0  0  0  0  0  0
    1.1894    8.2864    4.4210 H   0  0  0  0  0  0  0  0  0  0  0  0
  1  3  1  0  0  0  0
  1  7  1  0  0  0  0
  1  2  2  0  0  0  0
 37 38  1  0  0  0  0
 38 46  1  0  0  0  0
 38 39  2  0  0  0  0
  8  9  1  0  0  0  0
  9 17  1  0  0  0  0
  9 10  2  0  0  0  0
 18 19  1  0  0  0  0
 19 36  1  0  0  0  0
 19 20  2  0  0  0  0
 22 24  1  0  0  0  0
 37 40  1  0  0  0  0
  8 11  1  0  0  0  0
 21 23  1  0  0  0  0
 46 47  1  0  0  0  0
 21 22  1  0  0  0  0
 36 37  1  0  0  0  0
  7  8  1  0  0  0  0
 18 21  1  0  0  0  0
 17 18  1  0  0  0  0
  3  4  1  0  0  0  0
  3  5  1  0  0  0  0
  3  6  1  0  0  0  0
 24 33  1  0  0  0  0
 24 34  1  0  0  0  0
 24 35  1  0  0  0  0
 40 43  1  0  0  0  0
 40 44  1  0  0  0  0
 40 45  1  0  0  0  0
 11 14  1  0  0  0  0
 11 15  1  0  0  0  0
 11 16  1  0  0  0  0
 23 30  1  0  0  0  0
 23 31  1  0  0  0  0
 23 32  1  0  0  0  0
 47 49  1  0  0  0  0
 47 50  1  0  0  0  0
 47 51  1  0  0  0  0
 22 28  1  0  0  0  0
 22 29  1  0  0  0  0
 37 42  1  0  0  0  0
  8 13  1  0  0  0  0
 18 26  1  0  0  0  0
 21 27  1  0  0  0  0
 46 48  1  0  0  0  0
  7 12  1  0  0  0  0
 36 41  1  0  0  0  0
 17 25  1  0  0  0  0
M  END
$$$$

  -OEChem-05262214473D

 51 50  0     1  0  0  0  0  0999 V2000
    1.3524   -3.0009    1.4091 C   0  0  0  0  0  0  0  0  0  0  0  0
    1.8758   -1.9880    0.9598 O   0  0  0  0  0  0  0  0  0  0  0  0
    2.2030   -4.1782    1.7536 C   0  0  0  0  0  0  0  0  0  0  0  0
    2.3264   -4.8705    0.9053 H   0  0  0  0  0  0  0  0  0  0  0  0
    3.2257   -3.8876    2.0432 H   0  0  0  0  0  0  0  0  0  0  0  0
    1.8327   -4.8004    2.5839 H   0  0  0  0  0  0  0  0  0  0  0  0
    0.0005   -3.1873    1.6465 N   0  0  0  0  0  0  0  0  0  0  0  0
   -0.9949   -2.1807    1.3864 C   0  0  2  0  0  0  0  0  0  0  0  0
   -0.3083   -0.8216    1.4164 C   0  0  0  0  0  0  0  0  0  0  0  0
    0.7533   -0.6191    2.0022 O   0  0  0  0  0  0  0  0  0  0  0  0
   -2.1232   -2.2423    2.4042 C   0  0  0  0  0  0  0  0  0  0  0  0
   -0.3048   -4.0823    2.0245 H   0  0  0  0  0  0  0  0  0  0  0  0
   -1.3830   -2.3724    0.3801 H   0  0  0  0  0  0  0  0  0  0  0  0
   -1.7534   -2.0527    3.4185 H   0  0  0  0  0  0  0  0  0  0  0  0
   -2.8936   -1.4947    2.1882 H   0  0  0  0  0  0  0  0  0  0  0  0
   -2.5964   -3.2301    2.4022 H   0  0  0  0  0  0  0  0  0  0  0  0
   -1.0412    0.1517    0.7482 N   0  0  0  0  0  0  0  0  0  0  0  0
   -0.6079    1.5223    0.6467 C   0  0  2  0  0  0  0  0  0  0  0  0
   -0.1201    1.9707    2.0237 C   0  0  0  0  0  0  0  0  0  0  0  0
    0.4048    1.2038    2.8286 O   0  0  0  0  0  0  0  0  0  0  0  0
   -1.6966    2.4593    0.0701 C   0  0  2  0  0  0  0  0  0  0  0  0
   -2.0820    2.0856   -1.3785 C   0  0  0  0  0  0  0  0  0  0  0  0
   -1.2449    3.9220    0.1762 C   0  0  0  0  0  0  0  0  0  0  0  0
   -3.3252    2.8082   -1.8814 C   0  0  0  0  0  0  0  0  0  0  0  0
   -1.9022   -0.1128    0.2753 H   0  0  0  0  0  0  0  0  0  0  0  0
    0.2629    1.5129   -0.0211 H   0  0  0  0  0  0  0  0  0  0  0  0
   -2.5961    2.3557    0.6916 H   0  0  0  0  0  0  0  0  0  0  0  0
   -1.2563    2.3358   -2.0544 H   0  0  0  0  0  0  0  0  0  0  0  0
   -2.2455    1.0048   -1.4639 H   0  0  0  0  0  0  0  0  0  0  0  0
   -0.3456    4.0962   -0.4243 H   0  0  0  0  0  0  0  0  0  0  0  0
   -2.0160    4.6027   -0.1973 H   0  0  0  0  0  0  0  0  0  0  0  0
   -1.0215    4.1993    1.2115 H   0  0  0  0  0  0  0  0  0  0  0  0
   -4.1940    2.6026   -1.2498 H   0  0  0  0  0  0  0  0  0  0  0  0
   -3.5687    2.4724   -2.8948 H   0  0  0  0  0  0  0  0  0  0  0  0
   -3.1653    3.8904   -1.9134 H   0  0  0  0  0  0  0  0  0  0  0  0
   -0.3107    3.3296    2.2300 N   0  0  0  0  0  0  0  0  0  0  0  0
    0.0823    4.0104    3.4427 C   0  0  2  0  0  0  0  0  0  0  0  0
    0.3546    5.4683    3.0965 C   0  0  0  0  0  0  0  0  0  0  0  0
    0.6341    5.8472    1.9610 O   0  0  0  0  0  0  0  0  0  0  0  0
    1.3074    3.3624    4.0688 C   0  0  0  0  0  0  0  0  0  0  0  0
   -0.7483    3.8730    1.4918 H   0  0  0  0  0  0  0  0  0  0  0  0
   -0.7692    3.9503    4.1293 H   0  0  0  0  0  0  0  0  0  0  0  0
    2.1709    3.4129    3.3954 H   0  0  0  0  0  0  0  0  0  0  0  0
    1.5868    3.8616    5.0025 H   0  0  0  0  0  0  0  0  0  0  0  0
    1.1196    2.3062    4.2897 H   0  0  0  0  0  0  0  0  0  0  0  0
    0.2912    6.2904    4.2129 N   0  0  0  0  0  0  0  0  0  0  0  0
    0.5245    7.7142    4.1468 C   0  0  0  0  0  0  0  0  0  0  0  0
    0.0340    5.8935    5.1118 H   0  0  0  0  0  0  0  0  0  0  0  0
    1.5857    7.9221    4.3486 H   0  0  0  0  0  0  0  0  0  0  0  0
    0.2632    8.0823    3.1437 H   0  0  0  0  0  0  0  0  0  0  0  0
   -0.0979    8.2228    4.8977 H   0  0  0  0  0  0  0  0  0  0  0  0
  1  3  1  0  0  0  0
  1  7  1  0  0  0  0
  1  2  2  0  0  0  0
 37 38  1  0  0  0  0
 38 46  1  0  0  0  0
 38 39  2  0  0  0  0
  8  9  1  0  0  0  0
  9 17  1  0  0  0  0
  9 10  2  0  0  0  0
 18 19  1  0  0  0  0
 19 36  1  0  0  0  0
 19 20  2  0  0  0  0
 22 24  1  0  0  0  0
 37 40  1  0  0  0  0
  8 11  1  0  0  0  0
 21 23  1  0  0  0  0
 46 47  1  0  0  0  0
 21 22  1  0  0  0  0
 36 37  1  0  0  0  0
  7  8  1  0  0  0  0
 18 21  1  0  0  0  0
 17 18  1  0  0  0  0
  3  4  1  0  0  0  0
  3  5  1  0  0  0  0
  3  6  1  0  0  0  0
 24 33  1  0  0  0  0
 24 34  1  0  0  0  0
 24 35  1  0  0  0  0
 40 43  1  0  0  0  0
 40 44  1  0  0  0  0
 40 45  1  0  0  0  0
 11 14  1  0  0  0  0
 11 15  1  0  0  0  0
 11 16  1  0  0  0  0
 23 30  1  0  0  0  0
 23 31  1  0  0  0  0
 23 32  1  0  0  0  0
 47 49  1  0  0  0  0
 47 50  1  0  0  0  0
 47 51  1  0  0  0  0
 22 28  1  0  0  0  0
 22 29  1  0  0  0  0
 37 42  1  0  0  0  0
  8 13  1  0  0  0  0
 18 26  1  0  0  0  0
 21 27  1  0  0  0  0
 46 48  1  0  0  0  0
  7 12  1  0  0  0  0
 36 41  1  0  0  0  0
 17 25  1  0  0  0  0
M  END
$$$$

  -OEChem-05262214473D

 51 50  0     1  0  0  0  0  0999 V2000
    1.3524   -3.0009    1.4091 C   0  0  0  0  0  0  0  0  0  0  0  0
    1.8758   -1.9880    0.9598 O   0  0  0  0  0  0  0  0  0  0  0  0
    2.2030   -4.1782    1.7536 C   0  0  0  0  0  0  0  0  0  0  0  0
    2.3264   -4.8705    0.9053 H   0  0  0  0  0  0  0  0  0  0  0  0
    3.2257   -3.8876    2.0432 H   0  0  0  0  0  0  0  0  0  0  0  0
    1.8327   -4.8004    2.5839 H   0  0  0  0  0  0  0  0  0  0  0  0
    0.0005   -3.1873    1.6465 N   0  0  0  0  0  0  0  0  0  0  0  0
   -0.9949   -2.1807    1.3864 C   0  0  2  0  0  0  0  0  0  0  0  0
   -0.3083   -0.8216    1.4164 C   0  0  0  0  0  0  0  0  0  0  0  0
    0.7533   -0.6191    2.0022 O   0  0  0  0  0  0  0  0  0  0  0  0
   -2.1232   -2.2423    2.4042 C   0  0  0  0  0  0  0  0  0  0  0  0
   -0.3048   -4.0823    2.0245 H   0  0  0  0  0  0  0  0  0  0  0  0
   -1.3830   -2.3724    0.3801 H   0  0  0  0  0  0  0  0  0  0  0  0
   -1.7534   -2.0527    3.4185 H   0  0  0  0  0  0  0  0  0  0  0  0
   -2.8936   -1.4947    2.1882 H   0  0  0  0  0  0  0  0  0  0  0  0
   -2.5964   -3.2301    2.4022 H   0  0  0  0  0  0  0  0  0  0  0  0
   -1.0412    0.1517    0.7482 N   0  0  0  0  0  0  0  0  0  0  0  0
   -0.6079    1.5223    0.6467 C   0  0  2  0  0  0  0  0  0  0  0  0
   -0.1201    1.9707    2.0237 C   0  0  0  0  0  0  0  0  0  0  0  0
    0.6342    1.2925    2.7184 O   0  0  0  0  0  0  0  0  0  0  0  0
   -1.6966    2.4593    0.0701 C   0  0  2  0  0  0  0  0  0  0  0  0
   -2.0820    2.0856   -1.3785 C   0  0  0  0  0  0  0  0  0  0  0  0
   -1.2449    3.9220    0.1762 C   0  0  0  0  0  0  0  0  0  0  0  0
   -3.3252    2.8082   -1.8814 C   0  0  0  0  0  0  0  0  0  0  0  0
   -1.9022   -0.1128    0.2753 H   0  0  0  0  0  0  0  0  0  0  0  0
    0.2629    1.5129   -0.0211 H   0  0  0  0  0  0  0  0  0  0  0  0
   -2.5961    2.3557    0.6916 H   0  0  0  0  0  0  0  0  0  0  0  0
   -1.2563    2.3358   -2.0544 H   0  0  0  0  0  0  0  0  0  0  0  0
   -2.2455    1.0048   -1.4639 H   0  0  0  0  0  0  0  0  0  0  0  0
   -0.3456    4.0962   -0.4243 H   0  0  0  0  0  0  0  0  0  0  0  0
   -2.0160    4.6027   -0.1973 H   0  0  0  0  0  0  0  0  0  0  0  0
   -1.0215    4.1993    1.2115 H   0  0  0  0  0  0  0  0  0  0  0  0
   -4.1940    2.6026   -1.2498 H   0  0  0  0  0  0  0  0  0  0  0  0
   -3.5687    2.4724   -2.8948 H   0  0  0  0  0  0  0  0  0  0  0  0
   -3.1653    3.8904   -1.9134 H   0  0  0  0  0  0  0  0  0  0  0  0
   -0.5998    3.2271    2.3658 N   0  0  0  0  0  0  0  0  0  0  0  0
   -0.2714    3.8902    3.6071 C   0  0  2  0  0  0  0  0  0  0  0  0
   -0.3725    5.3926    3.3787 C   0  0  0  0  0  0  0  0  0  0  0  0
   -0.2860    5.9094    2.2667 O   0  0  0  0  0  0  0  0  0  0  0  0
    1.1190    3.5060    4.0888 C   0  0  0  0  0  0  0  0  0  0  0  0
   -1.2123    3.7044    1.7111 H   0  0  0  0  0  0  0  0  0  0  0  0
   -1.0241    3.5802    4.3401 H   0  0  0  0  0  0  0  0  0  0  0  0
    1.8866    3.8086    3.3673 H   0  0  0  0  0  0  0  0  0  0  0  0
    1.3550    3.9870    5.0438 H   0  0  0  0  0  0  0  0  0  0  0  0
    1.1988    2.4220    4.2240 H   0  0  0  0  0  0  0  0  0  0  0  0
   -0.5273    6.0920    4.5675 N   0  0  0  0  0  0  0  0  0  0  0  0
   -0.6343    7.5314    4.6169 C   0  0  0  0  0  0  0  0  0  0  0  0
   -0.6083    5.5804    5.4413 H   0  0  0  0  0  0  0  0  0  0  0  0
    0.3639    7.9689    4.7663 H   0  0  0  0  0  0  0  0  0  0  0  0
   -1.0583    7.9002    3.6713 H   0  0  0  0  0  0  0  0  0  0  0  0
   -1.2903    7.8218    5.4508 H   0  0  0  0  0  0  0  0  0  0  0  0
  1  3  1  0  0  0  0
  1  7  1  0  0  0  0
  1  2  2  0  0  0  0
 37 38  1  0  0  0  0
 38 46  1  0  0  0  0
 38 39  2  0  0  0  0
  8  9  1  0  0  0  0
  9 17  1  0  0  0  0
  9 10  2  0  0  0  0
 18 19  1  0  0  0  0
 19 36  1  0  0  0  0
 19 20  2  0  0  0  0
 22 24  1  0  0  0  0
 37 40  1  0  0  0  0
  8 11  1  0  0  0  0
 21 23  1  0  0  0  0
 46 47  1  0  0  0  0
 21 22  1  0  0  0  0
 36 37  1  0  0  0  0
  7  8  1  0  0  0  0
 18 21  1  0  0  0  0
 17 18  1  0  0  0  0
  3  4  1  0  0  0  0
  3  5  1  0  0  0  0
  3  6  1  0  0  0  0
 24 33  1  0  0  0  0
 24 34  1  0  0  0  0
 24 35  1  0  0  0  0
 40 43  1  0  0  0  0
 40 44  1  0  0  0  0
 40 45  1  0  0  0  0
 11 14  1  0  0  0  0
 11 15  1  0  0  0  0
 11 16  1  0  0  0  0
 23 30  1  0  0  0  0
 23 31  1  0  0  0  0
 23 32  1  0  0  0  0
 47 49  1  0  0  0  0
 47 50  1  0  0  0  0
 47 51  1  0  0  0  0
 22 28  1  0  0  0  0
 22 29  1  0  0  0  0
 37 42  1  0  0  0  0
  8 13  1  0  0  0  0
 18 26  1  0  0  0  0
 21 27  1  0  0  0  0
 46 48  1  0  0  0  0
  7 12  1  0  0  0  0
 36 41  1  0  0  0  0
 17 25  1  0  0  0  0
M  END
$$$$

  -OEChem-05262214473D

 51 50  0     1  0  0  0  0  0999 V2000
    1.3524   -3.0009    1.4091 C   0  0  0  0  0  0  0  0  0  0  0  0
    1.8758   -1.9880    0.9598 O   0  0  0  0  0  0  0  0  0  0  0  0
    2.2030   -4.1782    1.7536 C   0  0  0  0  0  0  0  0  0  0  0  0
    2.3264   -4.8705    0.9053 H   0  0  0  0  0  0  0  0  0  0  0  0
    3.2257   -3.8876    2.0432 H   0  0  0  0  0  0  0  0  0  0  0  0
    1.8327   -4.8004    2.5839 H   0  0  0  0  0  0  0  0  0  0  0  0
    0.0005   -3.1873    1.6465 N   0  0  0  0  0  0  0  0  0  0  0  0
   -0.9949   -2.1807    1.3864 C   0  0  2  0  0  0  0  0  0  0  0  0
   -0.3083   -0.8216    1.4164 C   0  0  0  0  0  0  0  0  0  0  0  0
    0.7533   -0.6191    2.0022 O   0  0  0  0  0  0  0  0  0  0  0  0
   -2.1232   -2.2423    2.4042 C   0  0  0  0  0  0  0  0  0  0  0  0
   -0.3048   -4.0823    2.0245 H   0  0  0  0  0  0  0  0  0  0  0  0
   -1.3830   -2.3724    0.3801 H   0  0  0  0  0  0  0  0  0  0  0  0
   -1.7534   -2.0527    3.4185 H   0  0  0  0  0  0  0  0  0  0  0  0
   -2.8936   -1.4947    2.1882 H   0  0  0  0  0  0  0  0  0  0  0  0
   -2.5964   -3.2301    2.4022 H   0  0  0  0  0  0  0  0  0  0  0  0
   -1.0412    0.1517    0.7482 N   0  0  0  0  0  0  0  0  0  0  0  0
   -0.6079    1.5223    0.6467 C   0  0  2  0  0  0  0  0  0  0  0  0
   -0.1201    1.9707    2.0237 C   0  0  0  0  0  0  0  0  0  0  0  0
    0.8267    1.4408    2.6019 O   0  0  0  0  0  0  0  0  0  0  0  0
   -1.6966    2.4593    0.0701 C   0  0  2  0  0  0  0  0  0  0  0  0
   -2.0820    2.0856   -1.3785 C   0  0  0  0  0  0  0  0  0  0  0  0
   -1.2449    3.9220    0.1762 C   0  0  0  0  0  0  0  0  0  0  0  0
   -3.3252    2.8082   -1.8814 C   0  0  0  0  0  0  0  0  0  0  0  0
   -1.9022   -0.1128    0.2753 H   0  0  0  0  0  0  0  0  0  0  0  0
    0.2629    1.5129   -0.0211 H   0  0  0  0  0  0  0  0  0  0  0  0
   -2.5961    2.3557    0.6916 H   0  0  0  0  0  0  0  0  0  0  0  0
   -1.2563    2.3358   -2.0544 H   0  0  0  0  0  0  0  0  0  0  0  0
   -2.2455    1.0048   -1.4639 H   0  0  0  0  0  0  0  0  0  0  0  0
   -0.3456    4.0962   -0.4243 H   0  0  0  0  0  0  0  0  0  0  0  0
   -2.0160    4.6027   -0.1973 H   0  0  0  0  0  0  0  0  0  0  0  0
   -1.0215    4.1993    1.2115 H   0  0  0  0  0  0  0  0  0  0  0  0
   -4.1940    2.6026   -1.2498 H   0  0  0  0  0  0  0  0  0  0  0  0
   -3.5687    2.4724   -2.8948 H   0  0  0  0  0  0  0  0  0  0  0  0
   -3.1653    3.8904   -1.9134 H   0  0  0  0  0  0  0  0  0  0  0  0
   -0.8448    3.0493    2.5104 N   0  0  0  0  0  0  0  0  0  0  0  0
   -0.5725    3.6781    3.7829 C   0  0  2  0  0  0  0  0  0  0  0  0
   -1.0357    5.1266    3.7003 C   0  0  0  0  0  0  0  0  0  0  0  0
   -1.1661    5.7296    2.6371 O   0  0  0  0  0  0  0  0  0  0  0  0
    0.9050    3.5991    4.1343 C   0  0  0  0  0  0  0  0  0  0  0  0
   -1.6045    3.4152    1.9442 H   0  0  0  0  0  0  0  0  0  0  0  0
   -1.1681    3.1458    4.5326 H   0  0  0  0  0  0  0  0  0  0  0  0
    1.5177    4.1269    3.3943 H   0  0  0  0  0  0  0  0  0  0  0  0
    1.1051    4.0506    5.1116 H   0  0  0  0  0  0  0  0  0  0  0  0
    1.2433    2.5577    4.1640 H   0  0  0  0  0  0  0  0  0  0  0  0
   -1.2448    5.6801    4.9558 N   0  0  0  0  0  0  0  0  0  0  0  0
   -1.6753    7.0458    5.1439 C   0  0  0  0  0  0  0  0  0  0  0  0
   -1.1306    5.1010    5.7824 H   0  0  0  0  0  0  0  0  0  0  0  0
   -0.7955    7.6946    5.2664 H   0  0  0  0  0  0  0  0  0  0  0  0
   -2.2523    7.3724    4.2661 H   0  0  0  0  0  0  0  0  0  0  0  0
   -2.3066    7.1107    6.0424 H   0  0  0  0  0  0  0  0  0  0  0  0
  1  3  1  0  0  0  0
  1  7  1  0  0  0  0
  1  2  2  0  0  0  0
 37 38  1  0  0  0  0
 38 46  1  0  0  0  0
 38 39  2  0  0  0  0
  8  9  1  0  0  0  0
  9 17  1  0  0  0  0
  9 10  2  0  0  0  0
 18 19  1  0  0  0  0
 19 36  1  0  0  0  0
 19 20  2  0  0  0  0
 22 24  1  0  0  0  0
 37 40  1  0  0  0  0
  8 11  1  0  0  0  0
 21 23  1  0  0  0  0
 46 47  1  0  0  0  0
 21 22  1  0  0  0  0
 36 37  1  0  0  0  0
  7  8  1  0  0  0  0
 18 21  1  0  0  0  0
 17 18  1  0  0  0  0
  3  4  1  0  0  0  0
  3  5  1  0  0  0  0
  3  6  1  0  0  0  0
 24 33  1  0  0  0  0
 24 34  1  0  0  0  0
 24 35  1  0  0  0  0
 40 43  1  0  0  0  0
 40 44  1  0  0  0  0
 40 45  1  0  0  0  0
 11 14  1  0  0  0  0
 11 15  1  0  0  0  0
 11 16  1  0  0  0  0
 23 30  1  0  0  0  0
 23 31  1  0  0  0  0
 23 32  1  0  0  0  0
 47 49  1  0  0  0  0
 47 50  1  0  0  0  0
 47 51  1  0  0  0  0
 22 28  1  0  0  0  0
 22 29  1  0  0  0  0
 37 42  1  0  0  0  0
  8 13  1  0  0  0  0
 18 26  1  0  0  0  0
 21 27  1  0  0  0  0
 46 48  1  0  0  0  0
  7 12  1  0  0  0  0
 36 41  1  0  0  0  0
 17 25  1  0  0  0  0
M  END
$$$$

  -OEChem-05262214473D

 51 50  0     1  0  0  0  0  0999 V2000
    1.3524   -3.0009    1.4091 C   0  0  0  0  0  0  0  0  0  0  0  0
    1.8758   -1.9880    0.9598 O   0  0  0  0  0  0  0  0  0  0  0  0
    2.2030   -4.1782    1.7536 C   0  0  0  0  0  0  0  0  0  0  0  0
    2.3264   -4.8705    0.9053 H   0  0  0  0  0  0  0  0  0  0  0  0
    3.2257   -3.8876    2.0432 H   0  0  0  0  0  0  0  0  0  0  0  0
    1.8327   -4.8004    2.5839 H   0  0  0  0  0  0  0  0  0  0  0  0
    0.0005   -3.1873    1.6465 N   0  0  0  0  0  0  0  0  0  0  0  0
   -0.9949   -2.1807    1.3864 C   0  0  2  0  0  0  0  0  0  0  0  0
   -0.3083   -0.8216    1.4164 C   0  0  0  0  0  0  0  0  0  0  0  0
    0.7533   -0.6191    2.0022 O   0  0  0  0  0  0  0  0  0  0  0  0
   -2.1232   -2.2423    2.4042 C   0  0  0  0  0  0  0  0  0  0  0  0
   -0.3048   -4.0823    2.0245 H   0  0  0  0  0  0  0  0  0  0  0  0
   -1.3830   -2.3724    0.3801 H   0  0  0  0  0  0  0  0  0  0  0  0
   -1.7534   -2.0527    3.4185 H   0  0  0  0  0  0  0  0  0  0  0  0
   -2.8936   -1.4947    2.1882 H   0  0  0  0  0  0  0  0  0  0  0  0
   -2.5964   -3.2301    2.4022 H   0  0  0  0  0  0  0  0  0  0  0  0
   -1.0412    0.1517    0.7482 N   0  0  0  0  0  0  0  0  0  0  0  0
   -0.6079    1.5223    0.6467 C   0  0  2  0  0  0  0  0  0  0  0  0
   -0.1201    1.9707    2.0237 C   0  0  0  0  0  0  0  0  0  0  0  0
    0.9692    1.6386    2.4870 O   0  0  0  0  0  0  0  0  0  0  0  0
   -1.6966    2.4593    0.0701 C   0  0  2  0  0  0  0  0  0  0  0  0
   -2.0820    2.0856   -1.3785 C   0  0  0  0  0  0  0  0  0  0  0  0
   -1.2449    3.9220    0.1762 C   0  0  0  0  0  0  0  0  0  0  0  0
   -3.3252    2.8082   -1.8814 C   0  0  0  0  0  0  0  0  0  0  0  0
   -1.9022   -0.1128    0.2753 H   0  0  0  0  0  0  0  0  0  0  0  0
    0.2629    1.5129   -0.0211 H   0  0  0  0  0  0  0  0  0  0  0  0
   -2.5961    2.3557    0.6916 H   0  0  0  0  0  0  0  0  0  0  0  0
   -1.2563    2.3358   -2.0544 H   0  0  0  0  0  0  0  0  0  0  0  0
   -2.2455    1.0048   -1.4639 H   0  0  0  0  0  0  0  0  0  0  0  0
   -0.3456    4.0962   -0.4243 H   0  0  0  0  0  0  0  0  0  0  0  0
   -2.0160    4.6027   -0.1973 H   0  0  0  0  0  0  0  0  0  0  0  0
   -1.0215    4.1993    1.2115 H   0  0  0  0  0  0  0  0  0  0  0  0
   -4.1940    2.6026   -1.2498 H   0  0  0  0  0  0  0  0  0  0  0  0
   -3.5687    2.4724   -2.8948 H   0  0  0  0  0  0  0  0  0  0  0  0
   -3.1653    3.8904   -1.9134 H   0  0  0  0  0  0  0  0  0  0  0  0
   -1.0290    2.8086    2.6541 N   0  0  0  0  0  0  0  0  0  0  0  0
   -0.8006    3.3885    3.9580 C   0  0  2  0  0  0  0  0  0  0  0  0
   -1.5899    4.6885    4.0393 C   0  0  0  0  0  0  0  0  0  0  0  0
   -1.9462    5.3201    3.0468 O   0  0  0  0  0  0  0  0  0  0  0  0
    0.6800    3.6353    4.2022 C   0  0  0  0  0  0  0  0  0  0  0  0
   -1.8981    3.0251    2.1752 H   0  0  0  0  0  0  0  0  0  0  0  0
   -1.1912    2.6768    4.6935 H   0  0  0  0  0  0  0  0  0  0  0  0
    1.0891    4.3460    3.4748 H   0  0  0  0  0  0  0  0  0  0  0  0
    0.8539    4.0481    5.2014 H   0  0  0  0  0  0  0  0  0  0  0  0
    1.2501    2.7042    4.1139 H   0  0  0  0  0  0  0  0  0  0  0  0
   -1.8122    5.0828    5.3513 N   0  0  0  0  0  0  0  0  0  0  0  0
   -2.5276    6.2904    5.6918 C   0  0  0  0  0  0  0  0  0  0  0  0
   -1.4974    4.4879    6.1120 H   0  0  0  0  0  0  0  0  0  0  0  0
   -1.8135    7.1180    5.8148 H   0  0  0  0  0  0  0  0  0  0  0  0
   -3.2373    6.5351    4.8878 H   0  0  0  0  0  0  0  0  0  0  0  0
   -3.0774    6.1378    6.6323 H   0  0  0  0  0  0  0  0  0  0  0  0
  1  3  1  0  0  0  0
  1  7  1  0  0  0  0
  1  2  2  0  0  0  0
 37 38  1  0  0  0  0
 38 46  1  0  0  0  0
 38 39  2  0  0  0  0
  8  9  1  0  0  0  0
  9 17  1  0  0  0  0
  9 10  2  0  0  0  0
 18 19  1  0  0  0  0
 19 36  1  0  0  0  0
 19 20  2  0  0  0  0
 22 24  1  0  0  0  0
 37 40  1  0  0  0  0
  8 11  1  0  0  0  0
 21 23  1  0  0  0  0
 46 47  1  0  0  0  0
 21 22  1  0  0  0  0
 36 37  1  0  0  0  0
  7  8  1  0  0  0  0
 18 21  1  0  0  0  0
 17 18  1  0  0  0  0
  3  4  1  0  0  0  0
  3  5  1  0  0  0  0
  3  6  1  0  0  0  0
 24 33  1  0  0  0  0
 24 34  1  0  0  0  0
 24 35  1  0  0  0  0
 40 43  1  0  0  0  0
 40 44  1  0  0  0  0
 40 45  1  0  0  0  0
 11 14  1  0  0  0  0
 11 15  1  0  0  0  0
 11 16  1  0  0  0  0
 23 30  1  0  0  0  0
 23 31  1  0  0  0  0
 23 32  1  0  0  0  0
 47 49  1  0  0  0  0
 47 50  1  0  0  0  0
 47 51  1  0  0  0  0
 22 28  1  0  0  0  0
 22 29  1  0  0  0  0
 37 42  1  0  0  0  0
  8 13  1  0  0  0  0
 18 26  1  0  0  0  0
 21 27  1  0  0  0  0
 46 48  1  0  0  0  0
  7 12  1  0  0  0  0
 36 41  1  0  0  0  0
 17 25  1  0  0  0  0
M  END
$$$$

  -OEChem-05262214473D

 51 50  0     1  0  0  0  0  0999 V2000
    1.3524   -3.0009    1.4091 C   0  0  0  0  0  0  0  0  0  0  0  0
    1.8758   -1.9880    0.9598 O   0  0  0  0  0  0  0  0  0  0  0  0
    2.2030   -4.1782    1.7536 C   0  0  0  0  0  0  0  0  0  0  0  0
    2.3264   -4.8705    0.9053 H   0  0  0  0  0  0  0  0  0  0  0  0
    3.2257   -3.8876    2.0432 H   0  0  0  0  0  0  0  0  0  0  0  0
    1.8327   -4.8004    2.5839 H   0  0  0  0  0  0  0  0  0  0  0  0
    0.0005   -3.1873    1.6465 N   0  0  0  0  0  0  0  0  0  0  0  0
   -0.9949   -2.1807    1.3864 C   0  0  2  0  0  0  0  0  0  0  0  0
   -0.3083   -0.8216    1.4164 C   0  0  0  0  0  0  0  0  0  0  0  0
    0.7533   -0.6191    2.0022 O   0  0  0  0  0  0  0  0  0  0  0  0
   -2.1232   -2.2423    2.4042 C   0  0  0  0  0  0  0  0  0  0  0  0
   -0.3048   -4.0823    2.0245 H   0  0  0  0  0  0  0  0  0  0  0  0
   -1.3830   -2.3724    0.3801 H   0  0  0  0  0  0  0  0  0  0  0  0
   -1.7534   -2.0527    3.4185 H   0  0  0  0  0  0  0  0  0  0  0  0
   -2.8936   -1.4947    2.1882 H   0  0  0  0  0  0  0  0  0  0  0  0
   -2.5964   -3.2301    2.4022 H   0  0  0  0  0  0  0  0  0  0  0  0
   -1.0412    0.1517    0.7482 N   0  0  0  0  0  0  0  0  0  0  0  0
   -0.6079    1.5223    0.6467 C   0  0  2  0  0  0  0  0  0  0  0  0
   -0.1201    1.9707    2.0237 C   0  0  0  0  0  0  0  0  0  0  0  0
    1.0520    1.8723    2.3816 O   0  0  0  0  0  0  0  0  0  0  0  0
   -1.6966    2.4593    0.0701 C   0  0  2  0  0  0  0  0  0  0  0  0
   -2.0820    2.0856   -1.3785 C   0  0  0  0  0  0  0  0  0  0  0  0
   -1.2449    3.9220    0.1762 C   0  0  0  0  0  0  0  0  0  0  0  0
   -3.3252    2.8082   -1.8814 C   0  0  0  0  0  0  0  0  0  0  0  0
   -1.9022   -0.1128    0.2753 H   0  0  0  0  0  0  0  0  0  0  0  0
    0.2629    1.5129   -0.0211 H   0  0  0  0  0  0  0  0  0  0  0  0
   -2.5961    2.3557    0.6916 H   0  0  0  0  0  0  0  0  0  0  0  0
   -1.2563    2.3358   -2.0544 H   0  0  0  0  0  0  0  0  0  0  0  0
   -2.2455    1.0048   -1.4639 H   0  0  0  0  0  0  0  0  0  0  0  0
   -0.3456    4.0962   -0.4243 H   0  0  0  0  0  0  0  0  0  0  0  0
   -2.0160    4.6027   -0.1973 H   0  0  0  0  0  0  0  0  0  0  0  0
   -1.0215    4.1993    1.2115 H   0  0  0  0  0  0  0  0  0  0  0  0
   -4.1940    2.6026   -1.2498 H   0  0  0  0  0  0  0  0  0  0  0  0
   -3.5687    2.4724   -2.8948 H   0  0  0  0  0  0  0  0  0  0  0  0
   -3.1653    3.8904   -1.9134 H   0  0  0  0  0  0  0  0  0  0  0  0
   -1.1398    2.5212    2.7870 N   0  0  0  0  0  0  0  0  0  0  0  0
   -0.9400    3.0411    4.1205 C   0  0  2  0  0  0  0  0  0  0  0  0
   -1.9972    4.1080    4.3727 C   0  0  0  0  0  0  0  0  0  0  0  0
   -2.5730    4.7088    3.4679 O   0  0  0  0  0  0  0  0  0  0  0  0
    0.4594    3.6123    4.2878 C   0  0  0  0  0  0  0  0  0  0  0  0
   -2.0733    2.5608    2.3885 H   0  0  0  0  0  0  0  0  0  0  0  0
   -1.0919    2.2050    4.8119 H   0  0  0  0  0  0  0  0  0  0  0  0
    0.6301    4.4511    3.6032 H   0  0  0  0  0  0  0  0  0  0  0  0
    0.6187    3.9798    5.3070 H   0  0  0  0  0  0  0  0  0  0  0  0
    1.2187    2.8514    4.0771 H   0  0  0  0  0  0  0  0  0  0  0  0
   -2.1910    4.3409    5.7271 N   0  0  0  0  0  0  0  0  0  0  0  0
   -3.1331    5.3166    6.2234 C   0  0  0  0  0  0  0  0  0  0  0  0
   -1.6838    3.7829    6.4076 H   0  0  0  0  0  0  0  0  0  0  0  0
   -2.6206    6.2782    6.3742 H   0  0  0  0  0  0  0  0  0  0  0  0
   -3.9463    5.4451    5.4939 H   0  0  0  0  0  0  0  0  0  0  0  0
   -3.5503    4.9697    7.1802 H   0  0  0  0  0  0  0  0  0  0  0  0
  1  3  1  0  0  0  0
  1  7  1  0  0  0  0
  1  2  2  0  0  0  0
 37 38  1  0  0  0  0
 38 46  1  0  0  0  0
 38 39  2  0  0  0  0
  8  9  1  0  0  0  0
  9 17  1  0  0  0  0
  9 10  2  0  0  0  0
 18 19  1  0  0  0  0
 19 36  1  0  0  0  0
 19 20  2  0  0  0  0
 22 24  1  0  0  0  0
 37 40  1  0  0  0  0
  8 11  1  0  0  0  0
 21 23  1  0  0  0  0
 46 47  1  0  0  0  0
 21 22  1  0  0  0  0
 36 37  1  0  0  0  0
  7  8  1  0  0  0  0
 18 21  1  0  0  0  0
 17 18  1  0  0  0  0
  3  4  1  0  0  0  0
  3  5  1  0  0  0  0
  3  6  1  0  0  0  0
 24 33  1  0  0  0  0
 24 34  1  0  0  0  0
 24 35  1  0  0  0  0
 40 43  1  0  0  0  0
 40 44  1  0  0  0  0
 40 45  1  0  0  0  0
 11 14  1  0  0  0  0
 11 15  1  0  0  0  0
 11 16  1  0  0  0  0
 23 30  1  0  0  0  0
 23 31  1  0  0  0  0
 23 32  1  0  0  0  0
 47 49  1  0  0  0  0
 47 50  1  0  0  0  0
 47 51  1  0  0  0  0
 22 28  1  0  0  0  0
 22 29  1  0  0  0  0
 37 42  1  0  0  0  0
  8 13  1  0  0  0  0
 18 26  1  0  0  0  0
 21 27  1  0  0  0  0
 46 48  1  0  0  0  0
  7 12  1  0  0  0  0
 36 41  1  0  0  0  0
 17 25  1  0  0  0  0
M  END
$$$$

  -OEChem-05262214473D

 51 50  0     1  0  0  0  0  0999 V2000
    1.3524   -3.0009    1.4091 C   0  0  0  0  0  0  0  0  0  0  0  0
    1.8758   -1.9880    0.9598 O   0  0  0  0  0  0  0  0  0  0  0  0
    2.2030   -4.1782    1.7536 C   0  0  0  0  0  0  0  0  0  0  0  0
    2.3264   -4.8705    0.9053 H   0  0  0  0  0  0  0  0  0  0  0  0
    3.2257   -3.8876    2.0432 H   0  0  0  0  0  0  0  0  0  0  0  0
    1.8327   -4.8004    2.5839 H   0  0  0  0  0  0  0  0  0  0  0  0
    0.0005   -3.1873    1.6465 N   0  0  0  0  0  0  0  0  0  0  0  0
   -0.9949   -2.1807    1.3864 C   0  0  2  0  0  0  0  0  0  0  0  0
   -0.3083   -0.8216    1.4164 C   0  0  0  0  0  0  0  0  0  0  0  0
    0.7533   -0.6191    2.0022 O   0  0  0  0  0  0  0  0  0  0  0  0
   -2.1232   -2.2423    2.4042 C   0  0  0  0  0  0  0  0  0  0  0  0
   -0.3048   -4.0823    2.0245 H   0  0  0  0  0  0  0  0  0  0  0  0
   -1.3830   -2.3724    0.3801 H   0  0  0  0  0  0  0  0  0  0  0  0
   -1.7534   -2.0527    3.4185 H   0  0  0  0  0  0  0  0  0  0  0  0
   -2.8936   -1.4947    2.1882 H   0  0  0  0  0  0  0  0  0  0  0  0
   -2.5964   -3.2301    2.4022 H   0  0  0  0  0  0  0  0  0  0  0  0
   -1.0412    0.1517    0.7482 N   0  0  0  0  0  0  0  0  0  0  0  0
   -0.6079    1.5223    0.6467 C   0  0  2  0  0  0  0  0  0  0  0  0
   -0.1201    1.9707    2.0237 C   0  0  0  0  0  0  0  0  0  0  0  0
    1.0694    2.1261    2.2928 O   0  0  0  0  0  0  0  0  0  0  0  0
   -1.6966    2.4593    0.0701 C   0  0  2  0  0  0  0  0  0  0  0  0
   -2.0820    2.0856   -1.3785 C   0  0  0  0  0  0  0  0  0  0  0  0
   -1.2449    3.9220    0.1762 C   0  0  0  0  0  0  0  0  0  0  0  0
   -3.3252    2.8082   -1.8814 C   0  0  0  0  0  0  0  0  0  0  0  0
   -1.9022   -0.1128    0.2753 H   0  0  0  0  0  0  0  0  0  0  0  0
    0.2629    1.5129   -0.0211 H   0  0  0  0  0  0  0  0  0  0  0  0
   -2.5961    2.3557    0.6916 H   0  0  0  0  0  0  0  0  0  0  0  0
   -1.2563    2.3358   -2.0544 H   0  0  0  0  0  0  0  0  0  0  0  0
   -2.2455    1.0048   -1.4639 H   0  0  0  0  0  0  0  0  0  0  0  0
   -0.3456    4.0962   -0.4243 H   0  0  0  0  0  0  0  0  0  0  0  0
   -2.0160    4.6027   -0.1973 H   0  0  0  0  0  0  0  0  0  0  0  0
   -1.0215    4.1993    1.2115 H   0  0  0  0  0  0  0  0  0  0  0  0
   -4.1940    2.6026   -1.2498 H   0  0  0  0  0  0  0  0  0  0  0  0
   -3.5687    2.4724   -2.8948 H   0  0  0  0  0  0  0  0  0  0  0  0
   -3.1653    3.8904   -1.9134 H   0  0  0  0  0  0  0  0  0  0  0  0
   -1.1698    2.2068    2.9000 N   0  0  0  0  0  0  0  0  0  0  0  0
   -0.9814    2.6595    4.2594 C   0  0  2  0  0  0  0  0  0  0  0  0
   -2.2300    3.4247    4.6776 C   0  0  0  0  0  0  0  0  0  0  0  0
   -3.0040    3.9373    3.8718 O   0  0  0  0  0  0  0  0  0  0  0  0
    0.2582    3.5315    4.3854 C   0  0  0  0  0  0  0  0  0  0  0  0
   -2.1179    2.0538    2.5694 H   0  0  0  0  0  0  0  0  0  0  0  0
   -0.8770    1.7627    4.8798 H   0  0  0  0  0  0  0  0  0  0  0  0
    0.1720    4.4349    3.7708 H   0  0  0  0  0  0  0  0  0  0  0  0
    0.4155    3.8502    5.4212 H   0  0  0  0  0  0  0  0  0  0  0  0
    1.1512    2.9893    4.0561 H   0  0  0  0  0  0  0  0  0  0  0  0
   -2.3552    3.5049    6.0575 N   0  0  0  0  0  0  0  0  0  0  0  0
   -3.4504    4.1910    6.7024 C   0  0  0  0  0  0  0  0  0  0  0  0
   -1.6768    3.0341    6.6490 H   0  0  0  0  0  0  0  0  0  0  0  0
   -3.1619    5.2327    6.9064 H   0  0  0  0  0  0  0  0  0  0  0  0
   -4.3308    4.1769    6.0431 H   0  0  0  0  0  0  0  0  0  0  0  0
   -3.6930    3.6857    7.6489 H   0  0  0  0  0  0  0  0  0  0  0  0
  1  3  1  0  0  0  0
  1  7  1  0  0  0  0
  1  2  2  0  0  0  0
 37 38  1  0  0  0  0
 38 46  1  0  0  0  0
 38 39  2  0  0  0  0
  8  9  1  0  0  0  0
  9 17  1  0  0  0  0
  9 10  2  0  0  0  0
 18 19  1  0  0  0  0
 19 36  1  0  0  0  0
 19 20  2  0  0  0  0
 22 24  1  0  0  0  0
 37 40  1  0  0  0  0
  8 11  1  0  0  0  0
 21 23  1  0  0  0  0
 46 47  1  0  0  0  0
 21 22  1  0  0  0  0
 36 37  1  0  0  0  0
  7  8  1  0  0  0  0
 18 21  1  0  0  0  0
 17 18  1  0  0  0  0
  3  4  1  0  0  0  0
  3  5  1  0  0  0  0
  3  6  1  0  0  0  0
 24 33  1  0  0  0  0
 24 34  1  0  0  0  0
 24 35  1  0  0  0  0
 40 43  1  0  0  0  0
 40 44  1  0  0  0  0
 40 45  1  0  0  0  0
 11 14  1  0  0  0  0
 11 15  1  0  0  0  0
 11 16  1  0  0  0  0
 23 30  1  0  0  0  0
 23 31  1  0  0  0  0
 23 32  1  0  0  0  0
 47 49  1  0  0  0  0
 47 50  1  0  0  0  0
 47 51  1  0  0  0  0
 22 28  1  0  0  0  0
 22 29  1  0  0  0  0
 37 42  1  0  0  0  0
  8 13  1  0  0  0  0
 18 26  1  0  0  0  0
 21 27  1  0  0  0  0
 46 48  1  0  0  0  0
  7 12  1  0  0  0  0
 36 41  1  0  0  0  0
 17 25  1  0  0  0  0
M  END
$$$$

  -OEChem-05262214473D

 51 50  0     1  0  0  0  0  0999 V2000
    1.3524   -3.0009    1.4091 C   0  0  0  0  0  0  0  0  0  0  0  0
    1.8758   -1.9880    0.9598 O   0  0  0  0  0  0  0  0  0  0  0  0
    2.2030   -4.1782    1.7536 C   0  0  0  0  0  0  0  0  0  0  0  0
    2.3264   -4.8705    0.9053 H   0  0  0  0  0  0  0  0  0  0  0  0
    3.2257   -3.8876    2.0432 H   0  0  0  0  0  0  0  0  0  0  0  0
    1.8327   -4.8004    2.5839 H   0  0  0  0  0  0  0  0  0  0  0  0
    0.0005   -3.1873    1.6465 N   0  0  0  0  0  0  0  0  0  0  0  0
   -0.9949   -2.1807    1.3864 C   0  0  2  0  0  0  0  0  0  0  0  0
   -0.3083   -0.8216    1.4164 C   0  0  0  0  0  0  0  0  0  0  0  0
    0.7533   -0.6191    2.0022 O   0  0  0  0  0  0  0  0  0  0  0  0
   -2.1232   -2.2423    2.4042 C   0  0  0  0  0  0  0  0  0  0  0  0
   -0.3048   -4.0823    2.0245 H   0  0  0  0  0  0  0  0  0  0  0  0
   -1.3830   -2.3724    0.3801 H   0  0  0  0  0  0  0  0  0  0  0  0
   -1.7534   -2.0527    3.4185 H   0  0  0  0  0  0  0  0  0  0  0  0
   -2.8936   -1.4947    2.1882 H   0  0  0  0  0  0  0  0  0  0  0  0
   -2.5964   -3.2301    2.4022 H   0  0  0  0  0  0  0  0  0  0  0  0
   -1.0412    0.1517    0.7482 N   0  0  0  0  0  0  0  0  0  0  0  0
   -0.6079    1.5223    0.6467 C   0  0  2  0  0  0  0  0  0  0  0  0
   -0.1201    1.9707    2.0237 C   0  0  0  0  0  0  0  0  0  0  0  0
    1.0204    2.3827    2.2266 O   0  0  0  0  0  0  0  0  0  0  0  0
   -1.6966    2.4593    0.0701 C   0  0  2  0  0  0  0  0  0  0  0  0
   -2.0820    2.0856   -1.3785 C   0  0  0  0  0  0  0  0  0  0  0  0
   -1.2449    3.9220    0.1762 C   0  0  0  0  0  0  0  0  0  0  0  0
   -3.3252    2.8082   -1.8814 C   0  0  0  0  0  0  0  0  0  0  0  0
   -1.9022   -0.1128    0.2753 H   0  0  0  0  0  0  0  0  0  0  0  0
    0.2629    1.5129   -0.0211 H   0  0  0  0  0  0  0  0  0  0  0  0
   -2.5961    2.3557    0.6916 H   0  0  0  0  0  0  0  0  0  0  0  0
   -1.2563    2.3358   -2.0544 H   0  0  0  0  0  0  0  0  0  0  0  0
   -2.2455    1.0048   -1.4639 H   0  0  0  0  0  0  0  0  0  0  0  0
   -0.3456    4.0962   -0.4243 H   0  0  0  0  0  0  0  0  0  0  0  0
   -2.0160    4.6027   -0.1973 H   0  0  0  0  0  0  0  0  0  0  0  0
   -1.0215    4.1993    1.2115 H   0  0  0  0  0  0  0  0  0  0  0  0
   -4.1940    2.6026   -1.2498 H   0  0  0  0  0  0  0  0  0  0  0  0
   -3.5687    2.4724   -2.8948 H   0  0  0  0  0  0  0  0  0  0  0  0
   -3.1653    3.8904   -1.9134 H   0  0  0  0  0  0  0  0  0  0  0  0
   -1.1169    1.8868    2.9854 N   0  0  0  0  0  0  0  0  0  0  0  0
   -0.9217    2.2699    4.3652 C   0  0  2  0  0  0  0  0  0  0  0  0
   -2.2723    2.6853    4.9334 C   0  0  0  0  0  0  0  0  0  0  0  0
   -3.2096    3.0582    4.2309 O   0  0  0  0  0  0  0  0  0  0  0  0
    0.0901    3.3984    4.4883 C   0  0  0  0  0  0  0  0  0  0  0  0
   -2.0291    1.5387    2.7057 H   0  0  0  0  0  0  0  0  0  0  0  0
   -0.5611    1.3800    4.8925 H   0  0  0  0  0  0  0  0  0  0  0  0
   -0.2539    4.2986    3.9661 H   0  0  0  0  0  0  0  0  0  0  0  0
    0.2581    3.6681    5.5362 H   0  0  0  0  0  0  0  0  0  0  0  0
    1.0522    3.1085    4.0523 H   0  0  0  0  0  0  0  0  0  0  0  0
   -2.2939    2.6317    6.3201 N   0  0  0  0  0  0  0  0  0  0  0  0
   -3.4580    2.9901    7.0961 C   0  0  0  0  0  0  0  0  0  0  0  0
   -1.4772    2.2924    6.8198 H   0  0  0  0  0  0  0  0  0  0  0  0
   -3.4005    4.0525    7.3753 H   0  0  0  0  0  0  0  0  0  0  0  0
   -4.3648    2.8168    6.4980 H   0  0  0  0  0  0  0  0  0  0  0  0
   -3.4958    2.3735    8.0063 H   0  0  0  0  0  0  0  0  0  0  0  0
  1  3  1  0  0  0  0
  1  7  1  0  0  0  0
  1  2  2  0  0  0  0
 37 38  1  0  0  0  0
 38 46  1  0  0  0  0
 38 39  2  0  0  0  0
  8  9  1  0  0  0  0
  9 17  1  0  0  0  0
  9 10  2  0  0  0  0
 18 19  1  0  0  0  0
 19 36  1  0  0  0  0
 19 20  2  0  0  0  0
 22 24  1  0  0  0  0
 37 40  1  0  0  0  0
  8 11  1  0  0  0  0
 21 23  1  0  0  0  0
 46 47  1  0  0  0  0
 21 22  1  0  0  0  0
 36 37  1  0  0  0  0
  7  8  1  0  0  0  0
 18 21  1  0  0  0  0
 17 18  1  0  0  0  0
  3  4  1  0  0  0  0
  3  5  1  0  0  0  0
  3  6  1  0  0  0  0
 24 33  1  0  0  0  0
 24 34  1  0  0  0  0
 24 35  1  0  0  0  0
 40 43  1  0  0  0  0
 40 44  1  0  0  0  0
 40 45  1  0  0  0  0
 11 14  1  0  0  0  0
 11 15  1  0  0  0  0
 11 16  1  0  0  0  0
 23 30  1  0  0  0  0
 23 31  1  0  0  0  0
 23 32  1  0  0  0  0
 47 49  1  0  0  0  0
 47 50  1  0  0  0  0
 47 51  1  0  0  0  0
 22 28  1  0  0  0  0
 22 29  1  0  0  0  0
 37 42  1  0  0  0  0
  8 13  1  0  0  0  0
 18 26  1  0  0  0  0
 21 27  1  0  0  0  0
 46 48  1  0  0  0  0
  7 12  1  0  0  0  0
 36 41  1  0  0  0  0
 17 25  1  0  0  0  0
M  END
$$$$

  -OEChem-05262214473D

 51 50  0     1  0  0  0  0  0999 V2000
    1.3524   -3.0009    1.4091 C   0  0  0  0  0  0  0  0  0  0  0  0
    1.8758   -1.9880    0.9598 O   0  0  0  0  0  0  0  0  0  0  0  0
    2.2030   -4.1782    1.7536 C   0  0  0  0  0  0  0  0  0  0  0  0
    2.3264   -4.8705    0.9053 H   0  0  0  0  0  0  0  0  0  0  0  0
    3.2257   -3.8876    2.0432 H   0  0  0  0  0  0  0  0  0  0  0  0
    1.8327   -4.8004    2.5839 H   0  0  0  0  0  0  0  0  0  0  0  0
    0.0005   -3.1873    1.6465 N   0  0  0  0  0  0  0  0  0  0  0  0
   -0.9949   -2.1807    1.3864 C   0  0  2  0  0  0  0  0  0  0  0  0
   -0.3083   -0.8216    1.4164 C   0  0  0  0  0  0  0  0  0  0  0  0
    0.7533   -0.6191    2.0022 O   0  0  0  0  0  0  0  0  0  0  0  0
   -2.1232   -2.2423    2.4042 C   0  0  0  0  0  0  0  0  0  0  0  0
   -0.3048   -4.0823    2.0245 H   0  0  0  0  0  0  0  0  0  0  0  0
   -1.3830   -2.3724    0.3801 H   0  0  0  0  0  0  0  0  0  0  0  0
   -1.7534   -2.0527    3.4185 H   0  0  0  0  0  0  0  0  0  0  0  0
   -2.8936   -1.4947    2.1882 H   0  0  0  0  0  0  0  0  0  0  0  0
   -2.5964   -3.2301    2.4022 H   0  0  0  0  0  0  0  0  0  0  0  0
   -1.0412    0.1517    0.7482 N   0  0  0  0  0  0  0  0  0  0  0  0
   -0.6079    1.5223    0.6467 C   0  0  2  0  0  0  0  0  0  0  0  0
   -0.1201    1.9707    2.0237 C   0  0  0  0  0  0  0  0  0  0  0  0
    0.9081    2.6245    2.1876 O   0  0  0  0  0  0  0  0  0  0  0  0
   -1.6966    2.4593    0.0701 C   0  0  2  0  0  0  0  0  0  0  0  0
   -2.0820    2.0856   -1.3785 C   0  0  0  0  0  0  0  0  0  0  0  0
   -1.2449    3.9220    0.1762 C   0  0  0  0  0  0  0  0  0  0  0  0
   -3.3252    2.8082   -1.8814 C   0  0  0  0  0  0  0  0  0  0  0  0
   -1.9022   -0.1128    0.2753 H   0  0  0  0  0  0  0  0  0  0  0  0
    0.2629    1.5129   -0.0211 H   0  0  0  0  0  0  0  0  0  0  0  0
   -2.5961    2.3557    0.6916 H   0  0  0  0  0  0  0  0  0  0  0  0
   -1.2563    2.3358   -2.0544 H   0  0  0  0  0  0  0  0  0  0  0  0
   -2.2455    1.0048   -1.4639 H   0  0  0  0  0  0  0  0  0  0  0  0
   -0.3456    4.0962   -0.4243 H   0  0  0  0  0  0  0  0  0  0  0  0
   -2.0160    4.6027   -0.1973 H   0  0  0  0  0  0  0  0  0  0  0  0
   -1.0215    4.1993    1.2115 H   0  0  0  0  0  0  0  0  0  0  0  0
   -4.1940    2.6026   -1.2498 H   0  0  0  0  0  0  0  0  0  0  0  0
   -3.5687    2.4724   -2.8948 H   0  0  0  0  0  0  0  0  0  0  0  0
   -3.1653    3.8904   -1.9134 H   0  0  0  0  0  0  0  0  0  0  0  0
   -0.9846    1.5829    3.0375 N   0  0  0  0  0  0  0  0  0  0  0  0
   -0.7652    1.8986    4.4306 C   0  0  2  0  0  0  0  0  0  0  0  0
   -2.1213    1.9400    5.1226 C   0  0  0  0  0  0  0  0  0  0  0  0
   -3.1759    2.1314    4.5208 O   0  0  0  0  0  0  0  0  0  0  0  0
   -0.0334    3.2222    4.5894 C   0  0  0  0  0  0  0  0  0  0  0  0
   -1.8128    1.0506    2.7880 H   0  0  0  0  0  0  0  0  0  0  0  0
   -0.1657    1.0829    4.8492 H   0  0  0  0  0  0  0  0  0  0  0  0
   -0.6188    4.0515    4.1758 H   0  0  0  0  0  0  0  0  0  0  0  0
    0.1573    3.4461    5.6442 H   0  0  0  0  0  0  0  0  0  0  0  0
    0.9286    3.2009    4.0661 H   0  0  0  0  0  0  0  0  0  0  0  0
   -2.0110    1.7809    6.4969 N   0  0  0  0  0  0  0  0  0  0  0  0
   -3.1554    1.7958    7.3778 C   0  0  0  0  0  0  0  0  0  0  0  0
   -1.0984    1.6085    6.9083 H   0  0  0  0  0  0  0  0  0  0  0  0
   -3.3201    2.8182    7.7487 H   0  0  0  0  0  0  0  0  0  0  0  0
   -4.0459    1.4576    6.8277 H   0  0  0  0  0  0  0  0  0  0  0  0
   -2.9722    1.1225    8.2282 H   0  0  0  0  0  0  0  0  0  0  0  0
  1  3  1  0  0  0  0
  1  7  1  0  0  0  0
  1  2  2  0  0  0  0
 37 38  1  0  0  0  0
 38 46  1  0  0  0  0
 38 39  2  0  0  0  0
  8  9  1  0  0  0  0
  9 17  1  0  0  0  0
  9 10  2  0  0  0  0
 18 19  1  0  0  0  0
 19 36  1  0  0  0  0
 19 20  2  0  0  0  0
 22 24  1  0  0  0  0
 37 40  1  0  0  0  0
  8 11  1  0  0  0  0
 21 23  1  0  0  0  0
 46 47  1  0  0  0  0
 21 22  1  0  0  0  0
 36 37  1  0  0  0  0
  7  8  1  0  0  0  0
 18 21  1  0  0  0  0
 17 18  1  0  0  0  0
  3  4  1  0  0  0  0
  3  5  1  0  0  0  0
  3  6  1  0  0  0  0
 24 33  1  0  0  0  0
 24 34  1  0  0  0  0
 24 35  1  0  0  0  0
 40 43  1  0  0  0  0
 40 44  1  0  0  0  0
 40 45  1  0  0  0  0
 11 14  1  0  0  0  0
 11 15  1  0  0  0  0
 11 16  1  0  0  0  0
 23 30  1  0  0  0  0
 23 31  1  0  0  0  0
 23 32  1  0  0  0  0
 47 49  1  0  0  0  0
 47 50  1  0  0  0  0
 47 51  1  0  0  0  0
 22 28  1  0  0  0  0
 22 29  1  0  0  0  0
 37 42  1  0  0  0  0
  8 13  1  0  0  0  0
 18 26  1  0  0  0  0
 21 27  1  0  0  0  0
 46 48  1  0  0  0  0
  7 12  1  0  0  0  0
 36 41  1  0  0  0  0
 17 25  1  0  0  0  0
M  END
$$$$

  -OEChem-05262214473D

 51 50  0     1  0  0  0  0  0999 V2000
    1.3524   -3.0009    1.4091 C   0  0  0  0  0  0  0  0  0  0  0  0
    1.8758   -1.9880    0.9598 O   0  0  0  0  0  0  0  0  0  0  0  0
    2.2030   -4.1782    1.7536 C   0  0  0  0  0  0  0  0  0  0  0  0
    2.3264   -4.8705    0.9053 H   0  0  0  0  0  0  0  0  0  0  0  0
    3.2257   -3.8876    2.0432 H   0  0  0  0  0  0  0  0  0  0  0  0
    1.8327   -4.8004    2.5839 H   0  0  0  0  0  0  0  0  0  0  0  0
    0.0005   -3.1873    1.6465 N   0  0  0  0  0  0  0  0  0  0  0  0
   -0.9949   -2.1807    1.3864 C   0  0  2  0  0  0  0  0  0  0  0  0
   -0.3083   -0.8216    1.4164 C   0  0  0  0  0  0  0  0  0  0  0  0
    0.7533   -0.6191    2.0022 O   0  0  0  0  0  0  0  0  0  0  0  0
   -2.1232   -2.2423    2.4042 C   0  0  0  0  0  0  0  0  0  0  0  0
   -0.3048   -4.0823    2.0245 H   0  0  0  0  0  0  0  0  0  0  0  0
   -1.3830   -2.3724    0.3801 H   0  0  0  0  0  0  0  0  0  0  0  0
   -1.7534   -2.0527    3.4185 H   0  0  0  0  0  0  0  0  0  0  0  0
   -2.8936   -1.4947    2.1882 H   0  0  0  0  0  0  0  0  0  0  0  0
   -2.5964   -3.2301    2.4022 H   0  0  0  0  0  0  0  0  0  0  0  0
   -1.0412    0.1517    0.7482 N   0  0  0  0  0  0  0  0  0  0  0  0
   -0.6079    1.5223    0.6467 C   0  0  2  0  0  0  0  0  0  0  0  0
   -0.1201    1.9707    2.0237 C   0  0  0  0  0  0  0  0  0  0  0  0
    0.7403    2.8352    2.1785 O   0  0  0  0  0  0  0  0  0  0  0  0
   -1.6966    2.4593    0.0701 C   0  0  2  0  0  0  0  0  0  0  0  0
   -2.0820    2.0856   -1.3785 C   0  0  0  0  0  0  0  0  0  0  0  0
   -1.2449    3.9220    0.1762 C   0  0  0  0  0  0  0  0  0  0  0  0
   -3.3252    2.8082   -1.8814 C   0  0  0  0  0  0  0  0  0  0  0  0
   -1.9022   -0.1128    0.2753 H   0  0  0  0  0  0  0  0  0  0  0  0
    0.2629    1.5129   -0.0211 H   0  0  0  0  0  0  0  0  0  0  0  0
   -2.5961    2.3557    0.6916 H   0  0  0  0  0  0  0  0  0  0  0  0
   -1.2563    2.3358   -2.0544 H   0  0  0  0  0  0  0  0  0  0  0  0
   -2.2455    1.0048   -1.4639 H   0  0  0  0  0  0  0  0  0  0  0  0
   -0.3456    4.0962   -0.4243 H   0  0  0  0  0  0  0  0  0  0  0  0
   -2.0160    4.6027   -0.1973 H   0  0  0  0  0  0  0  0  0  0  0  0
   -1.0215    4.1993    1.2115 H   0  0  0  0  0  0  0  0  0  0  0  0
   -4.1940    2.6026   -1.2498 H   0  0  0  0  0  0  0  0  0  0  0  0
   -3.5687    2.4724   -2.8948 H   0  0  0  0  0  0  0  0  0  0  0  0
   -3.1653    3.8904   -1.9134 H   0  0  0  0  0  0  0  0  0  0  0  0
   -0.7820    1.3160    3.0526 N   0  0  0  0  0  0  0  0  0  0  0  0
   -0.5225    1.5712    4.4513 C   0  0  2  0  0  0  0  0  0  0  0  0
   -1.7873    1.2397    5.2323 C   0  0  0  0  0  0  0  0  0  0  0  0
   -2.9053    1.2201    4.7217 O   0  0  0  0  0  0  0  0  0  0  0  0
   -0.1039    3.0149    4.6820 C   0  0  0  0  0  0  0  0  0  0  0  0
   -1.4839    0.6228    2.8107 H   0  0  0  0  0  0  0  0  0  0  0  0
    0.2822    0.8918    4.7527 H   0  0  0  0  0  0  0  0  0  0  0  0
   -0.8976    3.7104    4.3857 H   0  0  0  0  0  0  0  0  0  0  0  0
    0.1198    3.1992    5.7379 H   0  0  0  0  0  0  0  0  0  0  0  0
    0.7886    3.2602    4.0963 H   0  0  0  0  0  0  0  0  0  0  0  0
   -1.5259    1.0105    6.5759 N   0  0  0  0  0  0  0  0  0  0  0  0
   -2.5632    0.6895    7.5283 C   0  0  0  0  0  0  0  0  0  0  0  0
   -0.5663    1.0289    6.9085 H   0  0  0  0  0  0  0  0  0  0  0  0
   -2.9262    1.6138    8.0014 H   0  0  0  0  0  0  0  0  0  0  0  0
   -3.3958    0.1918    7.0095 H   0  0  0  0  0  0  0  0  0  0  0  0
   -2.1577    0.0179    8.2994 H   0  0  0  0  0  0  0  0  0  0  0  0
  1  3  1  0  0  0  0
  1  7  1  0  0  0  0
  1  2  2  0  0  0  0
 37 38  1  0  0  0  0
 38 46  1  0  0  0  0
 38 39  2  0  0  0  0
  8  9  1  0  0  0  0
  9 17  1  0  0  0  0
  9 10  2  0  0  0  0
 18 19  1  0  0  0  0
 19 36  1  0  0  0  0
 19 20  2  0  0  0  0
 22 24  1  0  0  0  0
 37 40  1  0  0  0  0
  8 11  1  0  0  0  0
 21 23  1  0  0  0  0
 46 47  1  0  0  0  0
 21 22  1  0  0  0  0
 36 37  1  0  0  0  0
  7  8  1  0  0  0  0
 18 21  1  0  0  0  0
 17 18  1  0  0  0  0
  3  4  1  0  0  0  0
  3  5  1  0  0  0  0
  3  6  1  0  0  0  0
 24 33  1  0  0  0  0
 24 34  1  0  0  0  0
 24 35  1  0  0  0  0
 40 43  1  0  0  0  0
 40 44  1  0  0  0  0
 40 45  1  0  0  0  0
 11 14  1  0  0  0  0
 11 15  1  0  0  0  0
 11 16  1  0  0  0  0
 23 30  1  0  0  0  0
 23 31  1  0  0  0  0
 23 32  1  0  0  0  0
 47 49  1  0  0  0  0
 47 50  1  0  0  0  0
 47 51  1  0  0  0  0
 22 28  1  0  0  0  0
 22 29  1  0  0  0  0
 37 42  1  0  0  0  0
  8 13  1  0  0  0  0
 18 26  1  0  0  0  0
 21 27  1  0  0  0  0
 46 48  1  0  0  0  0
  7 12  1  0  0  0  0
 36 41  1  0  0  0  0
 17 25  1  0  0  0  0
M  END
$$$$

  -OEChem-05262214473D

 51 50  0     1  0  0  0  0  0999 V2000
    1.3524   -3.0009    1.4091 C   0  0  0  0  0  0  0  0  0  0  0  0
    1.8758   -1.9880    0.9598 O   0  0  0  0  0  0  0  0  0  0  0  0
    2.2030   -4.1782    1.7536 C   0  0  0  0  0  0  0  0  0  0  0  0
    2.3264   -4.8705    0.9053 H   0  0  0  0  0  0  0  0  0  0  0  0
    3.2257   -3.8876    2.0432 H   0  0  0  0  0  0  0  0  0  0  0  0
    1.8327   -4.8004    2.5839 H   0  0  0  0  0  0  0  0  0  0  0  0
    0.0005   -3.1873    1.6465 N   0  0  0  0  0  0  0  0  0  0  0  0
   -0.9949   -2.1807    1.3864 C   0  0  2  0  0  0  0  0  0  0  0  0
   -0.3083   -0.8216    1.4164 C   0  0  0  0  0  0  0  0  0  0  0  0
    0.7533   -0.6191    2.0022 O   0  0  0  0  0  0  0  0  0  0  0  0
   -2.1232   -2.2423    2.4042 C   0  0  0  0  0  0  0  0  0  0  0  0
   -0.3048   -4.0823    2.0245 H   0  0  0  0  0  0  0  0  0  0  0  0
   -1.3830   -2.3724    0.3801 H   0  0  0  0  0  0  0  0  0  0  0  0
   -1.7534   -2.0527    3.4185 H   0  0  0  0  0  0  0  0  0  0  0  0
   -2.8936   -1.4947    2.1882 H   0  0  0  0  0  0  0  0  0  0  0  0
   -2.5964   -3.2301    2.4022 H   0  0  0  0  0  0  0  0  0  0  0  0
   -1.0412    0.1517    0.7482 N   0  0  0  0  0  0  0  0  0  0  0  0
   -0.6079    1.5223    0.6467 C   0  0  2  0  0  0  0  0  0  0  0  0
   -0.1201    1.9707    2.0237 C   0  0  0  0  0  0  0  0  0  0  0  0
    0.5284    3.0003    2.1998 O   0  0  0  0  0  0  0  0  0  0  0  0
   -1.6966    2.4593    0.0701 C   0  0  2  0  0  0  0  0  0  0  0  0
   -2.0820    2.0856   -1.3785 C   0  0  0  0  0  0  0  0  0  0  0  0
   -1.2449    3.9220    0.1762 C   0  0  0  0  0  0  0  0  0  0  0  0
   -3.3252    2.8082   -1.8814 C   0  0  0  0  0  0  0  0  0  0  0  0
   -1.9022   -0.1128    0.2753 H   0  0  0  0  0  0  0  0  0  0  0  0
    0.2629    1.5129   -0.0211 H   0  0  0  0  0  0  0  0  0  0  0  0
   -2.5961    2.3557    0.6916 H   0  0  0  0  0  0  0  0  0  0  0  0
   -1.2563    2.3358   -2.0544 H   0  0  0  0  0  0  0  0  0  0  0  0
   -2.2455    1.0048   -1.4639 H   0  0  0  0  0  0  0  0  0  0  0  0
   -0.3456    4.0962   -0.4243 H   0  0  0  0  0  0  0  0  0  0  0  0
   -2.0160    4.6027   -0.1973 H   0  0  0  0  0  0  0  0  0  0  0  0
   -1.0215    4.1993    1.2115 H   0  0  0  0  0  0  0  0  0  0  0  0
   -4.1940    2.6026   -1.2498 H   0  0  0  0  0  0  0  0  0  0  0  0
   -3.5687    2.4724   -2.8948 H   0  0  0  0  0  0  0  0  0  0  0  0
   -3.1653    3.8904   -1.9134 H   0  0  0  0  0  0  0  0  0  0  0  0
   -0.5229    1.1041    3.0298 N   0  0  0  0  0  0  0  0  0  0  0  0
   -0.2102    1.3098    4.4257 C   0  0  2  0  0  0  0  0  0  0  0  0
   -1.2930    0.6321    5.2550 C   0  0  0  0  0  0  0  0  0  0  0  0
   -2.4160    0.3864    4.8198 O   0  0  0  0  0  0  0  0  0  0  0  0
   -0.1167    2.7905    4.7595 C   0  0  0  0  0  0  0  0  0  0  0  0
   -1.0646    0.2844    2.7724 H   0  0  0  0  0  0  0  0  0  0  0  0
    0.7521    0.8196    4.6098 H   0  0  0  0  0  0  0  0  0  0  0  0
   -1.0715    3.2985    4.5814 H   0  0  0  0  0  0  0  0  0  0  0  0
    0.1484    2.9442    5.8108 H   0  0  0  0  0  0  0  0  0  0  0  0
    0.6419    3.2823    4.1411 H   0  0  0  0  0  0  0  0  0  0  0  0
   -0.8717    0.3729    6.5518 N   0  0  0  0  0  0  0  0  0  0  0  0
   -1.7217   -0.2535    7.5372 C   0  0  0  0  0  0  0  0  0  0  0  0
    0.0829    0.5931    6.8204 H   0  0  0  0  0  0  0  0  0  0  0  0
   -2.2457    0.5214    8.1160 H   0  0  0  0  0  0  0  0  0  0  0  0
   -2.4588   -0.8943    7.0312 H   0  0  0  0  0  0  0  0  0  0  0  0
   -1.1080   -0.8651    8.2150 H   0  0  0  0  0  0  0  0  0  0  0  0
  1  3  1  0  0  0  0
  1  7  1  0  0  0  0
  1  2  2  0  0  0  0
 37 38  1  0  0  0  0
 38 46  1  0  0  0  0
 38 39  2  0  0  0  0
  8  9  1  0  0  0  0
  9 17  1  0  0  0  0
  9 10  2  0  0  0  0
 18 19  1  0  0  0  0
 19 36  1  0  0  0  0
 19 20  2  0  0  0  0
 22 24  1  0  0  0  0
 37 40  1  0  0  0  0
  8 11  1  0  0  0  0
 21 23  1  0  0  0  0
 46 47  1  0  0  0  0
 21 22  1  0  0  0  0
 36 37  1  0  0  0  0
  7  8  1  0  0  0  0
 18 21  1  0  0  0  0
 17 18  1  0  0  0  0
  3  4  1  0  0  0  0
  3  5  1  0  0  0  0
  3  6  1  0  0  0  0
 24 33  1  0  0  0  0
 24 34  1  0  0  0  0
 24 35  1  0  0  0  0
 40 43  1  0  0  0  0
 40 44  1  0  0  0  0
 40 45  1  0  0  0  0
 11 14  1  0  0  0  0
 11 15  1  0  0  0  0
 11 16  1  0  0  0  0
 23 30  1  0  0  0  0
 23 31  1  0  0  0  0
 23 32  1  0  0  0  0
 47 49  1  0  0  0  0
 47 50  1  0  0  0  0
 47 51  1  0  0  0  0
 22 28  1  0  0  0  0
 22 29  1  0  0  0  0
 37 42  1  0  0  0  0
  8 13  1  0  0  0  0
 18 26  1  0  0  0  0
 21 27  1  0  0  0  0
 46 48  1  0  0  0  0
  7 12  1  0  0  0  0
 36 41  1  0  0  0  0
 17 25  1  0  0  0  0
M  END
$$$$

  -OEChem-05262214473D

 51 50  0     1  0  0  0  0  0999 V2000
    1.3524   -3.0009    1.4091 C   0  0  0  0  0  0  0  0  0  0  0  0
    1.8758   -1.9880    0.9598 O   0  0  0  0  0  0  0  0  0  0  0  0
    2.2030   -4.1782    1.7536 C   0  0  0  0  0  0  0  0  0  0  0  0
    2.3264   -4.8705    0.9053 H   0  0  0  0  0  0  0  0  0  0  0  0
    3.2257   -3.8876    2.0432 H   0  0  0  0  0  0  0  0  0  0  0  0
    1.8327   -4.8004    2.5839 H   0  0  0  0  0  0  0  0  0  0  0  0
    0.0005   -3.1873    1.6465 N   0  0  0  0  0  0  0  0  0  0  0  0
   -0.9949   -2.1807    1.3864 C   0  0  2  0  0  0  0  0  0  0  0  0
   -0.3083   -0.8216    1.4164 C   0  0  0  0  0  0  0  0  0  0  0  0
    0.7533   -0.6191    2.0022 O   0  0  0  0  0  0  0  0  0  0  0  0
   -2.1232   -2.2423    2.4042 C   0  0  0  0  0  0  0  0  0  0  0  0
   -0.3048   -4.0823    2.0245 H   0  0  0  0  0  0  0  0  0  0  0  0
   -1.3830   -2.3724    0.3801 H   0  0  0  0  0  0  0  0  0  0  0  0
   -1.7534   -2.0527    3.4185 H   0  0  0  0  0  0  0  0  0  0  0  0
   -2.8936   -1.4947    2.1882 H   0  0  0  0  0  0  0  0  0  0  0  0
   -2.5964   -3.2301    2.4022 H   0  0  0  0  0  0  0  0  0  0  0  0
   -1.0412    0.1517    0.7482 N   0  0  0  0  0  0  0  0  0  0  0  0
   -0.6079    1.5223    0.6467 C   0  0  2  0  0  0  0  0  0  0  0  0
   -0.1201    1.9707    2.0237 C   0  0  0  0  0  0  0  0  0  0  0  0
    0.2868    3.1085    2.2501 O   0  0  0  0  0  0  0  0  0  0  0  0
   -1.6966    2.4593    0.0701 C   0  0  2  0  0  0  0  0  0  0  0  0
   -2.0820    2.0856   -1.3785 C   0  0  0  0  0  0  0  0  0  0  0  0
   -1.2449    3.9220    0.1762 C   0  0  0  0  0  0  0  0  0  0  0  0
   -3.3252    2.8082   -1.8814 C   0  0  0  0  0  0  0  0  0  0  0  0
   -1.9022   -0.1128    0.2753 H   0  0  0  0  0  0  0  0  0  0  0  0
    0.2629    1.5129   -0.0211 H   0  0  0  0  0  0  0  0  0  0  0  0
   -2.5961    2.3557    0.6916 H   0  0  0  0  0  0  0  0  0  0  0  0
   -1.2563    2.3358   -2.0544 H   0  0  0  0  0  0  0  0  0  0  0  0
   -2.2455    1.0048   -1.4639 H   0  0  0  0  0  0  0  0  0  0  0  0
   -0.3456    4.0962   -0.4243 H   0  0  0  0  0  0  0  0  0  0  0  0
   -2.0160    4.6027   -0.1973 H   0  0  0  0  0  0  0  0  0  0  0  0
   -1.0215    4.1993    1.2115 H   0  0  0  0  0  0  0  0  0  0  0  0
   -4.1940    2.6026   -1.2498 H   0  0  0  0  0  0  0  0  0  0  0  0
   -3.5687    2.4724   -2.8948 H   0  0  0  0  0  0  0  0  0  0  0  0
   -3.1653    3.8904   -1.9134 H   0  0  0  0  0  0  0  0  0  0  0  0
   -0.2250    0.9618    2.9706 N   0  0  0  0  0  0  0  0  0  0  0  0
    0.1506    1.1322    4.3557 C   0  0  2  0  0  0  0  0  0  0  0  0
   -0.6721    0.1586    5.1893 C   0  0  0  0  0  0  0  0  0  0  0  0
   -1.7416   -0.3129    4.8086 O   0  0  0  0  0  0  0  0  0  0  0  0
   -0.0707    2.5644    4.8169 C   0  0  0  0  0  0  0  0  0  0  0  0
   -0.5836    0.0585    2.6755 H   0  0  0  0  0  0  0  0  0  0  0  0
    1.2119    0.8712    4.4300 H   0  0  0  0  0  0  0  0  0  0  0  0
   -1.1285    2.8439    4.7496 H   0  0  0  0  0  0  0  0  0  0  0  0
    0.2410    2.6986    5.8580 H   0  0  0  0  0  0  0  0  0  0  0  0
    0.4985    3.2657    4.1973 H   0  0  0  0  0  0  0  0  0  0  0  0
   -0.0928   -0.0883    6.4261 N   0  0  0  0  0  0  0  0  0  0  0  0
   -0.6883   -0.9687    7.4040 C   0  0  0  0  0  0  0  0  0  0  0  0
    0.8049    0.3309    6.6501 H   0  0  0  0  0  0  0  0  0  0  0  0
   -1.3248   -0.3844    8.0847 H   0  0  0  0  0  0  0  0  0  0  0  0
   -1.2988   -1.7266    6.8913 H   0  0  0  0  0  0  0  0  0  0  0  0
    0.1054   -1.4661    7.9808 H   0  0  0  0  0  0  0  0  0  0  0  0
  1  3  1  0  0  0  0
  1  7  1  0  0  0  0
  1  2  2  0  0  0  0
 37 38  1  0  0  0  0
 38 46  1  0  0  0  0
 38 39  2  0  0  0  0
  8  9  1  0  0  0  0
  9 17  1  0  0  0  0
  9 10  2  0  0  0  0
 18 19  1  0  0  0  0
 19 36  1  0  0  0  0
 19 20  2  0  0  0  0
 22 24  1  0  0  0  0
 37 40  1  0  0  0  0
  8 11  1  0  0  0  0
 21 23  1  0  0  0  0
 46 47  1  0  0  0  0
 21 22  1  0  0  0  0
 36 37  1  0  0  0  0
  7  8  1  0  0  0  0
 18 21  1  0  0  0  0
 17 18  1  0  0  0  0
  3  4  1  0  0  0  0
  3  5  1  0  0  0  0
  3  6  1  0  0  0  0
 24 33  1  0  0  0  0
 24 34  1  0  0  0  0
 24 35  1  0  0  0  0
 40 43  1  0  0  0  0
 40 44  1  0  0  0  0
 40 45  1  0  0  0  0
 11 14  1  0  0  0  0
 11 15  1  0  0  0  0
 11 16  1  0  0  0  0
 23 30  1  0  0  0  0
 23 31  1  0  0  0  0
 23 32  1  0  0  0  0
 47 49  1  0  0  0  0
 47 50  1  0  0  0  0
 47 51  1  0  0  0  0
 22 28  1  0  0  0  0
 22 29  1  0  0  0  0
 37 42  1  0  0  0  0
  8 13  1  0  0  0  0
 18 26  1  0  0  0  0
 21 27  1  0  0  0  0
 46 48  1  0  0  0  0
  7 12  1  0  0  0  0
 36 41  1  0  0  0  0
 17 25  1  0  0  0  0
M  END
$$$$

  -OEChem-05262214473D

 51 50  0     1  0  0  0  0  0999 V2000
    1.3524   -3.0009    1.4091 C   0  0  0  0  0  0  0  0  0  0  0  0
    1.8758   -1.9880    0.9598 O   0  0  0  0  0  0  0  0  0  0  0  0
    2.2030   -4.1782    1.7536 C   0  0  0  0  0  0  0  0  0  0  0  0
    2.3264   -4.8705    0.9053 H   0  0  0  0  0  0  0  0  0  0  0  0
    3.2257   -3.8876    2.0432 H   0  0  0  0  0  0  0  0  0  0  0  0
    1.8327   -4.8004    2.5839 H   0  0  0  0  0  0  0  0  0  0  0  0
    0.0005   -3.1873    1.6465 N   0  0  0  0  0  0  0  0  0  0  0  0
   -0.9949   -2.1807    1.3864 C   0  0  2  0  0  0  0  0  0  0  0  0
   -0.3083   -0.8216    1.4164 C   0  0  0  0  0  0  0  0  0  0  0  0
    0.7533   -0.6191    2.0022 O   0  0  0  0  0  0  0  0  0  0  0  0
   -2.1232   -2.2423    2.4042 C   0  0  0  0  0  0  0  0  0  0  0  0
   -0.3048   -4.0823    2.0245 H   0  0  0  0  0  0  0  0  0  0  0  0
   -1.3830   -2.3724    0.3801 H   0  0  0  0  0  0  0  0  0  0  0  0
   -1.7534   -2.0527    3.4185 H   0  0  0  0  0  0  0  0  0  0  0  0
   -2.8936   -1.4947    2.1882 H   0  0  0  0  0  0  0  0  0  0  0  0
   -2.5964   -3.2301    2.4022 H   0  0  0  0  0  0  0  0  0  0  0  0
   -1.0412    0.1517    0.7482 N   0  0  0  0  0  0  0  0  0  0  0  0
   -0.6079    1.5223    0.6467 C   0  0  2  0  0  0  0  0  0  0  0  0
   -0.1201    1.9707    2.0237 C   0  0  0  0  0  0  0  0  0  0  0  0
    0.0320    3.1526    2.3260 O   0  0  0  0  0  0  0  0  0  0  0  0
   -1.6966    2.4593    0.0701 C   0  0  2  0  0  0  0  0  0  0  0  0
   -2.0820    2.0856   -1.3785 C   0  0  0  0  0  0  0  0  0  0  0  0
   -1.2449    3.9220    0.1762 C   0  0  0  0  0  0  0  0  0  0  0  0
   -3.3252    2.8082   -1.8814 C   0  0  0  0  0  0  0  0  0  0  0  0
   -1.9022   -0.1128    0.2753 H   0  0  0  0  0  0  0  0  0  0  0  0
    0.2629    1.5129   -0.0211 H   0  0  0  0  0  0  0  0  0  0  0  0
   -2.5961    2.3557    0.6916 H   0  0  0  0  0  0  0  0  0  0  0  0
   -1.2563    2.3358   -2.0544 H   0  0  0  0  0  0  0  0  0  0  0  0
   -2.2455    1.0048   -1.4639 H   0  0  0  0  0  0  0  0  0  0  0  0
   -0.3456    4.0962   -0.4243 H   0  0  0  0  0  0  0  0  0  0  0  0
   -2.0160    4.6027   -0.1973 H   0  0  0  0  0  0  0  0  0  0  0  0
   -1.0215    4.1993    1.2115 H   0  0  0  0  0  0  0  0  0  0  0  0
   -4.1940    2.6026   -1.2498 H   0  0  0  0  0  0  0  0  0  0  0  0
   -3.5687    2.4724   -2.8948 H   0  0  0  0  0  0  0  0  0  0  0  0
   -3.1653    3.8904   -1.9134 H   0  0  0  0  0  0  0  0  0  0  0  0
    0.0915    0.8987    2.8790 N   0  0  0  0  0  0  0  0  0  0  0  0
    0.5352    1.0506    4.2460 C   0  0  2  0  0  0  0  0  0  0  0  0
    0.0331   -0.1485    5.0394 C   0  0  0  0  0  0  0  0  0  0  0  0
   -0.9279   -0.8301    4.6887 O   0  0  0  0  0  0  0  0  0  0  0  0
    0.0307    2.3519    4.8502 C   0  0  0  0  0  0  0  0  0  0  0  0
   -0.0736   -0.0395    2.5268 H   0  0  0  0  0  0  0  0  0  0  0  0
    1.6304    1.0432    4.2258 H   0  0  0  0  0  0  0  0  0  0  0  0
   -1.0647    2.3777    4.8789 H   0  0  0  0  0  0  0  0  0  0  0  0
    0.3913    2.4790    5.8762 H   0  0  0  0  0  0  0  0  0  0  0  0
    0.3681    3.2116    4.2612 H   0  0  0  0  0  0  0  0  0  0  0  0
    0.7575   -0.3419    6.2074 N   0  0  0  0  0  0  0  0  0  0  0  0
    0.4666   -1.4076    7.1377 C   0  0  0  0  0  0  0  0  0  0  0  0
    1.5505    0.2600    6.4090 H   0  0  0  0  0  0  0  0  0  0  0  0
   -0.2265   -1.0421    7.9098 H   0  0  0  0  0  0  0  0  0  0  0  0
    0.0051   -2.2485    6.5993 H   0  0  0  0  0  0  0  0  0  0  0  0
    1.3999   -1.7443    7.6128 H   0  0  0  0  0  0  0  0  0  0  0  0
  1  3  1  0  0  0  0
  1  7  1  0  0  0  0
  1  2  2  0  0  0  0
 37 38  1  0  0  0  0
 38 46  1  0  0  0  0
 38 39  2  0  0  0  0
  8  9  1  0  0  0  0
  9 17  1  0  0  0  0
  9 10  2  0  0  0  0
 18 19  1  0  0  0  0
 19 36  1  0  0  0  0
 19 20  2  0  0  0  0
 22 24  1  0  0  0  0
 37 40  1  0  0  0  0
  8 11  1  0  0  0  0
 21 23  1  0  0  0  0
 46 47  1  0  0  0  0
 21 22  1  0  0  0  0
 36 37  1  0  0  0  0
  7  8  1  0  0  0  0
 18 21  1  0  0  0  0
 17 18  1  0  0  0  0
  3  4  1  0  0  0  0
  3  5  1  0  0  0  0
  3  6  1  0  0  0  0
 24 33  1  0  0  0  0
 24 34  1  0  0  0  0
 24 35  1  0  0  0  0
 40 43  1  0  0  0  0
 40 44  1  0  0  0  0
 40 45  1  0  0  0  0
 11 14  1  0  0  0  0
 11 15  1  0  0  0  0
 11 16  1  0  0  0  0
 23 30  1  0  0  0  0
 23 31  1  0  0  0  0
 23 32  1  0  0  0  0
 47 49  1  0  0  0  0
 47 50  1  0  0  0  0
 47 51  1  0  0  0  0
 22 28  1  0  0  0  0
 22 29  1  0  0  0  0
 37 42  1  0  0  0  0
  8 13  1  0  0  0  0
 18 26  1  0  0  0  0
 21 27  1  0  0  0  0
 46 48  1  0  0  0  0
  7 12  1  0  0  0  0
 36 41  1  0  0  0  0
 17 25  1  0  0  0  0
M  END
$$$$

  -OEChem-05262214473D

 51 50  0     1  0  0  0  0  0999 V2000
    1.3524   -3.0009    1.4091 C   0  0  0  0  0  0  0  0  0  0  0  0
    1.8758   -1.9880    0.9598 O   0  0  0  0  0  0  0  0  0  0  0  0
    2.2030   -4.1782    1.7536 C   0  0  0  0  0  0  0  0  0  0  0  0
    2.3264   -4.8705    0.9053 H   0  0  0  0  0  0  0  0  0  0  0  0
    3.2257   -3.8876    2.0432 H   0  0  0  0  0  0  0  0  0  0  0  0
    1.8327   -4.8004    2.5839 H   0  0  0  0  0  0  0  0  0  0  0  0
    0.0005   -3.1873    1.6465 N   0  0  0  0  0  0  0  0  0  0  0  0
   -0.9949   -2.1807    1.3864 C   0  0  2  0  0  0  0  0  0  0  0  0
   -0.3083   -0.8216    1.4164 C   0  0  0  0  0  0  0  0  0  0  0  0
    0.7533   -0.6191    2.0022 O   0  0  0  0  0  0  0  0  0  0  0  0
   -2.1232   -2.2423    2.4042 C   0  0  0  0  0  0  0  0  0  0  0  0
   -0.3048   -4.0823    2.0245 H   0  0  0  0  0  0  0  0  0  0  0  0
   -1.3830   -2.3724    0.3801 H   0  0  0  0  0  0  0  0  0  0  0  0
   -1.7534   -2.0527    3.4185 H   0  0  0  0  0  0  0  0  0  0  0  0
   -2.8936   -1.4947    2.1882 H   0  0  0  0  0  0  0  0  0  0  0  0
   -2.5964   -3.2301    2.4022 H   0  0  0  0  0  0  0  0  0  0  0  0
   -1.0412    0.1517    0.7482 N   0  0  0  0  0  0  0  0  0  0  0  0
   -0.6079    1.5223    0.6467 C   0  0  2  0  0  0  0  0  0  0  0  0
   -0.1201    1.9707    2.0237 C   0  0  0  0  0  0  0  0  0  0  0  0
   -0.2186    3.1295    2.4223 O   0  0  0  0  0  0  0  0  0  0  0  0
   -1.6966    2.4593    0.0701 C   0  0  2  0  0  0  0  0  0  0  0  0
   -2.0820    2.0856   -1.3785 C   0  0  0  0  0  0  0  0  0  0  0  0
   -1.2449    3.9220    0.1762 C   0  0  0  0  0  0  0  0  0  0  0  0
   -3.3252    2.8082   -1.8814 C   0  0  0  0  0  0  0  0  0  0  0  0
   -1.9022   -0.1128    0.2753 H   0  0  0  0  0  0  0  0  0  0  0  0
    0.2629    1.5129   -0.0211 H   0  0  0  0  0  0  0  0  0  0  0  0
   -2.5961    2.3557    0.6916 H   0  0  0  0  0  0  0  0  0  0  0  0
   -1.2563    2.3358   -2.0544 H   0  0  0  0  0  0  0  0  0  0  0  0
   -2.2455    1.0048   -1.4639 H   0  0  0  0  0  0  0  0  0  0  0  0
   -0.3456    4.0962   -0.4243 H   0  0  0  0  0  0  0  0  0  0  0  0
   -2.0160    4.6027   -0.1973 H   0  0  0  0  0  0  0  0  0  0  0  0
   -1.0215    4.1993    1.2115 H   0  0  0  0  0  0  0  0  0  0  0  0
   -4.1940    2.6026   -1.2498 H   0  0  0  0  0  0  0  0  0  0  0  0
   -3.5687    2.4724   -2.8948 H   0  0  0  0  0  0  0  0  0  0  0  0
   -3.1653    3.8904   -1.9134 H   0  0  0  0  0  0  0  0  0  0  0  0
    0.4050    0.9192    2.7613 N   0  0  0  0  0  0  0  0  0  0  0  0
    0.9173    1.0706    4.1041 C   0  0  2  0  0  0  0  0  0  0  0  0
    0.7745   -0.2683    4.8158 C   0  0  0  0  0  0  0  0  0  0  0  0
   -0.0304   -1.1301    4.4684 O   0  0  0  0  0  0  0  0  0  0  0  0
    0.1808    2.1676    4.8570 C   0  0  0  0  0  0  0  0  0  0  0  0
    0.4305   -0.0029    2.3363 H   0  0  0  0  0  0  0  0  0  0  0  0
    1.9790    1.3238    4.0109 H   0  0  0  0  0  0  0  0  0  0  0  0
   -0.8846    1.9315    4.9603 H   0  0  0  0  0  0  0  0  0  0  0  0
    0.5890    2.3005    5.8643 H   0  0  0  0  0  0  0  0  0  0  0  0
    0.2595    3.1236    4.3283 H   0  0  0  0  0  0  0  0  0  0  0  0
    1.6213   -0.3704    5.9106 N   0  0  0  0  0  0  0  0  0  0  0  0
    1.6643   -1.5402    6.7566 C   0  0  0  0  0  0  0  0  0  0  0  0
    2.2689    0.3854    6.1136 H   0  0  0  0  0  0  0  0  0  0  0  0
    0.9745   -1.4068    7.6030 H   0  0  0  0  0  0  0  0  0  0  0  0
    1.3642   -2.4243    6.1750 H   0  0  0  0  0  0  0  0  0  0  0  0
    2.6872   -1.6808    7.1360 H   0  0  0  0  0  0  0  0  0  0  0  0
  1  3  1  0  0  0  0
  1  7  1  0  0  0  0
  1  2  2  0  0  0  0
 37 38  1  0  0  0  0
 38 46  1  0  0  0  0
 38 39  2  0  0  0  0
  8  9  1  0  0  0  0
  9 17  1  0  0  0  0
  9 10  2  0  0  0  0
 18 19  1  0  0  0  0
 19 36  1  0  0  0  0
 19 20  2  0  0  0  0
 22 24  1  0  0  0  0
 37 40  1  0  0  0  0
  8 11  1  0  0  0  0
 21 23  1  0  0  0  0
 46 47  1  0  0  0  0
 21 22  1  0  0  0  0
 36 37  1  0  0  0  0
  7  8  1  0  0  0  0
 18 21  1  0  0  0  0
 17 18  1  0  0  0  0
  3  4  1  0  0  0  0
  3  5  1  0  0  0  0
  3  6  1  0  0  0  0
 24 33  1  0  0  0  0
 24 34  1  0  0  0  0
 24 35  1  0  0  0  0
 40 43  1  0  0  0  0
 40 44  1  0  0  0  0
 40 45  1  0  0  0  0
 11 14  1  0  0  0  0
 11 15  1  0  0  0  0
 11 16  1  0  0  0  0
 23 30  1  0  0  0  0
 23 31  1  0  0  0  0
 23 32  1  0  0  0  0
 47 49  1  0  0  0  0
 47 50  1  0  0  0  0
 47 51  1  0  0  0  0
 22 28  1  0  0  0  0
 22 29  1  0  0  0  0
 37 42  1  0  0  0  0
  8 13  1  0  0  0  0
 18 26  1  0  0  0  0
 21 27  1  0  0  0  0
 46 48  1  0  0  0  0
  7 12  1  0  0  0  0
 36 41  1  0  0  0  0
 17 25  1  0  0  0  0
M  END
$$$$

  -OEChem-05262214473D

 51 50  0     1  0  0  0  0  0999 V2000
    1.3524   -3.0009    1.4091 C   0  0  0  0  0  0  0  0  0  0  0  0
    1.8758   -1.9880    0.9598 O   0  0  0  0  0  0  0  0  0  0  0  0
    2.2030   -4.1782    1.7536 C   0  0  0  0  0  0  0  0  0  0  0  0
    2.3264   -4.8705    0.9053 H   0  0  0  0  0  0  0  0  0  0  0  0
    3.2257   -3.8876    2.0432 H   0  0  0  0  0  0  0  0  0  0  0  0
    1.8327   -4.8004    2.5839 H   0  0  0  0  0  0  0  0  0  0  0  0
    0.0005   -3.1873    1.6465 N   0  0  0  0  0  0  0  0  0  0  0  0
   -0.9949   -2.1807    1.3864 C   0  0  2  0  0  0  0  0  0  0  0  0
   -0.3083   -0.8216    1.4164 C   0  0  0  0  0  0  0  0  0  0  0  0
    0.7533   -0.6191    2.0022 O   0  0  0  0  0  0  0  0  0  0  0  0
   -2.1232   -2.2423    2.4042 C   0  0  0  0  0  0  0  0  0  0  0  0
   -0.3048   -4.0823    2.0245 H   0  0  0  0  0  0  0  0  0  0  0  0
   -1.3830   -2.3724    0.3801 H   0  0  0  0  0  0  0  0  0  0  0  0
   -1.7534   -2.0527    3.4185 H   0  0  0  0  0  0  0  0  0  0  0  0
   -2.8936   -1.4947    2.1882 H   0  0  0  0  0  0  0  0  0  0  0  0
   -2.5964   -3.2301    2.4022 H   0  0  0  0  0  0  0  0  0  0  0  0
   -1.0412    0.1517    0.7482 N   0  0  0  0  0  0  0  0  0  0  0  0
   -0.6079    1.5223    0.6467 C   0  0  2  0  0  0  0  0  0  0  0  0
   -0.1201    1.9707    2.0237 C   0  0  0  0  0  0  0  0  0  0  0  0
   -0.4479    3.0408    2.5325 O   0  0  0  0  0  0  0  0  0  0  0  0
   -1.6966    2.4593    0.0701 C   0  0  2  0  0  0  0  0  0  0  0  0
   -2.0820    2.0856   -1.3785 C   0  0  0  0  0  0  0  0  0  0  0  0
   -1.2449    3.9220    0.1762 C   0  0  0  0  0  0  0  0  0  0  0  0
   -3.3252    2.8082   -1.8814 C   0  0  0  0  0  0  0  0  0  0  0  0
   -1.9022   -0.1128    0.2753 H   0  0  0  0  0  0  0  0  0  0  0  0
    0.2629    1.5129   -0.0211 H   0  0  0  0  0  0  0  0  0  0  0  0
   -2.5961    2.3557    0.6916 H   0  0  0  0  0  0  0  0  0  0  0  0
   -1.2563    2.3358   -2.0544 H   0  0  0  0  0  0  0  0  0  0  0  0
   -2.2455    1.0048   -1.4639 H   0  0  0  0  0  0  0  0  0  0  0  0
   -0.3456    4.0962   -0.4243 H   0  0  0  0  0  0  0  0  0  0  0  0
   -2.0160    4.6027   -0.1973 H   0  0  0  0  0  0  0  0  0  0  0  0
   -1.0215    4.1993    1.2115 H   0  0  0  0  0  0  0  0  0  0  0  0
   -4.1940    2.6026   -1.2498 H   0  0  0  0  0  0  0  0  0  0  0  0
   -3.5687    2.4724   -2.8948 H   0  0  0  0  0  0  0  0  0  0  0  0
   -3.1653    3.8904   -1.9134 H   0  0  0  0  0  0  0  0  0  0  0  0
    0.6940    1.0218    2.6255 N   0  0  0  0  0  0  0  0  0  0  0  0
    1.2710    1.1907    3.9397 C   0  0  2  0  0  0  0  0  0  0  0  0
    1.5016   -0.1926    4.5335 C   0  0  0  0  0  0  0  0  0  0  0  0
    0.8898   -1.1923    4.1627 O   0  0  0  0  0  0  0  0  0  0  0  0
    0.3692    2.0240    4.8370 C   0  0  0  0  0  0  0  0  0  0  0  0
    0.8944    0.1657    2.1170 H   0  0  0  0  0  0  0  0  0  0  0  0
    2.2340    1.6940    3.8000 H   0  0  0  0  0  0  0  0  0  0  0  0
   -0.6004    1.5358    4.9885 H   0  0  0  0  0  0  0  0  0  0  0  0
    0.8208    2.1751    5.8230 H   0  0  0  0  0  0  0  0  0  0  0  0
    0.1803    3.0078    4.3940 H   0  0  0  0  0  0  0  0  0  0  0  0
    2.4398   -0.1719    5.5560 N   0  0  0  0  0  0  0  0  0  0  0  0
    2.8231   -1.3574    6.2865 C   0  0  0  0  0  0  0  0  0  0  0  0
    2.9112    0.6984    5.7841 H   0  0  0  0  0  0  0  0  0  0  0  0
    2.1964   -1.4535    7.1854 H   0  0  0  0  0  0  0  0  0  0  0  0
    2.6857   -2.2422    5.6475 H   0  0  0  0  0  0  0  0  0  0  0  0
    3.8796   -1.2797    6.5830 H   0  0  0  0  0  0  0  0  0  0  0  0
  1  3  1  0  0  0  0
  1  7  1  0  0  0  0
  1  2  2  0  0  0  0
 37 38  1  0  0  0  0
 38 46  1  0  0  0  0
 38 39  2  0  0  0  0
  8  9  1  0  0  0  0
  9 17  1  0  0  0  0
  9 10  2  0  0  0  0
 18 19  1  0  0  0  0
 19 36  1  0  0  0  0
 19 20  2  0  0  0  0
 22 24  1  0  0  0  0
 37 40  1  0  0  0  0
  8 11  1  0  0  0  0
 21 23  1  0  0  0  0
 46 47  1  0  0  0  0
 21 22  1  0  0  0  0
 36 37  1  0  0  0  0
  7  8  1  0  0  0  0
 18 21  1  0  0  0  0
 17 18  1  0  0  0  0
  3  4  1  0  0  0  0
  3  5  1  0  0  0  0
  3  6  1  0  0  0  0
 24 33  1  0  0  0  0
 24 34  1  0  0  0  0
 24 35  1  0  0  0  0
 40 43  1  0  0  0  0
 40 44  1  0  0  0  0
 40 45  1  0  0  0  0
 11 14  1  0  0  0  0
 11 15  1  0  0  0  0
 11 16  1  0  0  0  0
 23 30  1  0  0  0  0
 23 31  1  0  0  0  0
 23 32  1  0  0  0  0
 47 49  1  0  0  0  0
 47 50  1  0  0  0  0
 47 51  1  0  0  0  0
 22 28  1  0  0  0  0
 22 29  1  0  0  0  0
 37 42  1  0  0  0  0
  8 13  1  0  0  0  0
 18 26  1  0  0  0  0
 21 27  1  0  0  0  0
 46 48  1  0  0  0  0
  7 12  1  0  0  0  0
 36 41  1  0  0  0  0
 17 25  1  0  0  0  0
M  END
$$$$

  -OEChem-05262214473D

 51 50  0     1  0  0  0  0  0999 V2000
    1.3524   -3.0009    1.4091 C   0  0  0  0  0  0  0  0  0  0  0  0
    1.8758   -1.9880    0.9598 O   0  0  0  0  0  0  0  0  0  0  0  0
    2.2030   -4.1782    1.7536 C   0  0  0  0  0  0  0  0  0  0  0  0
    2.3264   -4.8705    0.9053 H   0  0  0  0  0  0  0  0  0  0  0  0
    3.2257   -3.8876    2.0432 H   0  0  0  0  0  0  0  0  0  0  0  0
    1.8327   -4.8004    2.5839 H   0  0  0  0  0  0  0  0  0  0  0  0
    0.0005   -3.1873    1.6465 N   0  0  0  0  0  0  0  0  0  0  0  0
   -0.9949   -2.1807    1.3864 C   0  0  2  0  0  0  0  0  0  0  0  0
   -0.3083   -0.8216    1.4164 C   0  0  0  0  0  0  0  0  0  0  0  0
    0.7533   -0.6191    2.0022 O   0  0  0  0  0  0  0  0  0  0  0  0
   -2.1232   -2.2423    2.4042 C   0  0  0  0  0  0  0  0  0  0  0  0
   -0.3048   -4.0823    2.0245 H   0  0  0  0  0  0  0  0  0  0  0  0
   -1.3830   -2.3724    0.3801 H   0  0  0  0  0  0  0  0  0  0  0  0
   -1.7534   -2.0527    3.4185 H   0  0  0  0  0  0  0  0  0  0  0  0
   -2.8936   -1.4947    2.1882 H   0  0  0  0  0  0  0  0  0  0  0  0
   -2.5964   -3.2301    2.4022 H   0  0  0  0  0  0  0  0  0  0  0  0
   -1.0412    0.1517    0.7482 N   0  0  0  0  0  0  0  0  0  0  0  0
   -0.6079    1.5223    0.6467 C   0  0  2  0  0  0  0  0  0  0  0  0
   -0.1201    1.9707    2.0237 C   0  0  0  0  0  0  0  0  0  0  0  0
   -0.6404    2.8925    2.6490 O   0  0  0  0  0  0  0  0  0  0  0  0
   -1.6966    2.4593    0.0701 C   0  0  2  0  0  0  0  0  0  0  0  0
   -2.0820    2.0856   -1.3785 C   0  0  0  0  0  0  0  0  0  0  0  0
   -1.2449    3.9220    0.1762 C   0  0  0  0  0  0  0  0  0  0  0  0
   -3.3252    2.8082   -1.8814 C   0  0  0  0  0  0  0  0  0  0  0  0
   -1.9022   -0.1128    0.2753 H   0  0  0  0  0  0  0  0  0  0  0  0
    0.2629    1.5129   -0.0211 H   0  0  0  0  0  0  0  0  0  0  0  0
   -2.5961    2.3557    0.6916 H   0  0  0  0  0  0  0  0  0  0  0  0
   -1.2563    2.3358   -2.0544 H   0  0  0  0  0  0  0  0  0  0  0  0
   -2.2455    1.0048   -1.4639 H   0  0  0  0  0  0  0  0  0  0  0  0
   -0.3456    4.0962   -0.4243 H   0  0  0  0  0  0  0  0  0  0  0  0
   -2.0160    4.6027   -0.1973 H   0  0  0  0  0  0  0  0  0  0  0  0
   -1.0215    4.1993    1.2115 H   0  0  0  0  0  0  0  0  0  0  0  0
   -4.1940    2.6026   -1.2498 H   0  0  0  0  0  0  0  0  0  0  0  0
   -3.5687    2.4724   -2.8948 H   0  0  0  0  0  0  0  0  0  0  0  0
   -3.1653    3.8904   -1.9134 H   0  0  0  0  0  0  0  0  0  0  0  0
    0.9390    1.1995    2.4809 N   0  0  0  0  0  0  0  0  0  0  0  0
    1.5722    1.4028    3.7640 C   0  0  2  0  0  0  0  0  0  0  0  0
    2.1648    0.0733    4.2120 C   0  0  0  0  0  0  0  0  0  0  0  0
    1.7699   -1.0125    3.7923 O   0  0  0  0  0  0  0  0  0  0  0  0
    0.5832    1.9309    4.7915 C   0  0  0  0  0  0  0  0  0  0  0  0
    1.2866    0.4549    1.8839 H   0  0  0  0  0  0  0  0  0  0  0  0
    2.3779    2.1283    3.6076 H   0  0  0  0  0  0  0  0  0  0  0  0
   -0.2314    1.2175    4.9614 H   0  0  0  0  0  0  0  0  0  0  0  0
    1.0708    2.1115    5.7552 H   0  0  0  0  0  0  0  0  0  0  0  0
    0.1358    2.8721    4.4540 H   0  0  0  0  0  0  0  0  0  0  0  0
    3.1573    0.2399    5.1677 N   0  0  0  0  0  0  0  0  0  0  0  0
    3.8642   -0.8718    5.7596 C   0  0  0  0  0  0  0  0  0  0  0  0
    3.4335    1.1779    5.4429 H   0  0  0  0  0  0  0  0  0  0  0  0
    3.3557   -1.1793    6.6853 H   0  0  0  0  0  0  0  0  0  0  0  0
    3.8797   -1.7144    5.0527 H   0  0  0  0  0  0  0  0  0  0  0  0
    4.8958   -0.5686    5.9913 H   0  0  0  0  0  0  0  0  0  0  0  0
  1  3  1  0  0  0  0
  1  7  1  0  0  0  0
  1  2  2  0  0  0  0
 37 38  1  0  0  0  0
 38 46  1  0  0  0  0
 38 39  2  0  0  0  0
  8  9  1  0  0  0  0
  9 17  1  0  0  0  0
  9 10  2  0  0  0  0
 18 19  1  0  0  0  0
 19 36  1  0  0  0  0
 19 20  2  0  0  0  0
 22 24  1  0  0  0  0
 37 40  1  0  0  0  0
  8 11  1  0  0  0  0
 21 23  1  0  0  0  0
 46 47  1  0  0  0  0
 21 22  1  0  0  0  0
 36 37  1  0  0  0  0
  7  8  1  0  0  0  0
 18 21  1  0  0  0  0
 17 18  1  0  0  0  0
  3  4  1  0  0  0  0
  3  5  1  0  0  0  0
  3  6  1  0  0  0  0
 24 33  1  0  0  0  0
 24 34  1  0  0  0  0
 24 35  1  0  0  0  0
 40 43  1  0  0  0  0
 40 44  1  0  0  0  0
 40 45  1  0  0  0  0
 11 14  1  0  0  0  0
 11 15  1  0  0  0  0
 11 16  1  0  0  0  0
 23 30  1  0  0  0  0
 23 31  1  0  0  0  0
 23 32  1  0  0  0  0
 47 49  1  0  0  0  0
 47 50  1  0  0  0  0
 47 51  1  0  0  0  0
 22 28  1  0  0  0  0
 22 29  1  0  0  0  0
 37 42  1  0  0  0  0
  8 13  1  0  0  0  0
 18 26  1  0  0  0  0
 21 27  1  0  0  0  0
 46 48  1  0  0  0  0
  7 12  1  0  0  0  0
 36 41  1  0  0  0  0
 17 25  1  0  0  0  0
M  END
$$$$

  -OEChem-05262214473D

 51 50  0     1  0  0  0  0  0999 V2000
    1.3524   -3.0009    1.4091 C   0  0  0  0  0  0  0  0  0  0  0  0
    1.8758   -1.9880    0.9598 O   0  0  0  0  0  0  0  0  0  0  0  0
    2.2030   -4.1782    1.7536 C   0  0  0  0  0  0  0  0  0  0  0  0
    2.3264   -4.8705    0.9053 H   0  0  0  0  0  0  0  0  0  0  0  0
    3.2257   -3.8876    2.0432 H   0  0  0  0  0  0  0  0  0  0  0  0
    1.8327   -4.8004    2.5839 H   0  0  0  0  0  0  0  0  0  0  0  0
    0.0005   -3.1873    1.6465 N   0  0  0  0  0  0  0  0  0  0  0  0
   -0.9949   -2.1807    1.3864 C   0  0  2  0  0  0  0  0  0  0  0  0
   -0.3083   -0.8216    1.4164 C   0  0  0  0  0  0  0  0  0  0  0  0
    0.7533   -0.6191    2.0022 O   0  0  0  0  0  0  0  0  0  0  0  0
   -2.1232   -2.2423    2.4042 C   0  0  0  0  0  0  0  0  0  0  0  0
   -0.3048   -4.0823    2.0245 H   0  0  0  0  0  0  0  0  0  0  0  0
   -1.3830   -2.3724    0.3801 H   0  0  0  0  0  0  0  0  0  0  0  0
   -1.7534   -2.0527    3.4185 H   0  0  0  0  0  0  0  0  0  0  0  0
   -2.8936   -1.4947    2.1882 H   0  0  0  0  0  0  0  0  0  0  0  0
   -2.5964   -3.2301    2.4022 H   0  0  0  0  0  0  0  0  0  0  0  0
   -1.0412    0.1517    0.7482 N   0  0  0  0  0  0  0  0  0  0  0  0
   -0.6079    1.5223    0.6467 C   0  0  2  0  0  0  0  0  0  0  0  0
   -0.1201    1.9707    2.0237 C   0  0  0  0  0  0  0  0  0  0  0  0
   -0.7829    2.6948    2.7638 O   0  0  0  0  0  0  0  0  0  0  0  0
   -1.6966    2.4593    0.0701 C   0  0  2  0  0  0  0  0  0  0  0  0
   -2.0820    2.0856   -1.3785 C   0  0  0  0  0  0  0  0  0  0  0  0
   -1.2449    3.9220    0.1762 C   0  0  0  0  0  0  0  0  0  0  0  0
   -3.3252    2.8082   -1.8814 C   0  0  0  0  0  0  0  0  0  0  0  0
   -1.9022   -0.1128    0.2753 H   0  0  0  0  0  0  0  0  0  0  0  0
    0.2629    1.5129   -0.0211 H   0  0  0  0  0  0  0  0  0  0  0  0
   -2.5961    2.3557    0.6916 H   0  0  0  0  0  0  0  0  0  0  0  0
   -1.2563    2.3358   -2.0544 H   0  0  0  0  0  0  0  0  0  0  0  0
   -2.2455    1.0048   -1.4639 H   0  0  0  0  0  0  0  0  0  0  0  0
   -0.3456    4.0962   -0.4243 H   0  0  0  0  0  0  0  0  0  0  0  0
   -2.0160    4.6027   -0.1973 H   0  0  0  0  0  0  0  0  0  0  0  0
   -1.0215    4.1993    1.2115 H   0  0  0  0  0  0  0  0  0  0  0  0
   -4.1940    2.6026   -1.2498 H   0  0  0  0  0  0  0  0  0  0  0  0
   -3.5687    2.4724   -2.8948 H   0  0  0  0  0  0  0  0  0  0  0  0
   -3.1653    3.8904   -1.9134 H   0  0  0  0  0  0  0  0  0  0  0  0
    1.1232    1.4402    2.3372 N   0  0  0  0  0  0  0  0  0  0  0  0
    1.8002    1.6925    3.5888 C   0  0  2  0  0  0  0  0  0  0  0  0
    2.7190    0.5115    3.8729 C   0  0  0  0  0  0  0  0  0  0  0  0
    2.5499   -0.6030    3.3826 O   0  0  0  0  0  0  0  0  0  0  0  0
    0.8082    1.8947    4.7236 C   0  0  0  0  0  0  0  0  0  0  0  0
    1.5803    0.8449    1.6528 H   0  0  0  0  0  0  0  0  0  0  0  0
    2.4010    2.5974    3.4467 H   0  0  0  0  0  0  0  0  0  0  0  0
    0.1972    0.9984    4.8809 H   0  0  0  0  0  0  0  0  0  0  0  0
    1.3219    2.1139    5.6654 H   0  0  0  0  0  0  0  0  0  0  0  0
    0.1290    2.7256    4.5041 H   0  0  0  0  0  0  0  0  0  0  0  0
    3.7247    0.8372    4.7722 N   0  0  0  0  0  0  0  0  0  0  0  0
    4.7164   -0.1164    5.2116 C   0  0  0  0  0  0  0  0  0  0  0  0
    3.8003    1.7909    5.1133 H   0  0  0  0  0  0  0  0  0  0  0  0
    4.3737   -0.6026    6.1369 H   0  0  0  0  0  0  0  0  0  0  0  0
    4.8647   -0.8771    4.4310 H   0  0  0  0  0  0  0  0  0  0  0  0
    5.6667    0.4042    5.4015 H   0  0  0  0  0  0  0  0  0  0  0  0
  1  3  1  0  0  0  0
  1  7  1  0  0  0  0
  1  2  2  0  0  0  0
 37 38  1  0  0  0  0
 38 46  1  0  0  0  0
 38 39  2  0  0  0  0
  8  9  1  0  0  0  0
  9 17  1  0  0  0  0
  9 10  2  0  0  0  0
 18 19  1  0  0  0  0
 19 36  1  0  0  0  0
 19 20  2  0  0  0  0
 22 24  1  0  0  0  0
 37 40  1  0  0  0  0
  8 11  1  0  0  0  0
 21 23  1  0  0  0  0
 46 47  1  0  0  0  0
 21 22  1  0  0  0  0
 36 37  1  0  0  0  0
  7  8  1  0  0  0  0
 18 21  1  0  0  0  0
 17 18  1  0  0  0  0
  3  4  1  0  0  0  0
  3  5  1  0  0  0  0
  3  6  1  0  0  0  0
 24 33  1  0  0  0  0
 24 34  1  0  0  0  0
 24 35  1  0  0  0  0
 40 43  1  0  0  0  0
 40 44  1  0  0  0  0
 40 45  1  0  0  0  0
 11 14  1  0  0  0  0
 11 15  1  0  0  0  0
 11 16  1  0  0  0  0
 23 30  1  0  0  0  0
 23 31  1  0  0  0  0
 23 32  1  0  0  0  0
 47 49  1  0  0  0  0
 47 50  1  0  0  0  0
 47 51  1  0  0  0  0
 22 28  1  0  0  0  0
 22 29  1  0  0  0  0
 37 42  1  0  0  0  0
  8 13  1  0  0  0  0
 18 26  1  0  0  0  0
 21 27  1  0  0  0  0
 46 48  1  0  0  0  0
  7 12  1  0  0  0  0
 36 41  1  0  0  0  0
 17 25  1  0  0  0  0
M  END
$$$$

  -OEChem-05262214473D

 51 50  0     1  0  0  0  0  0999 V2000
    1.3524   -3.0009    1.4091 C   0  0  0  0  0  0  0  0  0  0  0  0
    1.8758   -1.9880    0.9598 O   0  0  0  0  0  0  0  0  0  0  0  0
    2.2030   -4.1782    1.7536 C   0  0  0  0  0  0  0  0  0  0  0  0
    2.3264   -4.8705    0.9053 H   0  0  0  0  0  0  0  0  0  0  0  0
    3.2257   -3.8876    2.0432 H   0  0  0  0  0  0  0  0  0  0  0  0
    1.8327   -4.8004    2.5839 H   0  0  0  0  0  0  0  0  0  0  0  0
    0.0005   -3.1873    1.6465 N   0  0  0  0  0  0  0  0  0  0  0  0
   -0.9949   -2.1807    1.3864 C   0  0  2  0  0  0  0  0  0  0  0  0
   -0.3083   -0.8216    1.4164 C   0  0  0  0  0  0  0  0  0  0  0  0
    0.7533   -0.6191    2.0022 O   0  0  0  0  0  0  0  0  0  0  0  0
   -2.1232   -2.2423    2.4042 C   0  0  0  0  0  0  0  0  0  0  0  0
   -0.3048   -4.0823    2.0245 H   0  0  0  0  0  0  0  0  0  0  0  0
   -1.3830   -2.3724    0.3801 H   0  0  0  0  0  0  0  0  0  0  0  0
   -1.7534   -2.0527    3.4185 H   0  0  0  0  0  0  0  0  0  0  0  0
   -2.8936   -1.4947    2.1882 H   0  0  0  0  0  0  0  0  0  0  0  0
   -2.5964   -3.2301    2.4022 H   0  0  0  0  0  0  0  0  0  0  0  0
   -1.0412    0.1517    0.7482 N   0  0  0  0  0  0  0  0  0  0  0  0
   -0.6079    1.5223    0.6467 C   0  0  2  0  0  0  0  0  0  0  0  0
   -0.1201    1.9707    2.0237 C   0  0  0  0  0  0  0  0  0  0  0  0
   -0.8658    2.4610    2.8693 O   0  0  0  0  0  0  0  0  0  0  0  0
   -1.6966    2.4593    0.0701 C   0  0  2  0  0  0  0  0  0  0  0  0
   -2.0820    2.0856   -1.3785 C   0  0  0  0  0  0  0  0  0  0  0  0
   -1.2449    3.9220    0.1762 C   0  0  0  0  0  0  0  0  0  0  0  0
   -3.3252    2.8082   -1.8814 C   0  0  0  0  0  0  0  0  0  0  0  0
   -1.9022   -0.1128    0.2753 H   0  0  0  0  0  0  0  0  0  0  0  0
    0.2629    1.5129   -0.0211 H   0  0  0  0  0  0  0  0  0  0  0  0
   -2.5961    2.3557    0.6916 H   0  0  0  0  0  0  0  0  0  0  0  0
   -1.2563    2.3358   -2.0544 H   0  0  0  0  0  0  0  0  0  0  0  0
   -2.2455    1.0048   -1.4639 H   0  0  0  0  0  0  0  0  0  0  0  0
   -0.3456    4.0962   -0.4243 H   0  0  0  0  0  0  0  0  0  0  0  0
   -2.0160    4.6027   -0.1973 H   0  0  0  0  0  0  0  0  0  0  0  0
   -1.0215    4.1993    1.2115 H   0  0  0  0  0  0  0  0  0  0  0  0
   -4.1940    2.6026   -1.2498 H   0  0  0  0  0  0  0  0  0  0  0  0
   -3.5687    2.4724   -2.8948 H   0  0  0  0  0  0  0  0  0  0  0  0
   -3.1653    3.8904   -1.9134 H   0  0  0  0  0  0  0  0  0  0  0  0
    1.2341    1.7276    2.2043 N   0  0  0  0  0  0  0  0  0  0  0  0
    1.9397    2.0399    3.4263 C   0  0  2  0  0  0  0  0  0  0  0  0
    3.1263    1.0920    3.5396 C   0  0  0  0  0  0  0  0  0  0  0  0
    3.1768    0.0083    2.9615 O   0  0  0  0  0  0  0  0  0  0  0  0
    1.0288    1.9177    4.6379 C   0  0  0  0  0  0  0  0  0  0  0  0
    1.7554    1.3093    1.4396 H   0  0  0  0  0  0  0  0  0  0  0  0
    2.3018    3.0692    3.3282 H   0  0  0  0  0  0  0  0  0  0  0  0
    0.6561    0.8933    4.7526 H   0  0  0  0  0  0  0  0  0  0  0  0
    1.5571    2.1823    5.5598 H   0  0  0  0  0  0  0  0  0  0  0  0
    0.1605    2.5784    4.5409 H   0  0  0  0  0  0  0  0  0  0  0  0
    4.1035    1.5791    4.3964 N   0  0  0  0  0  0  0  0  0  0  0  0
    5.3219    0.8574    4.6800 C   0  0  0  0  0  0  0  0  0  0  0  0
    3.9866    2.4959    4.8178 H   0  0  0  0  0  0  0  0  0  0  0  0
    5.1808    0.2371    5.5775 H   0  0  0  0  0  0  0  0  0  0  0  0
    5.5737    0.2129    3.8249 H   0  0  0  0  0  0  0  0  0  0  0  0
    6.1396    1.5724    4.8535 H   0  0  0  0  0  0  0  0  0  0  0  0
  1  3  1  0  0  0  0
  1  7  1  0  0  0  0
  1  2  2  0  0  0  0
 37 38  1  0  0  0  0
 38 46  1  0  0  0  0
 38 39  2  0  0  0  0
  8  9  1  0  0  0  0
  9 17  1  0  0  0  0
  9 10  2  0  0  0  0
 18 19  1  0  0  0  0
 19 36  1  0  0  0  0
 19 20  2  0  0  0  0
 22 24  1  0  0  0  0
 37 40  1  0  0  0  0
  8 11  1  0  0  0  0
 21 23  1  0  0  0  0
 46 47  1  0  0  0  0
 21 22  1  0  0  0  0
 36 37  1  0  0  0  0
  7  8  1  0  0  0  0
 18 21  1  0  0  0  0
 17 18  1  0  0  0  0
  3  4  1  0  0  0  0
  3  5  1  0  0  0  0
  3  6  1  0  0  0  0
 24 33  1  0  0  0  0
 24 34  1  0  0  0  0
 24 35  1  0  0  0  0
 40 43  1  0  0  0  0
 40 44  1  0  0  0  0
 40 45  1  0  0  0  0
 11 14  1  0  0  0  0
 11 15  1  0  0  0  0
 11 16  1  0  0  0  0
 23 30  1  0  0  0  0
 23 31  1  0  0  0  0
 23 32  1  0  0  0  0
 47 49  1  0  0  0  0
 47 50  1  0  0  0  0
 47 51  1  0  0  0  0
 22 28  1  0  0  0  0
 22 29  1  0  0  0  0
 37 42  1  0  0  0  0
  8 13  1  0  0  0  0
 18 26  1  0  0  0  0
 21 27  1  0  0  0  0
 46 48  1  0  0  0  0
  7 12  1  0  0  0  0
 36 41  1  0  0  0  0
 17 25  1  0  0  0  0
M  END
$$$$

  -OEChem-05262214473D

 51 50  0     1  0  0  0  0  0999 V2000
    1.3524   -3.0009    1.4091 C   0  0  0  0  0  0  0  0  0  0  0  0
    1.8758   -1.9880    0.9598 O   0  0  0  0  0  0  0  0  0  0  0  0
    2.2030   -4.1782    1.7536 C   0  0  0  0  0  0  0  0  0  0  0  0
    2.3264   -4.8705    0.9053 H   0  0  0  0  0  0  0  0  0  0  0  0
    3.2257   -3.8876    2.0432 H   0  0  0  0  0  0  0  0  0  0  0  0
    1.8327   -4.8004    2.5839 H   0  0  0  0  0  0  0  0  0  0  0  0
    0.0005   -3.1873    1.6465 N   0  0  0  0  0  0  0  0  0  0  0  0
   -0.9949   -2.1807    1.3864 C   0  0  2  0  0  0  0  0  0  0  0  0
   -0.3083   -0.8216    1.4164 C   0  0  0  0  0  0  0  0  0  0  0  0
    0.7533   -0.6191    2.0022 O   0  0  0  0  0  0  0  0  0  0  0  0
   -2.1232   -2.2423    2.4042 C   0  0  0  0  0  0  0  0  0  0  0  0
   -0.3048   -4.0823    2.0245 H   0  0  0  0  0  0  0  0  0  0  0  0
   -1.3830   -2.3724    0.3801 H   0  0  0  0  0  0  0  0  0  0  0  0
   -1.7534   -2.0527    3.4185 H   0  0  0  0  0  0  0  0  0  0  0  0
   -2.8936   -1.4947    2.1882 H   0  0  0  0  0  0  0  0  0  0  0  0
   -2.5964   -3.2301    2.4022 H   0  0  0  0  0  0  0  0  0  0  0  0
   -1.0412    0.1517    0.7482 N   0  0  0  0  0  0  0  0  0  0  0  0
   -0.6079    1.5223    0.6467 C   0  0  2  0  0  0  0  0  0  0  0  0
   -0.1201    1.9707    2.0237 C   0  0  0  0  0  0  0  0  0  0  0  0
   -0.8832    2.2072    2.9581 O   0  0  0  0  0  0  0  0  0  0  0  0
   -1.6966    2.4593    0.0701 C   0  0  2  0  0  0  0  0  0  0  0  0
   -2.0820    2.0856   -1.3785 C   0  0  0  0  0  0  0  0  0  0  0  0
   -1.2449    3.9220    0.1762 C   0  0  0  0  0  0  0  0  0  0  0  0
   -3.3252    2.8082   -1.8814 C   0  0  0  0  0  0  0  0  0  0  0  0
   -1.9022   -0.1128    0.2753 H   0  0  0  0  0  0  0  0  0  0  0  0
    0.2629    1.5129   -0.0211 H   0  0  0  0  0  0  0  0  0  0  0  0
   -2.5961    2.3557    0.6916 H   0  0  0  0  0  0  0  0  0  0  0  0
   -1.2563    2.3358   -2.0544 H   0  0  0  0  0  0  0  0  0  0  0  0
   -2.2455    1.0048   -1.4639 H   0  0  0  0  0  0  0  0  0  0  0  0
   -0.3456    4.0962   -0.4243 H   0  0  0  0  0  0  0  0  0  0  0  0
   -2.0160    4.6027   -0.1973 H   0  0  0  0  0  0  0  0  0  0  0  0
   -1.0215    4.1993    1.2115 H   0  0  0  0  0  0  0  0  0  0  0  0
   -4.1940    2.6026   -1.2498 H   0  0  0  0  0  0  0  0  0  0  0  0
   -3.5687    2.4724   -2.8948 H   0  0  0  0  0  0  0  0  0  0  0  0
   -3.1653    3.8904   -1.9134 H   0  0  0  0  0  0  0  0  0  0  0  0
    1.2641    2.0420    2.0913 N   0  0  0  0  0  0  0  0  0  0  0  0
    1.9810    2.4215    3.2874 C   0  0  2  0  0  0  0  0  0  0  0  0
    3.3591    1.7753    3.2346 C   0  0  0  0  0  0  0  0  0  0  0  0
    3.6077    0.7798    2.5576 O   0  0  0  0  0  0  0  0  0  0  0  0
    1.2300    1.9985    4.5403 C   0  0  0  0  0  0  0  0  0  0  0  0
    1.8001    1.8162    1.2587 H   0  0  0  0  0  0  0  0  0  0  0  0
    2.0868    3.5115    3.2603 H   0  0  0  0  0  0  0  0  0  0  0  0
    1.1142    0.9095    4.5850 H   0  0  0  0  0  0  0  0  0  0  0  0
    1.7603    2.3119    5.4456 H   0  0  0  0  0  0  0  0  0  0  0  0
    0.2280    2.4405    4.5619 H   0  0  0  0  0  0  0  0  0  0  0  0
    4.2677    2.4151    4.0659 N   0  0  0  0  0  0  0  0  0  0  0  0
    5.6392    1.9830    4.2010 C   0  0  0  0  0  0  0  0  0  0  0  0
    3.9797    3.2448    4.5764 H   0  0  0  0  0  0  0  0  0  0  0  0
    5.7221    1.2827    5.0452 H   0  0  0  0  0  0  0  0  0  0  0  0
    5.9582    1.4811    3.2757 H   0  0  0  0  0  0  0  0  0  0  0  0
    6.2823    2.8564    4.3849 H   0  0  0  0  0  0  0  0  0  0  0  0
  1  3  1  0  0  0  0
  1  7  1  0  0  0  0
  1  2  2  0  0  0  0
 37 38  1  0  0  0  0
 38 46  1  0  0  0  0
 38 39  2  0  0  0  0
  8  9  1  0  0  0  0
  9 17  1  0  0  0  0
  9 10  2  0  0  0  0
 18 19  1  0  0  0  0
 19 36  1  0  0  0  0
 19 20  2  0  0  0  0
 22 24  1  0  0  0  0
 37 40  1  0  0  0  0
  8 11  1  0  0  0  0
 21 23  1  0  0  0  0
 46 47  1  0  0  0  0
 21 22  1  0  0  0  0
 36 37  1  0  0  0  0
  7  8  1  0  0  0  0
 18 21  1  0  0  0  0
 17 18  1  0  0  0  0
  3  4  1  0  0  0  0
  3  5  1  0  0  0  0
  3  6  1  0  0  0  0
 24 33  1  0  0  0  0
 24 34  1  0  0  0  0
 24 35  1  0  0  0  0
 40 43  1  0  0  0  0
 40 44  1  0  0  0  0
 40 45  1  0  0  0  0
 11 14  1  0  0  0  0
 11 15  1  0  0  0  0
 11 16  1  0  0  0  0
 23 30  1  0  0  0  0
 23 31  1  0  0  0  0
 23 32  1  0  0  0  0
 47 49  1  0  0  0  0
 47 50  1  0  0  0  0
 47 51  1  0  0  0  0
 22 28  1  0  0  0  0
 22 29  1  0  0  0  0
 37 42  1  0  0  0  0
  8 13  1  0  0  0  0
 18 26  1  0  0  0  0
 21 27  1  0  0  0  0
 46 48  1  0  0  0  0
  7 12  1  0  0  0  0
 36 41  1  0  0  0  0
 17 25  1  0  0  0  0
M  END
$$$$

  -OEChem-05262214473D

 51 50  0     1  0  0  0  0  0999 V2000
    1.3524   -3.0009    1.4091 C   0  0  0  0  0  0  0  0  0  0  0  0
    1.8758   -1.9880    0.9598 O   0  0  0  0  0  0  0  0  0  0  0  0
    2.2030   -4.1782    1.7536 C   0  0  0  0  0  0  0  0  0  0  0  0
    2.3264   -4.8705    0.9053 H   0  0  0  0  0  0  0  0  0  0  0  0
    3.2257   -3.8876    2.0432 H   0  0  0  0  0  0  0  0  0  0  0  0
    1.8327   -4.8004    2.5839 H   0  0  0  0  0  0  0  0  0  0  0  0
    0.0005   -3.1873    1.6465 N   0  0  0  0  0  0  0  0  0  0  0  0
   -0.9949   -2.1807    1.3864 C   0  0  2  0  0  0  0  0  0  0  0  0
   -0.3083   -0.8216    1.4164 C   0  0  0  0  0  0  0  0  0  0  0  0
    0.7533   -0.6191    2.0022 O   0  0  0  0  0  0  0  0  0  0  0  0
   -2.1232   -2.2423    2.4042 C   0  0  0  0  0  0  0  0  0  0  0  0
   -0.3048   -4.0823    2.0245 H   0  0  0  0  0  0  0  0  0  0  0  0
   -1.3830   -2.3724    0.3801 H   0  0  0  0  0  0  0  0  0  0  0  0
   -1.7534   -2.0527    3.4185 H   0  0  0  0  0  0  0  0  0  0  0  0
   -2.8936   -1.4947    2.1882 H   0  0  0  0  0  0  0  0  0  0  0  0
   -2.5964   -3.2301    2.4022 H   0  0  0  0  0  0  0  0  0  0  0  0
   -1.0412    0.1517    0.7482 N   0  0  0  0  0  0  0  0  0  0  0  0
   -0.6079    1.5223    0.6467 C   0  0  2  0  0  0  0  0  0  0  0  0
   -0.1201    1.9707    2.0237 C   0  0  0  0  0  0  0  0  0  0  0  0
   -0.8341    1.9507    3.0243 O   0  0  0  0  0  0  0  0  0  0  0  0
   -1.6966    2.4593    0.0701 C   0  0  2  0  0  0  0  0  0  0  0  0
   -2.0820    2.0856   -1.3785 C   0  0  0  0  0  0  0  0  0  0  0  0
   -1.2449    3.9220    0.1762 C   0  0  0  0  0  0  0  0  0  0  0  0
   -3.3252    2.8082   -1.8814 C   0  0  0  0  0  0  0  0  0  0  0  0
   -1.9022   -0.1128    0.2753 H   0  0  0  0  0  0  0  0  0  0  0  0
    0.2629    1.5129   -0.0211 H   0  0  0  0  0  0  0  0  0  0  0  0
   -2.5961    2.3557    0.6916 H   0  0  0  0  0  0  0  0  0  0  0  0
   -1.2563    2.3358   -2.0544 H   0  0  0  0  0  0  0  0  0  0  0  0
   -2.2455    1.0048   -1.4639 H   0  0  0  0  0  0  0  0  0  0  0  0
   -0.3456    4.0962   -0.4243 H   0  0  0  0  0  0  0  0  0  0  0  0
   -2.0160    4.6027   -0.1973 H   0  0  0  0  0  0  0  0  0  0  0  0
   -1.0215    4.1993    1.2115 H   0  0  0  0  0  0  0  0  0  0  0  0
   -4.1940    2.6026   -1.2498 H   0  0  0  0  0  0  0  0  0  0  0  0
   -3.5687    2.4724   -2.8948 H   0  0  0  0  0  0  0  0  0  0  0  0
   -3.1653    3.8904   -1.9134 H   0  0  0  0  0  0  0  0  0  0  0  0
    1.2111    2.3620    2.0059 N   0  0  0  0  0  0  0  0  0  0  0  0
    1.9214    2.8111    3.1817 C   0  0  2  0  0  0  0  0  0  0  0  0
    3.4014    2.5147    2.9788 C   0  0  0  0  0  0  0  0  0  0  0  0
    3.8133    1.6589    2.1985 O   0  0  0  0  0  0  0  0  0  0  0  0
    1.3981    2.1316    4.4375 C   0  0  0  0  0  0  0  0  0  0  0  0
    1.7113    2.3313    1.1224 H   0  0  0  0  0  0  0  0  0  0  0  0
    1.7709    3.8942    3.2476 H   0  0  0  0  0  0  0  0  0  0  0  0
    1.5402    1.0458    4.3897 H   0  0  0  0  0  0  0  0  0  0  0  0
    1.9177    2.4939    5.3306 H   0  0  0  0  0  0  0  0  0  0  0  0
    0.3269    2.3212    4.5657 H   0  0  0  0  0  0  0  0  0  0  0  0
    4.2064    3.2883    3.8034 N   0  0  0  0  0  0  0  0  0  0  0  0
    5.6469    3.1839    3.8073 C   0  0  0  0  0  0  0  0  0  0  0  0
    3.7801    3.9864    4.4056 H   0  0  0  0  0  0  0  0  0  0  0  0
    5.9607    2.4628    4.5764 H   0  0  0  0  0  0  0  0  0  0  0  0
    5.9922    2.8412    2.8208 H   0  0  0  0  0  0  0  0  0  0  0  0
    6.0851    4.1686    4.0274 H   0  0  0  0  0  0  0  0  0  0  0  0
  1  3  1  0  0  0  0
  1  7  1  0  0  0  0
  1  2  2  0  0  0  0
 37 38  1  0  0  0  0
 38 46  1  0  0  0  0
 38 39  2  0  0  0  0
  8  9  1  0  0  0  0
  9 17  1  0  0  0  0
  9 10  2  0  0  0  0
 18 19  1  0  0  0  0
 19 36  1  0  0  0  0
 19 20  2  0  0  0  0
 22 24  1  0  0  0  0
 37 40  1  0  0  0  0
  8 11  1  0  0  0  0
 21 23  1  0  0  0  0
 46 47  1  0  0  0  0
 21 22  1  0  0  0  0
 36 37  1  0  0  0  0
  7  8  1  0  0  0  0
 18 21  1  0  0  0  0
 17 18  1  0  0  0  0
  3  4  1  0  0  0  0
  3  5  1  0  0  0  0
  3  6  1  0  0  0  0
 24 33  1  0  0  0  0
 24 34  1  0  0  0  0
 24 35  1  0  0  0  0
 40 43  1  0  0  0  0
 40 44  1  0  0  0  0
 40 45  1  0  0  0  0
 11 14  1  0  0  0  0
 11 15  1  0  0  0  0
 11 16  1  0  0  0  0
 23 30  1  0  0  0  0
 23 31  1  0  0  0  0
 23 32  1  0  0  0  0
 47 49  1  0  0  0  0
 47 50  1  0  0  0  0
 47 51  1  0  0  0  0
 22 28  1  0  0  0  0
 22 29  1  0  0  0  0
 37 42  1  0  0  0  0
  8 13  1  0  0  0  0
 18 26  1  0  0  0  0
 21 27  1  0  0  0  0
 46 48  1  0  0  0  0
  7 12  1  0  0  0  0
 36 41  1  0  0  0  0
 17 25  1  0  0  0  0
M  END
$$$$

  -OEChem-05262214473D

 51 50  0     1  0  0  0  0  0999 V2000
    1.3524   -3.0009    1.4091 C   0  0  0  0  0  0  0  0  0  0  0  0
    1.8758   -1.9880    0.9598 O   0  0  0  0  0  0  0  0  0  0  0  0
    2.2030   -4.1782    1.7536 C   0  0  0  0  0  0  0  0  0  0  0  0
    2.3264   -4.8705    0.9053 H   0  0  0  0  0  0  0  0  0  0  0  0
    3.2257   -3.8876    2.0432 H   0  0  0  0  0  0  0  0  0  0  0  0
    1.8327   -4.8004    2.5839 H   0  0  0  0  0  0  0  0  0  0  0  0
    0.0005   -3.1873    1.6465 N   0  0  0  0  0  0  0  0  0  0  0  0
   -0.9949   -2.1807    1.3864 C   0  0  2  0  0  0  0  0  0  0  0  0
   -0.3083   -0.8216    1.4164 C   0  0  0  0  0  0  0  0  0  0  0  0
    0.7533   -0.6191    2.0022 O   0  0  0  0  0  0  0  0  0  0  0  0
   -2.1232   -2.2423    2.4042 C   0  0  0  0  0  0  0  0  0  0  0  0
   -0.3048   -4.0823    2.0245 H   0  0  0  0  0  0  0  0  0  0  0  0
   -1.3830   -2.3724    0.3801 H   0  0  0  0  0  0  0  0  0  0  0  0
   -1.7534   -2.0527    3.4185 H   0  0  0  0  0  0  0  0  0  0  0  0
   -2.8936   -1.4947    2.1882 H   0  0  0  0  0  0  0  0  0  0  0  0
   -2.5964   -3.2301    2.4022 H   0  0  0  0  0  0  0  0  0  0  0  0
   -1.0412    0.1517    0.7482 N   0  0  0  0  0  0  0  0  0  0  0  0
   -0.6079    1.5223    0.6467 C   0  0  2  0  0  0  0  0  0  0  0  0
   -0.1201    1.9707    2.0237 C   0  0  0  0  0  0  0  0  0  0  0  0
   -0.7219    1.7088    3.0633 O   0  0  0  0  0  0  0  0  0  0  0  0
   -1.6966    2.4593    0.0701 C   0  0  2  0  0  0  0  0  0  0  0  0
   -2.0820    2.0856   -1.3785 C   0  0  0  0  0  0  0  0  0  0  0  0
   -1.2449    3.9220    0.1762 C   0  0  0  0  0  0  0  0  0  0  0  0
   -3.3252    2.8082   -1.8814 C   0  0  0  0  0  0  0  0  0  0  0  0
   -1.9022   -0.1128    0.2753 H   0  0  0  0  0  0  0  0  0  0  0  0
    0.2629    1.5129   -0.0211 H   0  0  0  0  0  0  0  0  0  0  0  0
   -2.5961    2.3557    0.6916 H   0  0  0  0  0  0  0  0  0  0  0  0
   -1.2563    2.3358   -2.0544 H   0  0  0  0  0  0  0  0  0  0  0  0
   -2.2455    1.0048   -1.4639 H   0  0  0  0  0  0  0  0  0  0  0  0
   -0.3456    4.0962   -0.4243 H   0  0  0  0  0  0  0  0  0  0  0  0
   -2.0160    4.6027   -0.1973 H   0  0  0  0  0  0  0  0  0  0  0  0
   -1.0215    4.1993    1.2115 H   0  0  0  0  0  0  0  0  0  0  0  0
   -4.1940    2.6026   -1.2498 H   0  0  0  0  0  0  0  0  0  0  0  0
   -3.5687    2.4724   -2.8948 H   0  0  0  0  0  0  0  0  0  0  0  0
   -3.1653    3.8904   -1.9134 H   0  0  0  0  0  0  0  0  0  0  0  0
    1.0788    2.6659    1.9538 N   0  0  0  0  0  0  0  0  0  0  0  0
    1.7649    3.1823    3.1162 C   0  0  2  0  0  0  0  0  0  0  0  0
    3.2504    3.2600    2.7897 C   0  0  0  0  0  0  0  0  0  0  0  0
    3.7797    2.5857    1.9086 O   0  0  0  0  0  0  0  0  0  0  0  0
    1.5216    2.3078    4.3363 C   0  0  0  0  0  0  0  0  0  0  0  0
    1.4950    2.8194    1.0401 H   0  0  0  0  0  0  0  0  0  0  0  0
    1.3755    4.1912    3.2910 H   0  0  0  0  0  0  0  0  0  0  0  0
    1.9050    1.2929    4.1800 H   0  0  0  0  0  0  0  0  0  0  0  0
    2.0186    2.7160    5.2226 H   0  0  0  0  0  0  0  0  0  0  0  0
    0.4506    2.2289    4.5519 H   0  0  0  0  0  0  0  0  0  0  0  0
    3.9235    4.1391    3.6265 N   0  0  0  0  0  0  0  0  0  0  0  0
    5.3442    4.3782    3.5256 C   0  0  0  0  0  0  0  0  0  0  0  0
    3.4013    4.6704    4.3171 H   0  0  0  0  0  0  0  0  0  0  0  0
    5.8803    3.6972    4.2029 H   0  0  0  0  0  0  0  0  0  0  0  0
    5.6733    4.2004    2.4911 H   0  0  0  0  0  0  0  0  0  0  0  0
    5.5615    5.4196    3.8056 H   0  0  0  0  0  0  0  0  0  0  0  0
  1  3  1  0  0  0  0
  1  7  1  0  0  0  0
  1  2  2  0  0  0  0
 37 38  1  0  0  0  0
 38 46  1  0  0  0  0
 38 39  2  0  0  0  0
  8  9  1  0  0  0  0
  9 17  1  0  0  0  0
  9 10  2  0  0  0  0
 18 19  1  0  0  0  0
 19 36  1  0  0  0  0
 19 20  2  0  0  0  0
 22 24  1  0  0  0  0
 37 40  1  0  0  0  0
  8 11  1  0  0  0  0
 21 23  1  0  0  0  0
 46 47  1  0  0  0  0
 21 22  1  0  0  0  0
 36 37  1  0  0  0  0
  7  8  1  0  0  0  0
 18 21  1  0  0  0  0
 17 18  1  0  0  0  0
  3  4  1  0  0  0  0
  3  5  1  0  0  0  0
  3  6  1  0  0  0  0
 24 33  1  0  0  0  0
 24 34  1  0  0  0  0
 24 35  1  0  0  0  0
 40 43  1  0  0  0  0
 40 44  1  0  0  0  0
 40 45  1  0  0  0  0
 11 14  1  0  0  0  0
 11 15  1  0  0  0  0
 11 16  1  0  0  0  0
 23 30  1  0  0  0  0
 23 31  1  0  0  0  0
 23 32  1  0  0  0  0
 47 49  1  0  0  0  0
 47 50  1  0  0  0  0
 47 51  1  0  0  0  0
 22 28  1  0  0  0  0
 22 29  1  0  0  0  0
 37 42  1  0  0  0  0
  8 13  1  0  0  0  0
 18 26  1  0  0  0  0
 21 27  1  0  0  0  0
 46 48  1  0  0  0  0
  7 12  1  0  0  0  0
 36 41  1  0  0  0  0
 17 25  1  0  0  0  0
M  END
$$$$

  -OEChem-05262214473D

 51 50  0     1  0  0  0  0  0999 V2000
    1.3524   -3.0009    1.4091 C   0  0  0  0  0  0  0  0  0  0  0  0
    1.8758   -1.9880    0.9598 O   0  0  0  0  0  0  0  0  0  0  0  0
    2.2030   -4.1782    1.7536 C   0  0  0  0  0  0  0  0  0  0  0  0
    2.3264   -4.8705    0.9053 H   0  0  0  0  0  0  0  0  0  0  0  0
    3.2257   -3.8876    2.0432 H   0  0  0  0  0  0  0  0  0  0  0  0
    1.8327   -4.8004    2.5839 H   0  0  0  0  0  0  0  0  0  0  0  0
    0.0005   -3.1873    1.6465 N   0  0  0  0  0  0  0  0  0  0  0  0
   -0.9949   -2.1807    1.3864 C   0  0  2  0  0  0  0  0  0  0  0  0
   -0.3083   -0.8216    1.4164 C   0  0  0  0  0  0  0  0  0  0  0  0
    0.7533   -0.6191    2.0022 O   0  0  0  0  0  0  0  0  0  0  0  0
   -2.1232   -2.2423    2.4042 C   0  0  0  0  0  0  0  0  0  0  0  0
   -0.3048   -4.0823    2.0245 H   0  0  0  0  0  0  0  0  0  0  0  0
   -1.3830   -2.3724    0.3801 H   0  0  0  0  0  0  0  0  0  0  0  0
   -1.7534   -2.0527    3.4185 H   0  0  0  0  0  0  0  0  0  0  0  0
   -2.8936   -1.4947    2.1882 H   0  0  0  0  0  0  0  0  0  0  0  0
   -2.5964   -3.2301    2.4022 H   0  0  0  0  0  0  0  0  0  0  0  0
   -1.0412    0.1517    0.7482 N   0  0  0  0  0  0  0  0  0  0  0  0
   -0.6079    1.5223    0.6467 C   0  0  2  0  0  0  0  0  0  0  0  0
   -0.1201    1.9707    2.0237 C   0  0  0  0  0  0  0  0  0  0  0  0
   -0.5541    1.4982    3.0724 O   0  0  0  0  0  0  0  0  0  0  0  0
   -1.6966    2.4593    0.0701 C   0  0  2  0  0  0  0  0  0  0  0  0
   -2.0820    2.0856   -1.3785 C   0  0  0  0  0  0  0  0  0  0  0  0
   -1.2449    3.9220    0.1762 C   0  0  0  0  0  0  0  0  0  0  0  0
   -3.3252    2.8082   -1.8814 C   0  0  0  0  0  0  0  0  0  0  0  0
   -1.9022   -0.1128    0.2753 H   0  0  0  0  0  0  0  0  0  0  0  0
    0.2629    1.5129   -0.0211 H   0  0  0  0  0  0  0  0  0  0  0  0
   -2.5961    2.3557    0.6916 H   0  0  0  0  0  0  0  0  0  0  0  0
   -1.2563    2.3358   -2.0544 H   0  0  0  0  0  0  0  0  0  0  0  0
   -2.2455    1.0048   -1.4639 H   0  0  0  0  0  0  0  0  0  0  0  0
   -0.3456    4.0962   -0.4243 H   0  0  0  0  0  0  0  0  0  0  0  0
   -2.0160    4.6027   -0.1973 H   0  0  0  0  0  0  0  0  0  0  0  0
   -1.0215    4.1993    1.2115 H   0  0  0  0  0  0  0  0  0  0  0  0
   -4.1940    2.6026   -1.2498 H   0  0  0  0  0  0  0  0  0  0  0  0
   -3.5687    2.4724   -2.8948 H   0  0  0  0  0  0  0  0  0  0  0  0
   -3.1653    3.8904   -1.9134 H   0  0  0  0  0  0  0  0  0  0  0  0
    0.8762    2.9328    1.9387 N   0  0  0  0  0  0  0  0  0  0  0  0
    1.5222    3.5098    3.0956 C   0  0  2  0  0  0  0  0  0  0  0  0
    2.9164    3.9603    2.6800 C   0  0  0  0  0  0  0  0  0  0  0  0
    3.5090    3.4970    1.7078 O   0  0  0  0  0  0  0  0  0  0  0  0
    1.5921    2.5151    4.2438 C   0  0  0  0  0  0  0  0  0  0  0  0
    1.1660    3.2472    1.0173 H   0  0  0  0  0  0  0  0  0  0  0  0
    0.9277    4.3824    3.3874 H   0  0  0  0  0  0  0  0  0  0  0  0
    2.1839    1.6340    3.9701 H   0  0  0  0  0  0  0  0  0  0  0  0
    2.0560    2.9629    5.1289 H   0  0  0  0  0  0  0  0  0  0  0  0
    0.5905    2.1696    4.5217 H   0  0  0  0  0  0  0  0  0  0  0  0
    3.4384    4.9095    3.5475 N   0  0  0  0  0  0  0  0  0  0  0  0
    4.7520    5.4845    3.3752 C   0  0  0  0  0  0  0  0  0  0  0  0
    2.8692    5.2500    4.3168 H   0  0  0  0  0  0  0  0  0  0  0  0
    5.4864    4.9015    3.9503 H   0  0  0  0  0  0  0  0  0  0  0  0
    5.0232    5.4662    2.3093 H   0  0  0  0  0  0  0  0  0  0  0  0
    4.7470    6.5242    3.7344 H   0  0  0  0  0  0  0  0  0  0  0  0
  1  3  1  0  0  0  0
  1  7  1  0  0  0  0
  1  2  2  0  0  0  0
 37 38  1  0  0  0  0
 38 46  1  0  0  0  0
 38 39  2  0  0  0  0
  8  9  1  0  0  0  0
  9 17  1  0  0  0  0
  9 10  2  0  0  0  0
 18 19  1  0  0  0  0
 19 36  1  0  0  0  0
 19 20  2  0  0  0  0
 22 24  1  0  0  0  0
 37 40  1  0  0  0  0
  8 11  1  0  0  0  0
 21 23  1  0  0  0  0
 46 47  1  0  0  0  0
 21 22  1  0  0  0  0
 36 37  1  0  0  0  0
  7  8  1  0  0  0  0
 18 21  1  0  0  0  0
 17 18  1  0  0  0  0
  3  4  1  0  0  0  0
  3  5  1  0  0  0  0
  3  6  1  0  0  0  0
 24 33  1  0  0  0  0
 24 34  1  0  0  0  0
 24 35  1  0  0  0  0
 40 43  1  0  0  0  0
 40 44  1  0  0  0  0
 40 45  1  0  0  0  0
 11 14  1  0  0  0  0
 11 15  1  0  0  0  0
 11 16  1  0  0  0  0
 23 30  1  0  0  0  0
 23 31  1  0  0  0  0
 23 32  1  0  0  0  0
 47 49  1  0  0  0  0
 47 50  1  0  0  0  0
 47 51  1  0  0  0  0
 22 28  1  0  0  0  0
 22 29  1  0  0  0  0
 37 42  1  0  0  0  0
  8 13  1  0  0  0  0
 18 26  1  0  0  0  0
 21 27  1  0  0  0  0
 46 48  1  0  0  0  0
  7 12  1  0  0  0  0
 36 41  1  0  0  0  0
 17 25  1  0  0  0  0
M  END
$$$$

  -OEChem-05262214473D

 51 50  0     1  0  0  0  0  0999 V2000
    1.3524   -3.0009    1.4091 C   0  0  0  0  0  0  0  0  0  0  0  0
    1.8758   -1.9880    0.9598 O   0  0  0  0  0  0  0  0  0  0  0  0
    2.2030   -4.1782    1.7536 C   0  0  0  0  0  0  0  0  0  0  0  0
    2.3264   -4.8705    0.9053 H   0  0  0  0  0  0  0  0  0  0  0  0
    3.2257   -3.8876    2.0432 H   0  0  0  0  0  0  0  0  0  0  0  0
    1.8327   -4.8004    2.5839 H   0  0  0  0  0  0  0  0  0  0  0  0
    0.0005   -3.1873    1.6465 N   0  0  0  0  0  0  0  0  0  0  0  0
   -0.9949   -2.1807    1.3864 C   0  0  2  0  0  0  0  0  0  0  0  0
   -0.3083   -0.8216    1.4164 C   0  0  0  0  0  0  0  0  0  0  0  0
    0.7533   -0.6191    2.0022 O   0  0  0  0  0  0  0  0  0  0  0  0
   -2.1232   -2.2423    2.4042 C   0  0  0  0  0  0  0  0  0  0  0  0
   -0.3048   -4.0823    2.0245 H   0  0  0  0  0  0  0  0  0  0  0  0
   -1.3830   -2.3724    0.3801 H   0  0  0  0  0  0  0  0  0  0  0  0
   -1.7534   -2.0527    3.4185 H   0  0  0  0  0  0  0  0  0  0  0  0
   -2.8936   -1.4947    2.1882 H   0  0  0  0  0  0  0  0  0  0  0  0
   -2.5964   -3.2301    2.4022 H   0  0  0  0  0  0  0  0  0  0  0  0
   -1.0412    0.1517    0.7482 N   0  0  0  0  0  0  0  0  0  0  0  0
   -0.6079    1.5223    0.6467 C   0  0  2  0  0  0  0  0  0  0  0  0
   -0.1201    1.9707    2.0237 C   0  0  0  0  0  0  0  0  0  0  0  0
   -0.3422    1.3331    3.0511 O   0  0  0  0  0  0  0  0  0  0  0  0
   -1.6966    2.4593    0.0701 C   0  0  2  0  0  0  0  0  0  0  0  0
   -2.0820    2.0856   -1.3785 C   0  0  0  0  0  0  0  0  0  0  0  0
   -1.2449    3.9220    0.1762 C   0  0  0  0  0  0  0  0  0  0  0  0
   -3.3252    2.8082   -1.8814 C   0  0  0  0  0  0  0  0  0  0  0  0
   -1.9022   -0.1128    0.2753 H   0  0  0  0  0  0  0  0  0  0  0  0
    0.2629    1.5129   -0.0211 H   0  0  0  0  0  0  0  0  0  0  0  0
   -2.5961    2.3557    0.6916 H   0  0  0  0  0  0  0  0  0  0  0  0
   -1.2563    2.3358   -2.0544 H   0  0  0  0  0  0  0  0  0  0  0  0
   -2.2455    1.0048   -1.4639 H   0  0  0  0  0  0  0  0  0  0  0  0
   -0.3456    4.0962   -0.4243 H   0  0  0  0  0  0  0  0  0  0  0  0
   -2.0160    4.6027   -0.1973 H   0  0  0  0  0  0  0  0  0  0  0  0
   -1.0215    4.1993    1.2115 H   0  0  0  0  0  0  0  0  0  0  0  0
   -4.1940    2.6026   -1.2498 H   0  0  0  0  0  0  0  0  0  0  0  0
   -3.5687    2.4724   -2.8948 H   0  0  0  0  0  0  0  0  0  0  0  0
   -3.1653    3.8904   -1.9134 H   0  0  0  0  0  0  0  0  0  0  0  0
    0.6172    3.1447    1.9615 N   0  0  0  0  0  0  0  0  0  0  0  0
    1.2098    3.7712    3.1211 C   0  0  2  0  0  0  0  0  0  0  0  0
    2.4221    4.5679    2.6572 C   0  0  0  0  0  0  0  0  0  0  0  0
    3.0198    4.3307    1.6096 O   0  0  0  0  0  0  0  0  0  0  0  0
    1.6048    2.7395    4.1662 C   0  0  0  0  0  0  0  0  0  0  0  0
    0.7467    3.5856    1.0557 H   0  0  0  0  0  0  0  0  0  0  0  0
    0.4578    4.4546    3.5304 H   0  0  0  0  0  0  0  0  0  0  0  0
    2.3577    2.0459    3.7744 H   0  0  0  0  0  0  0  0  0  0  0  0
    2.0275    3.2178    5.0560 H   0  0  0  0  0  0  0  0  0  0  0  0
    0.7372    2.1475    4.4769 H   0  0  0  0  0  0  0  0  0  0  0  0
    2.7842    5.5471    3.5717 N   0  0  0  0  0  0  0  0  0  0  0  0
    3.9105    6.4275    3.3662 C   0  0  0  0  0  0  0  0  0  0  0  0
    2.2200    5.6857    4.4049 H   0  0  0  0  0  0  0  0  0  0  0  0
    4.8059    5.9939    3.8357 H   0  0  0  0  0  0  0  0  0  0  0  0
    4.0862    6.5523    2.2876 H   0  0  0  0  0  0  0  0  0  0  0  0
    3.6973    7.4071    3.8188 H   0  0  0  0  0  0  0  0  0  0  0  0
  1  3  1  0  0  0  0
  1  7  1  0  0  0  0
  1  2  2  0  0  0  0
 37 38  1  0  0  0  0
 38 46  1  0  0  0  0
 38 39  2  0  0  0  0
  8  9  1  0  0  0  0
  9 17  1  0  0  0  0
  9 10  2  0  0  0  0
 18 19  1  0  0  0  0
 19 36  1  0  0  0  0
 19 20  2  0  0  0  0
 22 24  1  0  0  0  0
 37 40  1  0  0  0  0
  8 11  1  0  0  0  0
 21 23  1  0  0  0  0
 46 47  1  0  0  0  0
 21 22  1  0  0  0  0
 36 37  1  0  0  0  0
  7  8  1  0  0  0  0
 18 21  1  0  0  0  0
 17 18  1  0  0  0  0
  3  4  1  0  0  0  0
  3  5  1  0  0  0  0
  3  6  1  0  0  0  0
 24 33  1  0  0  0  0
 24 34  1  0  0  0  0
 24 35  1  0  0  0  0
 40 43  1  0  0  0  0
 40 44  1  0  0  0  0
 40 45  1  0  0  0  0
 11 14  1  0  0  0  0
 11 15  1  0  0  0  0
 11 16  1  0  0  0  0
 23 30  1  0  0  0  0
 23 31  1  0  0  0  0
 23 32  1  0  0  0  0
 47 49  1  0  0  0  0
 47 50  1  0  0  0  0
 47 51  1  0  0  0  0
 22 28  1  0  0  0  0
 22 29  1  0  0  0  0
 37 42  1  0  0  0  0
  8 13  1  0  0  0  0
 18 26  1  0  0  0  0
 21 27  1  0  0  0  0
 46 48  1  0  0  0  0
  7 12  1  0  0  0  0
 36 41  1  0  0  0  0
 17 25  1  0  0  0  0
M  END
$$$$

  -OEChem-05262214473D

 51 50  0     1  0  0  0  0  0999 V2000
    1.3524   -3.0009    1.4091 C   0  0  0  0  0  0  0  0  0  0  0  0
    1.8758   -1.9880    0.9598 O   0  0  0  0  0  0  0  0  0  0  0  0
    2.2030   -4.1782    1.7536 C   0  0  0  0  0  0  0  0  0  0  0  0
    2.3264   -4.8705    0.9053 H   0  0  0  0  0  0  0  0  0  0  0  0
    3.2257   -3.8876    2.0432 H   0  0  0  0  0  0  0  0  0  0  0  0
    1.8327   -4.8004    2.5839 H   0  0  0  0  0  0  0  0  0  0  0  0
    0.0005   -3.1873    1.6465 N   0  0  0  0  0  0  0  0  0  0  0  0
   -0.9949   -2.1807    1.3864 C   0  0  2  0  0  0  0  0  0  0  0  0
   -0.3083   -0.8216    1.4164 C   0  0  0  0  0  0  0  0  0  0  0  0
    0.7533   -0.6191    2.0022 O   0  0  0  0  0  0  0  0  0  0  0  0
   -2.1232   -2.2423    2.4042 C   0  0  0  0  0  0  0  0  0  0  0  0
   -0.3048   -4.0823    2.0245 H   0  0  0  0  0  0  0  0  0  0  0  0
   -1.3830   -2.3724    0.3801 H   0  0  0  0  0  0  0  0  0  0  0  0
   -1.7534   -2.0527    3.4185 H   0  0  0  0  0  0  0  0  0  0  0  0
   -2.8936   -1.4947    2.1882 H   0  0  0  0  0  0  0  0  0  0  0  0
   -2.5964   -3.2301    2.4022 H   0  0  0  0  0  0  0  0  0  0  0  0
   -1.0412    0.1517    0.7482 N   0  0  0  0  0  0  0  0  0  0  0  0
   -0.6079    1.5223    0.6467 C   0  0  2  0  0  0  0  0  0  0  0  0
    0.2153    1.8548    1.8905 C   0  0  0  0  0  0  0  0  0  0  0  0
    0.4532    1.0329    2.7732 O   0  0  0  0  0  0  0  0  0  0  0  0
   -1.7781    2.5117    0.4292 C   0  0  2  0  0  0  0  0  0  0  0  0
   -2.5176    2.2585   -0.9033 C   0  0  0  0  0  0  0  0  0  0  0  0
   -1.2736    3.9573    0.5307 C   0  0  0  0  0  0  0  0  0  0  0  0
   -3.8255    3.0296   -1.0277 C   0  0  0  0  0  0  0  0  0  0  0  0
   -1.9022   -0.1128    0.2753 H   0  0  0  0  0  0  0  0  0  0  0  0
    0.0718    1.5591   -0.2142 H   0  0  0  0  0  0  0  0  0  0  0  0
   -2.5001    2.3662    1.2439 H   0  0  0  0  0  0  0  0  0  0  0  0
   -1.8764    2.5550   -1.7413 H   0  0  0  0  0  0  0  0  0  0  0  0
   -2.7272    1.1894   -1.0271 H   0  0  0  0  0  0  0  0  0  0  0  0
   -0.5446    4.1714   -0.2583 H   0  0  0  0  0  0  0  0  0  0  0  0
   -2.0934    4.6723    0.4116 H   0  0  0  0  0  0  0  0  0  0  0  0
   -0.7952    4.1489    1.4967 H   0  0  0  0  0  0  0  0  0  0  0  0
   -4.5181    2.7814   -0.2185 H   0  0  0  0  0  0  0  0  0  0  0  0
   -4.3196    2.7781   -1.9720 H   0  0  0  0  0  0  0  0  0  0  0  0
   -3.6482    4.1095   -1.0163 H   0  0  0  0  0  0  0  0  0  0  0  0
    0.6771    3.1633    1.8785 N   0  0  0  0  0  0  0  0  0  0  0  0
    1.4962    3.7247    2.9284 C   0  0  2  0  0  0  0  0  0  0  0  0
    2.3345    4.8432    2.3237 C   0  0  0  0  0  0  0  0  0  0  0  0
    2.5910    4.9155    1.1236 O   0  0  0  0  0  0  0  0  0  0  0  0
    2.3819    2.6653    3.5655 C   0  0  0  0  0  0  0  0  0  0  0  0
    0.4268    3.7561    1.0926 H   0  0  0  0  0  0  0  0  0  0  0  0
    0.8116    4.1431    3.6743 H   0  0  0  0  0  0  0  0  0  0  0  0
    3.0748    2.2346    2.8335 H   0  0  0  0  0  0  0  0  0  0  0  0
    2.9810    3.0862    4.3797 H   0  0  0  0  0  0  0  0  0  0  0  0
    1.7788    1.8471    3.9737 H   0  0  0  0  0  0  0  0  0  0  0  0
    2.7986    5.7273    3.2877 N   0  0  0  0  0  0  0  0  0  0  0  0
    3.6265    6.8664    2.9669 C   0  0  0  0  0  0  0  0  0  0  0  0
    2.5208    5.6011    4.2565 H   0  0  0  0  0  0  0  0  0  0  0  0
    4.6866    6.5863    3.0547 H   0  0  0  0  0  0  0  0  0  0  0  0
    3.4177    7.1930    1.9374 H   0  0  0  0  0  0  0  0  0  0  0  0
    3.4055    7.6881    3.6641 H   0  0  0  0  0  0  0  0  0  0  0  0
  1  3  1  0  0  0  0
  1  7  1  0  0  0  0
  1  2  2  0  0  0  0
 37 38  1  0  0  0  0
 38 46  1  0  0  0  0
 38 39  2  0  0  0  0
  8  9  1  0  0  0  0
  9 17  1  0  0  0  0
  9 10  2  0  0  0  0
 18 19  1  0  0  0  0
 19 36  1  0  0  0  0
 19 20  2  0  0  0  0
 22 24  1  0  0  0  0
 37 40  1  0  0  0  0
  8 11  1  0  0  0  0
 21 23  1  0  0  0  0
 46 47  1  0  0  0  0
 21 22  1  0  0  0  0
 36 37  1  0  0  0  0
  7  8  1  0  0  0  0
 18 21  1  0  0  0  0
 17 18  1  0  0  0  0
  3  4  1  0  0  0  0
  3  5  1  0  0  0  0
  3  6  1  0  0  0  0
 24 33  1  0  0  0  0
 24 34  1  0  0  0  0
 24 35  1  0  0  0  0
 40 43  1  0  0  0  0
 40 44  1  0  0  0  0
 40 45  1  0  0  0  0
 11 14  1  0  0  0  0
 11 15  1  0  0  0  0
 11 16  1  0  0  0  0
 23 30  1  0  0  0  0
 23 31  1  0  0  0  0
 23 32  1  0  0  0  0
 47 49  1  0  0  0  0
 47 50  1  0  0  0  0
 47 51  1  0  0  0  0
 22 28  1  0  0  0  0
 22 29  1  0  0  0  0
 37 42  1  0  0  0  0
  8 13  1  0  0  0  0
 18 26  1  0  0  0  0
 21 27  1  0  0  0  0
 46 48  1  0  0  0  0
  7 12  1  0  0  0  0
 36 41  1  0  0  0  0
 17 25  1  0  0  0  0
M  END
$$$$

  -OEChem-05262214473D

 51 50  0     1  0  0  0  0  0999 V2000
    1.3524   -3.0009    1.4091 C   0  0  0  0  0  0  0  0  0  0  0  0
    1.8758   -1.9880    0.9598 O   0  0  0  0  0  0  0  0  0  0  0  0
    2.2030   -4.1782    1.7536 C   0  0  0  0  0  0  0  0  0  0  0  0
    2.3264   -4.8705    0.9053 H   0  0  0  0  0  0  0  0  0  0  0  0
    3.2257   -3.8876    2.0432 H   0  0  0  0  0  0  0  0  0  0  0  0
    1.8327   -4.8004    2.5839 H   0  0  0  0  0  0  0  0  0  0  0  0
    0.0005   -3.1873    1.6465 N   0  0  0  0  0  0  0  0  0  0  0  0
   -0.9949   -2.1807    1.3864 C   0  0  2  0  0  0  0  0  0  0  0  0
   -0.3083   -0.8216    1.4164 C   0  0  0  0  0  0  0  0  0  0  0  0
    0.7533   -0.6191    2.0022 O   0  0  0  0  0  0  0  0  0  0  0  0
   -2.1232   -2.2423    2.4042 C   0  0  0  0  0  0  0  0  0  0  0  0
   -0.3048   -4.0823    2.0245 H   0  0  0  0  0  0  0  0  0  0  0  0
   -1.3830   -2.3724    0.3801 H   0  0  0  0  0  0  0  0  0  0  0  0
   -1.7534   -2.0527    3.4185 H   0  0  0  0  0  0  0  0  0  0  0  0
   -2.8936   -1.4947    2.1882 H   0  0  0  0  0  0  0  0  0  0  0  0
   -2.5964   -3.2301    2.4022 H   0  0  0  0  0  0  0  0  0  0  0  0
   -1.0412    0.1517    0.7482 N   0  0  0  0  0  0  0  0  0  0  0  0
   -0.6079    1.5223    0.6467 C   0  0  2  0  0  0  0  0  0  0  0  0
    0.2153    1.8548    1.8905 C   0  0  0  0  0  0  0  0  0  0  0  0
    0.6802    0.9929    2.6337 O   0  0  0  0  0  0  0  0  0  0  0  0
   -1.7781    2.5117    0.4292 C   0  0  2  0  0  0  0  0  0  0  0  0
   -2.5176    2.2585   -0.9033 C   0  0  0  0  0  0  0  0  0  0  0  0
   -1.2736    3.9573    0.5307 C   0  0  0  0  0  0  0  0  0  0  0  0
   -3.8255    3.0296   -1.0277 C   0  0  0  0  0  0  0  0  0  0  0  0
   -1.9022   -0.1128    0.2753 H   0  0  0  0  0  0  0  0  0  0  0  0
    0.0718    1.5591   -0.2142 H   0  0  0  0  0  0  0  0  0  0  0  0
   -2.5001    2.3662    1.2439 H   0  0  0  0  0  0  0  0  0  0  0  0
   -1.8764    2.5550   -1.7413 H   0  0  0  0  0  0  0  0  0  0  0  0
   -2.7272    1.1894   -1.0271 H   0  0  0  0  0  0  0  0  0  0  0  0
   -0.5446    4.1714   -0.2583 H   0  0  0  0  0  0  0  0  0  0  0  0
   -2.0934    4.6723    0.4116 H   0  0  0  0  0  0  0  0  0  0  0  0
   -0.7952    4.1489    1.4967 H   0  0  0  0  0  0  0  0  0  0  0  0
   -4.5181    2.7814   -0.2185 H   0  0  0  0  0  0  0  0  0  0  0  0
   -4.3196    2.7781   -1.9720 H   0  0  0  0  0  0  0  0  0  0  0  0
   -3.6482    4.1095   -1.0163 H   0  0  0  0  0  0  0  0  0  0  0  0
    0.3946    3.2216    2.0499 N   0  0  0  0  0  0  0  0  0  0  0  0
    1.1528    3.8005    3.1355 C   0  0  2  0  0  0  0  0  0  0  0  0
    1.6966    5.1433    2.6657 C   0  0  0  0  0  0  0  0  0  0  0  0
    1.8464    5.4284    1.4794 O   0  0  0  0  0  0  0  0  0  0  0  0
    2.2814    2.8806    3.5745 C   0  0  0  0  0  0  0  0  0  0  0  0
   -0.0281    3.8462    1.3696 H   0  0  0  0  0  0  0  0  0  0  0  0
    0.4514    3.9588    3.9619 H   0  0  0  0  0  0  0  0  0  0  0  0
    2.9943    2.7102    2.7595 H   0  0  0  0  0  0  0  0  0  0  0  0
    2.8370    3.3078    4.4158 H   0  0  0  0  0  0  0  0  0  0  0  0
    1.8910    1.9050    3.8839 H   0  0  0  0  0  0  0  0  0  0  0  0
    2.0354    5.9697    3.7280 N   0  0  0  0  0  0  0  0  0  0  0  0
    2.5850    7.2923    3.5424 C   0  0  0  0  0  0  0  0  0  0  0  0
    1.8594    5.6587    4.6789 H   0  0  0  0  0  0  0  0  0  0  0  0
    3.6836    7.2371    3.5446 H   0  0  0  0  0  0  0  0  0  0  0  0
    2.2404    7.7008    2.5809 H   0  0  0  0  0  0  0  0  0  0  0  0
    2.2492    7.9469    4.3602 H   0  0  0  0  0  0  0  0  0  0  0  0
  1  3  1  0  0  0  0
  1  7  1  0  0  0  0
  1  2  2  0  0  0  0
 37 38  1  0  0  0  0
 38 46  1  0  0  0  0
 38 39  2  0  0  0  0
  8  9  1  0  0  0  0
  9 17  1  0  0  0  0
  9 10  2  0  0  0  0
 18 19  1  0  0  0  0
 19 36  1  0  0  0  0
 19 20  2  0  0  0  0
 22 24  1  0  0  0  0
 37 40  1  0  0  0  0
  8 11  1  0  0  0  0
 21 23  1  0  0  0  0
 46 47  1  0  0  0  0
 21 22  1  0  0  0  0
 36 37  1  0  0  0  0
  7  8  1  0  0  0  0
 18 21  1  0  0  0  0
 17 18  1  0  0  0  0
  3  4  1  0  0  0  0
  3  5  1  0  0  0  0
  3  6  1  0  0  0  0
 24 33  1  0  0  0  0
 24 34  1  0  0  0  0
 24 35  1  0  0  0  0
 40 43  1  0  0  0  0
 40 44  1  0  0  0  0
 40 45  1  0  0  0  0
 11 14  1  0  0  0  0
 11 15  1  0  0  0  0
 11 16  1  0  0  0  0
 23 30  1  0  0  0  0
 23 31  1  0  0  0  0
 23 32  1  0  0  0  0
 47 49  1  0  0  0  0
 47 50  1  0  0  0  0
 47 51  1  0  0  0  0
 22 28  1  0  0  0  0
 22 29  1  0  0  0  0
 37 42  1  0  0  0  0
  8 13  1  0  0  0  0
 18 26  1  0  0  0  0
 21 27  1  0  0  0  0
 46 48  1  0  0  0  0
  7 12  1  0  0  0  0
 36 41  1  0  0  0  0
 17 25  1  0  0  0  0
M  END
$$$$

  -OEChem-05262214473D

 51 50  0     1  0  0  0  0  0999 V2000
    1.3524   -3.0009    1.4091 C   0  0  0  0  0  0  0  0  0  0  0  0
    1.8758   -1.9880    0.9598 O   0  0  0  0  0  0  0  0  0  0  0  0
    2.2030   -4.1782    1.7536 C   0  0  0  0  0  0  0  0  0  0  0  0
    2.3264   -4.8705    0.9053 H   0  0  0  0  0  0  0  0  0  0  0  0
    3.2257   -3.8876    2.0432 H   0  0  0  0  0  0  0  0  0  0  0  0
    1.8327   -4.8004    2.5839 H   0  0  0  0  0  0  0  0  0  0  0  0
    0.0005   -3.1873    1.6465 N   0  0  0  0  0  0  0  0  0  0  0  0
   -0.9949   -2.1807    1.3864 C   0  0  2  0  0  0  0  0  0  0  0  0
   -0.3083   -0.8216    1.4164 C   0  0  0  0  0  0  0  0  0  0  0  0
    0.7533   -0.6191    2.0022 O   0  0  0  0  0  0  0  0  0  0  0  0
   -2.1232   -2.2423    2.4042 C   0  0  0  0  0  0  0  0  0  0  0  0
   -0.3048   -4.0823    2.0245 H   0  0  0  0  0  0  0  0  0  0  0  0
   -1.3830   -2.3724    0.3801 H   0  0  0  0  0  0  0  0  0  0  0  0
   -1.7534   -2.0527    3.4185 H   0  0  0  0  0  0  0  0  0  0  0  0
   -2.8936   -1.4947    2.1882 H   0  0  0  0  0  0  0  0  0  0  0  0
   -2.5964   -3.2301    2.4022 H   0  0  0  0  0  0  0  0  0  0  0  0
   -1.0412    0.1517    0.7482 N   0  0  0  0  0  0  0  0  0  0  0  0
   -0.6079    1.5223    0.6467 C   0  0  2  0  0  0  0  0  0  0  0  0
    0.2153    1.8548    1.8905 C   0  0  0  0  0  0  0  0  0  0  0  0
    0.9000    1.0215    2.4805 O   0  0  0  0  0  0  0  0  0  0  0  0
   -1.7781    2.5117    0.4292 C   0  0  2  0  0  0  0  0  0  0  0  0
   -2.5176    2.2585   -0.9033 C   0  0  0  0  0  0  0  0  0  0  0  0
   -1.2736    3.9573    0.5307 C   0  0  0  0  0  0  0  0  0  0  0  0
   -3.8255    3.0296   -1.0277 C   0  0  0  0  0  0  0  0  0  0  0  0
   -1.9022   -0.1128    0.2753 H   0  0  0  0  0  0  0  0  0  0  0  0
    0.0718    1.5591   -0.2142 H   0  0  0  0  0  0  0  0  0  0  0  0
   -2.5001    2.3662    1.2439 H   0  0  0  0  0  0  0  0  0  0  0  0
   -1.8764    2.5550   -1.7413 H   0  0  0  0  0  0  0  0  0  0  0  0
   -2.7272    1.1894   -1.0271 H   0  0  0  0  0  0  0  0  0  0  0  0
   -0.5446    4.1714   -0.2583 H   0  0  0  0  0  0  0  0  0  0  0  0
   -2.0934    4.6723    0.4116 H   0  0  0  0  0  0  0  0  0  0  0  0
   -0.7952    4.1489    1.4967 H   0  0  0  0  0  0  0  0  0  0  0  0
   -4.5181    2.7814   -0.2185 H   0  0  0  0  0  0  0  0  0  0  0  0
   -4.3196    2.7781   -1.9720 H   0  0  0  0  0  0  0  0  0  0  0  0
   -3.6482    4.1095   -1.0163 H   0  0  0  0  0  0  0  0  0  0  0  0
    0.1192    3.1944    2.2394 N   0  0  0  0  0  0  0  0  0  0  0  0
    0.8168    3.7725    3.3654 C   0  0  2  0  0  0  0  0  0  0  0  0
    1.0364    5.2511    3.0739 C   0  0  0  0  0  0  0  0  0  0  0  0
    1.0391    5.7173    1.9365 O   0  0  0  0  0  0  0  0  0  0  0  0
    2.1394    3.0661    3.6189 C   0  0  0  0  0  0  0  0  0  0  0  0
   -0.4708    3.7988    1.6754 H   0  0  0  0  0  0  0  0  0  0  0  0
    0.1585    3.6648    4.2344 H   0  0  0  0  0  0  0  0  0  0  0  0
    2.8123    3.1630    2.7590 H   0  0  0  0  0  0  0  0  0  0  0  0
    2.6533    3.4865    4.4896 H   0  0  0  0  0  0  0  0  0  0  0  0
    1.9821    1.9971    3.7989 H   0  0  0  0  0  0  0  0  0  0  0  0
    1.2720    5.9816    4.2302 N   0  0  0  0  0  0  0  0  0  0  0  0
    1.5217    7.4041    4.2163 C   0  0  0  0  0  0  0  0  0  0  0  0
    1.2323    5.5161    5.1321 H   0  0  0  0  0  0  0  0  0  0  0  0
    2.6053    7.5862    4.1650 H   0  0  0  0  0  0  0  0  0  0  0  0
    1.0326    7.8536    3.3396 H   0  0  0  0  0  0  0  0  0  0  0  0
    1.1171    7.8562    5.1339 H   0  0  0  0  0  0  0  0  0  0  0  0
  1  3  1  0  0  0  0
  1  7  1  0  0  0  0
  1  2  2  0  0  0  0
 37 38  1  0  0  0  0
 38 46  1  0  0  0  0
 38 39  2  0  0  0  0
  8  9  1  0  0  0  0
  9 17  1  0  0  0  0
  9 10  2  0  0  0  0
 18 19  1  0  0  0  0
 19 36  1  0  0  0  0
 19 20  2  0  0  0  0
 22 24  1  0  0  0  0
 37 40  1  0  0  0  0
  8 11  1  0  0  0  0
 21 23  1  0  0  0  0
 46 47  1  0  0  0  0
 21 22  1  0  0  0  0
 36 37  1  0  0  0  0
  7  8  1  0  0  0  0
 18 21  1  0  0  0  0
 17 18  1  0  0  0  0
  3  4  1  0  0  0  0
  3  5  1  0  0  0  0
  3  6  1  0  0  0  0
 24 33  1  0  0  0  0
 24 34  1  0  0  0  0
 24 35  1  0  0  0  0
 40 43  1  0  0  0  0
 40 44  1  0  0  0  0
 40 45  1  0  0  0  0
 11 14  1  0  0  0  0
 11 15  1  0  0  0  0
 11 16  1  0  0  0  0
 23 30  1  0  0  0  0
 23 31  1  0  0  0  0
 23 32  1  0  0  0  0
 47 49  1  0  0  0  0
 47 50  1  0  0  0  0
 47 51  1  0  0  0  0
 22 28  1  0  0  0  0
 22 29  1  0  0  0  0
 37 42  1  0  0  0  0
  8 13  1  0  0  0  0
 18 26  1  0  0  0  0
 21 27  1  0  0  0  0
 46 48  1  0  0  0  0
  7 12  1  0  0  0  0
 36 41  1  0  0  0  0
 17 25  1  0  0  0  0
M  END
$$$$

  -OEChem-05262214473D

 51 50  0     1  0  0  0  0  0999 V2000
    1.3524   -3.0009    1.4091 C   0  0  0  0  0  0  0  0  0  0  0  0
    1.8758   -1.9880    0.9598 O   0  0  0  0  0  0  0  0  0  0  0  0
    2.2030   -4.1782    1.7536 C   0  0  0  0  0  0  0  0  0  0  0  0
    2.3264   -4.8705    0.9053 H   0  0  0  0  0  0  0  0  0  0  0  0
    3.2257   -3.8876    2.0432 H   0  0  0  0  0  0  0  0  0  0  0  0
    1.8327   -4.8004    2.5839 H   0  0  0  0  0  0  0  0  0  0  0  0
    0.0005   -3.1873    1.6465 N   0  0  0  0  0  0  0  0  0  0  0  0
   -0.9949   -2.1807    1.3864 C   0  0  2  0  0  0  0  0  0  0  0  0
   -0.3083   -0.8216    1.4164 C   0  0  0  0  0  0  0  0  0  0  0  0
    0.7533   -0.6191    2.0022 O   0  0  0  0  0  0  0  0  0  0  0  0
   -2.1232   -2.2423    2.4042 C   0  0  0  0  0  0  0  0  0  0  0  0
   -0.3048   -4.0823    2.0245 H   0  0  0  0  0  0  0  0  0  0  0  0
   -1.3830   -2.3724    0.3801 H   0  0  0  0  0  0  0  0  0  0  0  0
   -1.7534   -2.0527    3.4185 H   0  0  0  0  0  0  0  0  0  0  0  0
   -2.8936   -1.4947    2.1882 H   0  0  0  0  0  0  0  0  0  0  0  0
   -2.5964   -3.2301    2.4022 H   0  0  0  0  0  0  0  0  0  0  0  0
   -1.0412    0.1517    0.7482 N   0  0  0  0  0  0  0  0  0  0  0  0
   -0.6079    1.5223    0.6467 C   0  0  2  0  0  0  0  0  0  0  0  0
    0.2153    1.8548    1.8905 C   0  0  0  0  0  0  0  0  0  0  0  0
    1.0977    1.1168    2.3242 O   0  0  0  0  0  0  0  0  0  0  0  0
   -1.7781    2.5117    0.4292 C   0  0  2  0  0  0  0  0  0  0  0  0
   -2.5176    2.2585   -0.9033 C   0  0  0  0  0  0  0  0  0  0  0  0
   -1.2736    3.9573    0.5307 C   0  0  0  0  0  0  0  0  0  0  0  0
   -3.8255    3.0296   -1.0277 C   0  0  0  0  0  0  0  0  0  0  0  0
   -1.9022   -0.1128    0.2753 H   0  0  0  0  0  0  0  0  0  0  0  0
    0.0718    1.5591   -0.2142 H   0  0  0  0  0  0  0  0  0  0  0  0
   -2.5001    2.3662    1.2439 H   0  0  0  0  0  0  0  0  0  0  0  0
   -1.8764    2.5550   -1.7413 H   0  0  0  0  0  0  0  0  0  0  0  0
   -2.7272    1.1894   -1.0271 H   0  0  0  0  0  0  0  0  0  0  0  0
   -0.5446    4.1714   -0.2583 H   0  0  0  0  0  0  0  0  0  0  0  0
   -2.0934    4.6723    0.4116 H   0  0  0  0  0  0  0  0  0  0  0  0
   -0.7952    4.1489    1.4967 H   0  0  0  0  0  0  0  0  0  0  0  0
   -4.5181    2.7814   -0.2185 H   0  0  0  0  0  0  0  0  0  0  0  0
   -4.3196    2.7781   -1.9720 H   0  0  0  0  0  0  0  0  0  0  0  0
   -3.6482    4.1095   -1.0163 H   0  0  0  0  0  0  0  0  0  0  0  0
   -0.1304    3.0837    2.4343 N   0  0  0  0  0  0  0  0  0  0  0  0
    0.5110    3.6426    3.6025 C   0  0  2  0  0  0  0  0  0  0  0  0
    0.3990    5.1592    3.5203 C   0  0  0  0  0  0  0  0  0  0  0  0
    0.2243    5.7626    2.4637 O   0  0  0  0  0  0  0  0  0  0  0  0
    1.9658    3.2092    3.6956 C   0  0  0  0  0  0  0  0  0  0  0  0
   -0.8713    3.6171    1.9890 H   0  0  0  0  0  0  0  0  0  0  0  0
   -0.0472    3.2812    4.4731 H   0  0  0  0  0  0  0  0  0  0  0  0
    2.5410    3.5621    2.8319 H   0  0  0  0  0  0  0  0  0  0  0  0
    2.4424    3.6101    4.5962 H   0  0  0  0  0  0  0  0  0  0  0  0
    2.0460    2.1172    3.7246 H   0  0  0  0  0  0  0  0  0  0  0  0
    0.5603    5.7624    4.7598 N   0  0  0  0  0  0  0  0  0  0  0  0
    0.5090    7.1941    4.9427 C   0  0  0  0  0  0  0  0  0  0  0  0
    0.6820    5.1831    5.5853 H   0  0  0  0  0  0  0  0  0  0  0  0
    1.5251    7.6097    4.8737 H   0  0  0  0  0  0  0  0  0  0  0  0
   -0.1236    7.6410    4.1617 H   0  0  0  0  0  0  0  0  0  0  0  0
    0.0862    7.4223    5.9323 H   0  0  0  0  0  0  0  0  0  0  0  0
  1  3  1  0  0  0  0
  1  7  1  0  0  0  0
  1  2  2  0  0  0  0
 37 38  1  0  0  0  0
 38 46  1  0  0  0  0
 38 39  2  0  0  0  0
  8  9  1  0  0  0  0
  9 17  1  0  0  0  0
  9 10  2  0  0  0  0
 18 19  1  0  0  0  0
 19 36  1  0  0  0  0
 19 20  2  0  0  0  0
 22 24  1  0  0  0  0
 37 40  1  0  0  0  0
  8 11  1  0  0  0  0
 21 23  1  0  0  0  0
 46 47  1  0  0  0  0
 21 22  1  0  0  0  0
 36 37  1  0  0  0  0
  7  8  1  0  0  0  0
 18 21  1  0  0  0  0
 17 18  1  0  0  0  0
  3  4  1  0  0  0  0
  3  5  1  0  0  0  0
  3  6  1  0  0  0  0
 24 33  1  0  0  0  0
 24 34  1  0  0  0  0
 24 35  1  0  0  0  0
 40 43  1  0  0  0  0
 40 44  1  0  0  0  0
 40 45  1  0  0  0  0
 11 14  1  0  0  0  0
 11 15  1  0  0  0  0
 11 16  1  0  0  0  0
 23 30  1  0  0  0  0
 23 31  1  0  0  0  0
 23 32  1  0  0  0  0
 47 49  1  0  0  0  0
 47 50  1  0  0  0  0
 47 51  1  0  0  0  0
 22 28  1  0  0  0  0
 22 29  1  0  0  0  0
 37 42  1  0  0  0  0
  8 13  1  0  0  0  0
 18 26  1  0  0  0  0
 21 27  1  0  0  0  0
 46 48  1  0  0  0  0
  7 12  1  0  0  0  0
 36 41  1  0  0  0  0
 17 25  1  0  0  0  0
M  END
$$$$

  -OEChem-05262214473D

 51 50  0     1  0  0  0  0  0999 V2000
    1.3524   -3.0009    1.4091 C   0  0  0  0  0  0  0  0  0  0  0  0
    1.8758   -1.9880    0.9598 O   0  0  0  0  0  0  0  0  0  0  0  0
    2.2030   -4.1782    1.7536 C   0  0  0  0  0  0  0  0  0  0  0  0
    2.3264   -4.8705    0.9053 H   0  0  0  0  0  0  0  0  0  0  0  0
    3.2257   -3.8876    2.0432 H   0  0  0  0  0  0  0  0  0  0  0  0
    1.8327   -4.8004    2.5839 H   0  0  0  0  0  0  0  0  0  0  0  0
    0.0005   -3.1873    1.6465 N   0  0  0  0  0  0  0  0  0  0  0  0
   -0.9949   -2.1807    1.3864 C   0  0  2  0  0  0  0  0  0  0  0  0
   -0.3083   -0.8216    1.4164 C   0  0  0  0  0  0  0  0  0  0  0  0
    0.7533   -0.6191    2.0022 O   0  0  0  0  0  0  0  0  0  0  0  0
   -2.1232   -2.2423    2.4042 C   0  0  0  0  0  0  0  0  0  0  0  0
   -0.3048   -4.0823    2.0245 H   0  0  0  0  0  0  0  0  0  0  0  0
   -1.3830   -2.3724    0.3801 H   0  0  0  0  0  0  0  0  0  0  0  0
   -1.7534   -2.0527    3.4185 H   0  0  0  0  0  0  0  0  0  0  0  0
   -2.8936   -1.4947    2.1882 H   0  0  0  0  0  0  0  0  0  0  0  0
   -2.5964   -3.2301    2.4022 H   0  0  0  0  0  0  0  0  0  0  0  0
   -1.0412    0.1517    0.7482 N   0  0  0  0  0  0  0  0  0  0  0  0
   -0.6079    1.5223    0.6467 C   0  0  2  0  0  0  0  0  0  0  0  0
    0.2153    1.8548    1.8905 C   0  0  0  0  0  0  0  0  0  0  0  0
    1.2598    1.2723    2.1753 O   0  0  0  0  0  0  0  0  0  0  0  0
   -1.7781    2.5117    0.4292 C   0  0  2  0  0  0  0  0  0  0  0  0
   -2.5176    2.2585   -0.9033 C   0  0  0  0  0  0  0  0  0  0  0  0
   -1.2736    3.9573    0.5307 C   0  0  0  0  0  0  0  0  0  0  0  0
   -3.8255    3.0296   -1.0277 C   0  0  0  0  0  0  0  0  0  0  0  0
   -1.9022   -0.1128    0.2753 H   0  0  0  0  0  0  0  0  0  0  0  0
    0.0718    1.5591   -0.2142 H   0  0  0  0  0  0  0  0  0  0  0  0
   -2.5001    2.3662    1.2439 H   0  0  0  0  0  0  0  0  0  0  0  0
   -1.8764    2.5550   -1.7413 H   0  0  0  0  0  0  0  0  0  0  0  0
   -2.7272    1.1894   -1.0271 H   0  0  0  0  0  0  0  0  0  0  0  0
   -0.5446    4.1714   -0.2583 H   0  0  0  0  0  0  0  0  0  0  0  0
   -2.0934    4.6723    0.4116 H   0  0  0  0  0  0  0  0  0  0  0  0
   -0.7952    4.1489    1.4967 H   0  0  0  0  0  0  0  0  0  0  0  0
   -4.5181    2.7814   -0.2185 H   0  0  0  0  0  0  0  0  0  0  0  0
   -4.3196    2.7781   -1.9720 H   0  0  0  0  0  0  0  0  0  0  0  0
   -3.6482    4.1095   -1.0163 H   0  0  0  0  0  0  0  0  0  0  0  0
   -0.3373    2.8971    2.6211 N   0  0  0  0  0  0  0  0  0  0  0  0
    0.2564    3.4196    3.8307 C   0  0  2  0  0  0  0  0  0  0  0  0
   -0.1721    4.8739    3.9747 C   0  0  0  0  0  0  0  0  0  0  0  0
   -0.5427    5.5612    3.0252 O   0  0  0  0  0  0  0  0  0  0  0  0
    1.7722    3.3002    3.7994 C   0  0  0  0  0  0  0  0  0  0  0  0
   -1.2022    3.3135    2.2892 H   0  0  0  0  0  0  0  0  0  0  0  0
   -0.1516    2.8340    4.6617 H   0  0  0  0  0  0  0  0  0  0  0  0
    2.1990    3.8803    2.9732 H   0  0  0  0  0  0  0  0  0  0  0  0
    2.2186    3.6702    4.7283 H   0  0  0  0  0  0  0  0  0  0  0  0
    2.0782    2.2569    3.6659 H   0  0  0  0  0  0  0  0  0  0  0  0
   -0.0511    5.3268    5.2810 N   0  0  0  0  0  0  0  0  0  0  0  0
   -0.3840    6.6767    5.6722 C   0  0  0  0  0  0  0  0  0  0  0  0
    0.2462    4.6824    6.0077 H   0  0  0  0  0  0  0  0  0  0  0  0
    0.5168    7.3061    5.6223 H   0  0  0  0  0  0  0  0  0  0  0  0
   -1.1494    7.0774    4.9913 H   0  0  0  0  0  0  0  0  0  0  0  0
   -0.7733    6.6747    6.7010 H   0  0  0  0  0  0  0  0  0  0  0  0
  1  3  1  0  0  0  0
  1  7  1  0  0  0  0
  1  2  2  0  0  0  0
 37 38  1  0  0  0  0
 38 46  1  0  0  0  0
 38 39  2  0  0  0  0
  8  9  1  0  0  0  0
  9 17  1  0  0  0  0
  9 10  2  0  0  0  0
 18 19  1  0  0  0  0
 19 36  1  0  0  0  0
 19 20  2  0  0  0  0
 22 24  1  0  0  0  0
 37 40  1  0  0  0  0
  8 11  1  0  0  0  0
 21 23  1  0  0  0  0
 46 47  1  0  0  0  0
 21 22  1  0  0  0  0
 36 37  1  0  0  0  0
  7  8  1  0  0  0  0
 18 21  1  0  0  0  0
 17 18  1  0  0  0  0
  3  4  1  0  0  0  0
  3  5  1  0  0  0  0
  3  6  1  0  0  0  0
 24 33  1  0  0  0  0
 24 34  1  0  0  0  0
 24 35  1  0  0  0  0
 40 43  1  0  0  0  0
 40 44  1  0  0  0  0
 40 45  1  0  0  0  0
 11 14  1  0  0  0  0
 11 15  1  0  0  0  0
 11 16  1  0  0  0  0
 23 30  1  0  0  0  0
 23 31  1  0  0  0  0
 23 32  1  0  0  0  0
 47 49  1  0  0  0  0
 47 50  1  0  0  0  0
 47 51  1  0  0  0  0
 22 28  1  0  0  0  0
 22 29  1  0  0  0  0
 37 42  1  0  0  0  0
  8 13  1  0  0  0  0
 18 26  1  0  0  0  0
 21 27  1  0  0  0  0
 46 48  1  0  0  0  0
  7 12  1  0  0  0  0
 36 41  1  0  0  0  0
 17 25  1  0  0  0  0
M  END
$$$$

  -OEChem-05262214473D

 51 50  0     1  0  0  0  0  0999 V2000
    1.3524   -3.0009    1.4091 C   0  0  0  0  0  0  0  0  0  0  0  0
    1.8758   -1.9880    0.9598 O   0  0  0  0  0  0  0  0  0  0  0  0
    2.2030   -4.1782    1.7536 C   0  0  0  0  0  0  0  0  0  0  0  0
    2.3264   -4.8705    0.9053 H   0  0  0  0  0  0  0  0  0  0  0  0
    3.2257   -3.8876    2.0432 H   0  0  0  0  0  0  0  0  0  0  0  0
    1.8327   -4.8004    2.5839 H   0  0  0  0  0  0  0  0  0  0  0  0
    0.0005   -3.1873    1.6465 N   0  0  0  0  0  0  0  0  0  0  0  0
   -0.9949   -2.1807    1.3864 C   0  0  2  0  0  0  0  0  0  0  0  0
   -0.3083   -0.8216    1.4164 C   0  0  0  0  0  0  0  0  0  0  0  0
    0.7533   -0.6191    2.0022 O   0  0  0  0  0  0  0  0  0  0  0  0
   -2.1232   -2.2423    2.4042 C   0  0  0  0  0  0  0  0  0  0  0  0
   -0.3048   -4.0823    2.0245 H   0  0  0  0  0  0  0  0  0  0  0  0
   -1.3830   -2.3724    0.3801 H   0  0  0  0  0  0  0  0  0  0  0  0
   -1.7534   -2.0527    3.4185 H   0  0  0  0  0  0  0  0  0  0  0  0
   -2.8936   -1.4947    2.1882 H   0  0  0  0  0  0  0  0  0  0  0  0
   -2.5964   -3.2301    2.4022 H   0  0  0  0  0  0  0  0  0  0  0  0
   -1.0412    0.1517    0.7482 N   0  0  0  0  0  0  0  0  0  0  0  0
   -0.6079    1.5223    0.6467 C   0  0  2  0  0  0  0  0  0  0  0  0
    0.2153    1.8548    1.8905 C   0  0  0  0  0  0  0  0  0  0  0  0
    1.3752    1.4774    2.0441 O   0  0  0  0  0  0  0  0  0  0  0  0
   -1.7781    2.5117    0.4292 C   0  0  2  0  0  0  0  0  0  0  0  0
   -2.5176    2.2585   -0.9033 C   0  0  0  0  0  0  0  0  0  0  0  0
   -1.2736    3.9573    0.5307 C   0  0  0  0  0  0  0  0  0  0  0  0
   -3.8255    3.0296   -1.0277 C   0  0  0  0  0  0  0  0  0  0  0  0
   -1.9022   -0.1128    0.2753 H   0  0  0  0  0  0  0  0  0  0  0  0
    0.0718    1.5591   -0.2142 H   0  0  0  0  0  0  0  0  0  0  0  0
   -2.5001    2.3662    1.2439 H   0  0  0  0  0  0  0  0  0  0  0  0
   -1.8764    2.5550   -1.7413 H   0  0  0  0  0  0  0  0  0  0  0  0
   -2.7272    1.1894   -1.0271 H   0  0  0  0  0  0  0  0  0  0  0  0
   -0.5446    4.1714   -0.2583 H   0  0  0  0  0  0  0  0  0  0  0  0
   -2.0934    4.6723    0.4116 H   0  0  0  0  0  0  0  0  0  0  0  0
   -0.7952    4.1489    1.4967 H   0  0  0  0  0  0  0  0  0  0  0  0
   -4.5181    2.7814   -0.2185 H   0  0  0  0  0  0  0  0  0  0  0  0
   -4.3196    2.7781   -1.9720 H   0  0  0  0  0  0  0  0  0  0  0  0
   -3.6482    4.1095   -1.0163 H   0  0  0  0  0  0  0  0  0  0  0  0
   -0.4872    2.6472    2.7872 N   0  0  0  0  0  0  0  0  0  0  0  0
    0.0703    3.1188    4.0343 C   0  0  2  0  0  0  0  0  0  0  0  0
   -0.6382    4.4147    4.4059 C   0  0  0  0  0  0  0  0  0  0  0  0
   -1.2094    5.1268    3.5827 O   0  0  0  0  0  0  0  0  0  0  0  0
    1.5718    3.3328    3.9233 C   0  0  0  0  0  0  0  0  0  0  0  0
   -1.4409    2.9087    2.5555 H   0  0  0  0  0  0  0  0  0  0  0  0
   -0.1476    2.3538    4.7875 H   0  0  0  0  0  0  0  0  0  0  0  0
    1.8096    4.0959    3.1733 H   0  0  0  0  0  0  0  0  0  0  0  0
    1.9972    3.6627    4.8768 H   0  0  0  0  0  0  0  0  0  0  0  0
    2.0766    2.4069    3.6269 H   0  0  0  0  0  0  0  0  0  0  0  0
   -0.5206    4.7046    5.7581 N   0  0  0  0  0  0  0  0  0  0  0  0
   -1.0965    5.8870    6.3549 C   0  0  0  0  0  0  0  0  0  0  0  0
   -0.0455    4.0480    6.3704 H   0  0  0  0  0  0  0  0  0  0  0  0
   -0.3512    6.6960    6.3599 H   0  0  0  0  0  0  0  0  0  0  0  0
   -1.9747    6.2013    5.7718 H   0  0  0  0  0  0  0  0  0  0  0  0
   -1.4026    5.6643    7.3877 H   0  0  0  0  0  0  0  0  0  0  0  0
  1  3  1  0  0  0  0
  1  7  1  0  0  0  0
  1  2  2  0  0  0  0
 37 38  1  0  0  0  0
 38 46  1  0  0  0  0
 38 39  2  0  0  0  0
  8  9  1  0  0  0  0
  9 17  1  0  0  0  0
  9 10  2  0  0  0  0
 18 19  1  0  0  0  0
 19 36  1  0  0  0  0
 19 20  2  0  0  0  0
 22 24  1  0  0  0  0
 37 40  1  0  0  0  0
  8 11  1  0  0  0  0
 21 23  1  0  0  0  0
 46 47  1  0  0  0  0
 21 22  1  0  0  0  0
 36 37  1  0  0  0  0
  7  8  1  0  0  0  0
 18 21  1  0  0  0  0
 17 18  1  0  0  0  0
  3  4  1  0  0  0  0
  3  5  1  0  0  0  0
  3  6  1  0  0  0  0
 24 33  1  0  0  0  0
 24 34  1  0  0  0  0
 24 35  1  0  0  0  0
 40 43  1  0  0  0  0
 40 44  1  0  0  0  0
 40 45  1  0  0  0  0
 11 14  1  0  0  0  0
 11 15  1  0  0  0  0
 11 16  1  0  0  0  0
 23 30  1  0  0  0  0
 23 31  1  0  0  0  0
 23 32  1  0  0  0  0
 47 49  1  0  0  0  0
 47 50  1  0  0  0  0
 47 51  1  0  0  0  0
 22 28  1  0  0  0  0
 22 29  1  0  0  0  0
 37 42  1  0  0  0  0
  8 13  1  0  0  0  0
 18 26  1  0  0  0  0
 21 27  1  0  0  0  0
 46 48  1  0  0  0  0
  7 12  1  0  0  0  0
 36 41  1  0  0  0  0
 17 25  1  0  0  0  0
M  END
$$$$

  -OEChem-05262214473D

 51 50  0     1  0  0  0  0  0999 V2000
    1.3524   -3.0009    1.4091 C   0  0  0  0  0  0  0  0  0  0  0  0
    1.8758   -1.9880    0.9598 O   0  0  0  0  0  0  0  0  0  0  0  0
    2.2030   -4.1782    1.7536 C   0  0  0  0  0  0  0  0  0  0  0  0
    2.3264   -4.8705    0.9053 H   0  0  0  0  0  0  0  0  0  0  0  0
    3.2257   -3.8876    2.0432 H   0  0  0  0  0  0  0  0  0  0  0  0
    1.8327   -4.8004    2.5839 H   0  0  0  0  0  0  0  0  0  0  0  0
    0.0005   -3.1873    1.6465 N   0  0  0  0  0  0  0  0  0  0  0  0
   -0.9949   -2.1807    1.3864 C   0  0  2  0  0  0  0  0  0  0  0  0
   -0.3083   -0.8216    1.4164 C   0  0  0  0  0  0  0  0  0  0  0  0
    0.7533   -0.6191    2.0022 O   0  0  0  0  0  0  0  0  0  0  0  0
   -2.1232   -2.2423    2.4042 C   0  0  0  0  0  0  0  0  0  0  0  0
   -0.3048   -4.0823    2.0245 H   0  0  0  0  0  0  0  0  0  0  0  0
   -1.3830   -2.3724    0.3801 H   0  0  0  0  0  0  0  0  0  0  0  0
   -1.7534   -2.0527    3.4185 H   0  0  0  0  0  0  0  0  0  0  0  0
   -2.8936   -1.4947    2.1882 H   0  0  0  0  0  0  0  0  0  0  0  0
   -2.5964   -3.2301    2.4022 H   0  0  0  0  0  0  0  0  0  0  0  0
   -1.0412    0.1517    0.7482 N   0  0  0  0  0  0  0  0  0  0  0  0
   -0.6079    1.5223    0.6467 C   0  0  2  0  0  0  0  0  0  0  0  0
    0.2153    1.8548    1.8905 C   0  0  0  0  0  0  0  0  0  0  0  0
    1.4361    1.7181    1.9394 O   0  0  0  0  0  0  0  0  0  0  0  0
   -1.7781    2.5117    0.4292 C   0  0  2  0  0  0  0  0  0  0  0  0
   -2.5176    2.2585   -0.9033 C   0  0  0  0  0  0  0  0  0  0  0  0
   -1.2736    3.9573    0.5307 C   0  0  0  0  0  0  0  0  0  0  0  0
   -3.8255    3.0296   -1.0277 C   0  0  0  0  0  0  0  0  0  0  0  0
   -1.9022   -0.1128    0.2753 H   0  0  0  0  0  0  0  0  0  0  0  0
    0.0718    1.5591   -0.2142 H   0  0  0  0  0  0  0  0  0  0  0  0
   -2.5001    2.3662    1.2439 H   0  0  0  0  0  0  0  0  0  0  0  0
   -1.8764    2.5550   -1.7413 H   0  0  0  0  0  0  0  0  0  0  0  0
   -2.7272    1.1894   -1.0271 H   0  0  0  0  0  0  0  0  0  0  0  0
   -0.5446    4.1714   -0.2583 H   0  0  0  0  0  0  0  0  0  0  0  0
   -2.0934    4.6723    0.4116 H   0  0  0  0  0  0  0  0  0  0  0  0
   -0.7952    4.1489    1.4967 H   0  0  0  0  0  0  0  0  0  0  0  0
   -4.5181    2.7814   -0.2185 H   0  0  0  0  0  0  0  0  0  0  0  0
   -4.3196    2.7781   -1.9720 H   0  0  0  0  0  0  0  0  0  0  0  0
   -3.6482    4.1095   -1.0163 H   0  0  0  0  0  0  0  0  0  0  0  0
   -0.5701    2.3510    2.9212 N   0  0  0  0  0  0  0  0  0  0  0  0
   -0.0346    2.7607    4.1995 C   0  0  2  0  0  0  0  0  0  0  0  0
   -0.9673    3.8129    4.7847 C   0  0  0  0  0  0  0  0  0  0  0  0
   -1.7306    4.4891    4.0981 O   0  0  0  0  0  0  0  0  0  0  0  0
    1.3785    3.3048    4.0588 C   0  0  0  0  0  0  0  0  0  0  0  0
   -1.5713    2.4303    2.7697 H   0  0  0  0  0  0  0  0  0  0  0  0
   -0.0355    1.8733    4.8418 H   0  0  0  0  0  0  0  0  0  0  0  0
    1.3993    4.1943    3.4186 H   0  0  0  0  0  0  0  0  0  0  0  0
    1.7933    3.5881    5.0317 H   0  0  0  0  0  0  0  0  0  0  0  0
    2.0412    2.5568    3.6102 H   0  0  0  0  0  0  0  0  0  0  0  0
   -0.8161    3.9382    6.1586 N   0  0  0  0  0  0  0  0  0  0  0  0
   -1.5799    4.8790    6.9444 C   0  0  0  0  0  0  0  0  0  0  0  0
   -0.1732    3.3232    6.6487 H   0  0  0  0  0  0  0  0  0  0  0  0
   -1.0194    5.8210    7.0362 H   0  0  0  0  0  0  0  0  0  0  0  0
   -2.5434    5.0724    6.4501 H   0  0  0  0  0  0  0  0  0  0  0  0
   -1.7591    4.4600    7.9456 H   0  0  0  0  0  0  0  0  0  0  0  0
  1  3  1  0  0  0  0
  1  7  1  0  0  0  0
  1  2  2  0  0  0  0
 37 38  1  0  0  0  0
 38 46  1  0  0  0  0
 38 39  2  0  0  0  0
  8  9  1  0  0  0  0
  9 17  1  0  0  0  0
  9 10  2  0  0  0  0
 18 19  1  0  0  0  0
 19 36  1  0  0  0  0
 19 20  2  0  0  0  0
 22 24  1  0  0  0  0
 37 40  1  0  0  0  0
  8 11  1  0  0  0  0
 21 23  1  0  0  0  0
 46 47  1  0  0  0  0
 21 22  1  0  0  0  0
 36 37  1  0  0  0  0
  7  8  1  0  0  0  0
 18 21  1  0  0  0  0
 17 18  1  0  0  0  0
  3  4  1  0  0  0  0
  3  5  1  0  0  0  0
  3  6  1  0  0  0  0
 24 33  1  0  0  0  0
 24 34  1  0  0  0  0
 24 35  1  0  0  0  0
 40 43  1  0  0  0  0
 40 44  1  0  0  0  0
 40 45  1  0  0  0  0
 11 14  1  0  0  0  0
 11 15  1  0  0  0  0
 11 16  1  0  0  0  0
 23 30  1  0  0  0  0
 23 31  1  0  0  0  0
 23 32  1  0  0  0  0
 47 49  1  0  0  0  0
 47 50  1  0  0  0  0
 47 51  1  0  0  0  0
 22 28  1  0  0  0  0
 22 29  1  0  0  0  0
 37 42  1  0  0  0  0
  8 13  1  0  0  0  0
 18 26  1  0  0  0  0
 21 27  1  0  0  0  0
 46 48  1  0  0  0  0
  7 12  1  0  0  0  0
 36 41  1  0  0  0  0
 17 25  1  0  0  0  0
M  END
$$$$

  -OEChem-05262214473D

 51 50  0     1  0  0  0  0  0999 V2000
    1.3524   -3.0009    1.4091 C   0  0  0  0  0  0  0  0  0  0  0  0
    1.8758   -1.9880    0.9598 O   0  0  0  0  0  0  0  0  0  0  0  0
    2.2030   -4.1782    1.7536 C   0  0  0  0  0  0  0  0  0  0  0  0
    2.3264   -4.8705    0.9053 H   0  0  0  0  0  0  0  0  0  0  0  0
    3.2257   -3.8876    2.0432 H   0  0  0  0  0  0  0  0  0  0  0  0
    1.8327   -4.8004    2.5839 H   0  0  0  0  0  0  0  0  0  0  0  0
    0.0005   -3.1873    1.6465 N   0  0  0  0  0  0  0  0  0  0  0  0
   -0.9949   -2.1807    1.3864 C   0  0  2  0  0  0  0  0  0  0  0  0
   -0.3083   -0.8216    1.4164 C   0  0  0  0  0  0  0  0  0  0  0  0
    0.7533   -0.6191    2.0022 O   0  0  0  0  0  0  0  0  0  0  0  0
   -2.1232   -2.2423    2.4042 C   0  0  0  0  0  0  0  0  0  0  0  0
   -0.3048   -4.0823    2.0245 H   0  0  0  0  0  0  0  0  0  0  0  0
   -1.3830   -2.3724    0.3801 H   0  0  0  0  0  0  0  0  0  0  0  0
   -1.7534   -2.0527    3.4185 H   0  0  0  0  0  0  0  0  0  0  0  0
   -2.8936   -1.4947    2.1882 H   0  0  0  0  0  0  0  0  0  0  0  0
   -2.5964   -3.2301    2.4022 H   0  0  0  0  0  0  0  0  0  0  0  0
   -1.0412    0.1517    0.7482 N   0  0  0  0  0  0  0  0  0  0  0  0
   -0.6079    1.5223    0.6467 C   0  0  2  0  0  0  0  0  0  0  0  0
    0.2153    1.8548    1.8905 C   0  0  0  0  0  0  0  0  0  0  0  0
    1.4383    1.9781    1.8684 O   0  0  0  0  0  0  0  0  0  0  0  0
   -1.7781    2.5117    0.4292 C   0  0  2  0  0  0  0  0  0  0  0  0
   -2.5176    2.2585   -0.9033 C   0  0  0  0  0  0  0  0  0  0  0  0
   -1.2736    3.9573    0.5307 C   0  0  0  0  0  0  0  0  0  0  0  0
   -3.8255    3.0296   -1.0277 C   0  0  0  0  0  0  0  0  0  0  0  0
   -1.9022   -0.1128    0.2753 H   0  0  0  0  0  0  0  0  0  0  0  0
    0.0718    1.5591   -0.2142 H   0  0  0  0  0  0  0  0  0  0  0  0
   -2.5001    2.3662    1.2439 H   0  0  0  0  0  0  0  0  0  0  0  0
   -1.8764    2.5550   -1.7413 H   0  0  0  0  0  0  0  0  0  0  0  0
   -2.7272    1.1894   -1.0271 H   0  0  0  0  0  0  0  0  0  0  0  0
   -0.5446    4.1714   -0.2583 H   0  0  0  0  0  0  0  0  0  0  0  0
   -2.0934    4.6723    0.4116 H   0  0  0  0  0  0  0  0  0  0  0  0
   -0.7952    4.1489    1.4967 H   0  0  0  0  0  0  0  0  0  0  0  0
   -4.5181    2.7814   -0.2185 H   0  0  0  0  0  0  0  0  0  0  0  0
   -4.3196    2.7781   -1.9720 H   0  0  0  0  0  0  0  0  0  0  0  0
   -3.6482    4.1095   -1.0163 H   0  0  0  0  0  0  0  0  0  0  0  0
   -0.5802    2.0288    3.0140 N   0  0  0  0  0  0  0  0  0  0  0  0
   -0.0513    2.3696    4.3150 C   0  0  2  0  0  0  0  0  0  0  0  0
   -1.1371    3.1094    5.0851 C   0  0  0  0  0  0  0  0  0  0  0  0
   -2.0706    3.6914    4.5365 O   0  0  0  0  0  0  0  0  0  0  0  0
    1.2052    3.2181    4.1966 C   0  0  0  0  0  0  0  0  0  0  0  0
   -1.5844    1.9108    2.9172 H   0  0  0  0  0  0  0  0  0  0  0  0
    0.1771    1.4251    4.8209 H   0  0  0  0  0  0  0  0  0  0  0  0
    0.9961    4.1686    3.6923 H   0  0  0  0  0  0  0  0  0  0  0  0
    1.6208    3.4515    5.1825 H   0  0  0  0  0  0  0  0  0  0  0  0
    1.9745    2.6966    3.6170 H   0  0  0  0  0  0  0  0  0  0  0  0
   -0.9176    3.0798    6.4552 N   0  0  0  0  0  0  0  0  0  0  0  0
   -1.8013    3.7213    7.4004 C   0  0  0  0  0  0  0  0  0  0  0  0
   -0.1282    2.5574    6.8236 H   0  0  0  0  0  0  0  0  0  0  0  0
   -1.4426    4.7408    7.6050 H   0  0  0  0  0  0  0  0  0  0  0  0
   -2.8167    3.7675    6.9798 H   0  0  0  0  0  0  0  0  0  0  0  0
   -1.8182    3.1439    8.3366 H   0  0  0  0  0  0  0  0  0  0  0  0
  1  3  1  0  0  0  0
  1  7  1  0  0  0  0
  1  2  2  0  0  0  0
 37 38  1  0  0  0  0
 38 46  1  0  0  0  0
 38 39  2  0  0  0  0
  8  9  1  0  0  0  0
  9 17  1  0  0  0  0
  9 10  2  0  0  0  0
 18 19  1  0  0  0  0
 19 36  1  0  0  0  0
 19 20  2  0  0  0  0
 22 24  1  0  0  0  0
 37 40  1  0  0  0  0
  8 11  1  0  0  0  0
 21 23  1  0  0  0  0
 46 47  1  0  0  0  0
 21 22  1  0  0  0  0
 36 37  1  0  0  0  0
  7  8  1  0  0  0  0
 18 21  1  0  0  0  0
 17 18  1  0  0  0  0
  3  4  1  0  0  0  0
  3  5  1  0  0  0  0
  3  6  1  0  0  0  0
 24 33  1  0  0  0  0
 24 34  1  0  0  0  0
 24 35  1  0  0  0  0
 40 43  1  0  0  0  0
 40 44  1  0  0  0  0
 40 45  1  0  0  0  0
 11 14  1  0  0  0  0
 11 15  1  0  0  0  0
 11 16  1  0  0  0  0
 23 30  1  0  0  0  0
 23 31  1  0  0  0  0
 23 32  1  0  0  0  0
 47 49  1  0  0  0  0
 47 50  1  0  0  0  0
 47 51  1  0  0  0  0
 22 28  1  0  0  0  0
 22 29  1  0  0  0  0
 37 42  1  0  0  0  0
  8 13  1  0  0  0  0
 18 26  1  0  0  0  0
 21 27  1  0  0  0  0
 46 48  1  0  0  0  0
  7 12  1  0  0  0  0
 36 41  1  0  0  0  0
 17 25  1  0  0  0  0
M  END
$$$$

  -OEChem-05262214473D

 51 50  0     1  0  0  0  0  0999 V2000
    1.3524   -3.0009    1.4091 C   0  0  0  0  0  0  0  0  0  0  0  0
    1.8758   -1.9880    0.9598 O   0  0  0  0  0  0  0  0  0  0  0  0
    2.2030   -4.1782    1.7536 C   0  0  0  0  0  0  0  0  0  0  0  0
    2.3264   -4.8705    0.9053 H   0  0  0  0  0  0  0  0  0  0  0  0
    3.2257   -3.8876    2.0432 H   0  0  0  0  0  0  0  0  0  0  0  0
    1.8327   -4.8004    2.5839 H   0  0  0  0  0  0  0  0  0  0  0  0
    0.0005   -3.1873    1.6465 N   0  0  0  0  0  0  0  0  0  0  0  0
   -0.9949   -2.1807    1.3864 C   0  0  2  0  0  0  0  0  0  0  0  0
   -0.3083   -0.8216    1.4164 C   0  0  0  0  0  0  0  0  0  0  0  0
    0.7533   -0.6191    2.0022 O   0  0  0  0  0  0  0  0  0  0  0  0
   -2.1232   -2.2423    2.4042 C   0  0  0  0  0  0  0  0  0  0  0  0
   -0.3048   -4.0823    2.0245 H   0  0  0  0  0  0  0  0  0  0  0  0
   -1.3830   -2.3724    0.3801 H   0  0  0  0  0  0  0  0  0  0  0  0
   -1.7534   -2.0527    3.4185 H   0  0  0  0  0  0  0  0  0  0  0  0
   -2.8936   -1.4947    2.1882 H   0  0  0  0  0  0  0  0  0  0  0  0
   -2.5964   -3.2301    2.4022 H   0  0  0  0  0  0  0  0  0  0  0  0
   -1.0412    0.1517    0.7482 N   0  0  0  0  0  0  0  0  0  0  0  0
   -0.6079    1.5223    0.6467 C   0  0  2  0  0  0  0  0  0  0  0  0
    0.2153    1.8548    1.8905 C   0  0  0  0  0  0  0  0  0  0  0  0
    1.3817    2.2395    1.8360 O   0  0  0  0  0  0  0  0  0  0  0  0
   -1.7781    2.5117    0.4292 C   0  0  2  0  0  0  0  0  0  0  0  0
   -2.5176    2.2585   -0.9033 C   0  0  0  0  0  0  0  0  0  0  0  0
   -1.2736    3.9573    0.5307 C   0  0  0  0  0  0  0  0  0  0  0  0
   -3.8255    3.0296   -1.0277 C   0  0  0  0  0  0  0  0  0  0  0  0
   -1.9022   -0.1128    0.2753 H   0  0  0  0  0  0  0  0  0  0  0  0
    0.0718    1.5591   -0.2142 H   0  0  0  0  0  0  0  0  0  0  0  0
   -2.5001    2.3662    1.2439 H   0  0  0  0  0  0  0  0  0  0  0  0
   -1.8764    2.5550   -1.7413 H   0  0  0  0  0  0  0  0  0  0  0  0
   -2.7272    1.1894   -1.0271 H   0  0  0  0  0  0  0  0  0  0  0  0
   -0.5446    4.1714   -0.2583 H   0  0  0  0  0  0  0  0  0  0  0  0
   -2.0934    4.6723    0.4116 H   0  0  0  0  0  0  0  0  0  0  0  0
   -0.7952    4.1489    1.4967 H   0  0  0  0  0  0  0  0  0  0  0  0
   -4.5181    2.7814   -0.2185 H   0  0  0  0  0  0  0  0  0  0  0  0
   -4.3196    2.7781   -1.9720 H   0  0  0  0  0  0  0  0  0  0  0  0
   -3.6482    4.1095   -1.0163 H   0  0  0  0  0  0  0  0  0  0  0  0
   -0.5169    1.7026    3.0593 N   0  0  0  0  0  0  0  0  0  0  0  0
    0.0216    1.9722    4.3731 C   0  0  2  0  0  0  0  0  0  0  0  0
   -1.1360    2.3522    5.2869 C   0  0  0  0  0  0  0  0  0  0  0  0
   -2.2063    2.7881    4.8678 O   0  0  0  0  0  0  0  0  0  0  0  0
    1.0639    3.0787    4.3274 C   0  0  0  0  0  0  0  0  0  0  0  0
   -1.4793    1.3858    2.9880 H   0  0  0  0  0  0  0  0  0  0  0  0
    0.4756    1.0399    4.7263 H   0  0  0  0  0  0  0  0  0  0  0  0
    0.6275    4.0207    3.9759 H   0  0  0  0  0  0  0  0  0  0  0  0
    1.4914    3.2622    5.3187 H   0  0  0  0  0  0  0  0  0  0  0  0
    1.8810    2.8165    3.6468 H   0  0  0  0  0  0  0  0  0  0  0  0
   -0.8181    2.1879    6.6278 N   0  0  0  0  0  0  0  0  0  0  0  0
   -1.7457    2.4928    7.6920 C   0  0  0  0  0  0  0  0  0  0  0  0
    0.0864    1.8028    6.8833 H   0  0  0  0  0  0  0  0  0  0  0  0
   -1.5917    3.5290    8.0277 H   0  0  0  0  0  0  0  0  0  0  0  0
   -2.7760    2.3757    7.3250 H   0  0  0  0  0  0  0  0  0  0  0  0
   -1.5761    1.8057    8.5341 H   0  0  0  0  0  0  0  0  0  0  0  0
  1  3  1  0  0  0  0
  1  7  1  0  0  0  0
  1  2  2  0  0  0  0
 37 38  1  0  0  0  0
 38 46  1  0  0  0  0
 38 39  2  0  0  0  0
  8  9  1  0  0  0  0
  9 17  1  0  0  0  0
  9 10  2  0  0  0  0
 18 19  1  0  0  0  0
 19 36  1  0  0  0  0
 19 20  2  0  0  0  0
 22 24  1  0  0  0  0
 37 40  1  0  0  0  0
  8 11  1  0  0  0  0
 21 23  1  0  0  0  0
 46 47  1  0  0  0  0
 21 22  1  0  0  0  0
 36 37  1  0  0  0  0
  7  8  1  0  0  0  0
 18 21  1  0  0  0  0
 17 18  1  0  0  0  0
  3  4  1  0  0  0  0
  3  5  1  0  0  0  0
  3  6  1  0  0  0  0
 24 33  1  0  0  0  0
 24 34  1  0  0  0  0
 24 35  1  0  0  0  0
 40 43  1  0  0  0  0
 40 44  1  0  0  0  0
 40 45  1  0  0  0  0
 11 14  1  0  0  0  0
 11 15  1  0  0  0  0
 11 16  1  0  0  0  0
 23 30  1  0  0  0  0
 23 31  1  0  0  0  0
 23 32  1  0  0  0  0
 47 49  1  0  0  0  0
 47 50  1  0  0  0  0
 47 51  1  0  0  0  0
 22 28  1  0  0  0  0
 22 29  1  0  0  0  0
 37 42  1  0  0  0  0
  8 13  1  0  0  0  0
 18 26  1  0  0  0  0
 21 27  1  0  0  0  0
 46 48  1  0  0  0  0
  7 12  1  0  0  0  0
 36 41  1  0  0  0  0
 17 25  1  0  0  0  0
M  END
$$$$

  -OEChem-05262214473D

 51 50  0     1  0  0  0  0  0999 V2000
    1.3524   -3.0009    1.4091 C   0  0  0  0  0  0  0  0  0  0  0  0
    1.8758   -1.9880    0.9598 O   0  0  0  0  0  0  0  0  0  0  0  0
    2.2030   -4.1782    1.7536 C   0  0  0  0  0  0  0  0  0  0  0  0
    2.3264   -4.8705    0.9053 H   0  0  0  0  0  0  0  0  0  0  0  0
    3.2257   -3.8876    2.0432 H   0  0  0  0  0  0  0  0  0  0  0  0
    1.8327   -4.8004    2.5839 H   0  0  0  0  0  0  0  0  0  0  0  0
    0.0005   -3.1873    1.6465 N   0  0  0  0  0  0  0  0  0  0  0  0
   -0.9949   -2.1807    1.3864 C   0  0  2  0  0  0  0  0  0  0  0  0
   -0.3083   -0.8216    1.4164 C   0  0  0  0  0  0  0  0  0  0  0  0
    0.7533   -0.6191    2.0022 O   0  0  0  0  0  0  0  0  0  0  0  0
   -2.1232   -2.2423    2.4042 C   0  0  0  0  0  0  0  0  0  0  0  0
   -0.3048   -4.0823    2.0245 H   0  0  0  0  0  0  0  0  0  0  0  0
   -1.3830   -2.3724    0.3801 H   0  0  0  0  0  0  0  0  0  0  0  0
   -1.7534   -2.0527    3.4185 H   0  0  0  0  0  0  0  0  0  0  0  0
   -2.8936   -1.4947    2.1882 H   0  0  0  0  0  0  0  0  0  0  0  0
   -2.5964   -3.2301    2.4022 H   0  0  0  0  0  0  0  0  0  0  0  0
   -1.0412    0.1517    0.7482 N   0  0  0  0  0  0  0  0  0  0  0  0
   -0.6079    1.5223    0.6467 C   0  0  2  0  0  0  0  0  0  0  0  0
    0.2153    1.8548    1.8905 C   0  0  0  0  0  0  0  0  0  0  0  0
    1.2701    2.4847    1.8443 O   0  0  0  0  0  0  0  0  0  0  0  0
   -1.7781    2.5117    0.4292 C   0  0  2  0  0  0  0  0  0  0  0  0
   -2.5176    2.2585   -0.9033 C   0  0  0  0  0  0  0  0  0  0  0  0
   -1.2736    3.9573    0.5307 C   0  0  0  0  0  0  0  0  0  0  0  0
   -3.8255    3.0296   -1.0277 C   0  0  0  0  0  0  0  0  0  0  0  0
   -1.9022   -0.1128    0.2753 H   0  0  0  0  0  0  0  0  0  0  0  0
    0.0718    1.5591   -0.2142 H   0  0  0  0  0  0  0  0  0  0  0  0
   -2.5001    2.3662    1.2439 H   0  0  0  0  0  0  0  0  0  0  0  0
   -1.8764    2.5550   -1.7413 H   0  0  0  0  0  0  0  0  0  0  0  0
   -2.7272    1.1894   -1.0271 H   0  0  0  0  0  0  0  0  0  0  0  0
   -0.5446    4.1714   -0.2583 H   0  0  0  0  0  0  0  0  0  0  0  0
   -2.0934    4.6723    0.4116 H   0  0  0  0  0  0  0  0  0  0  0  0
   -0.7952    4.1489    1.4967 H   0  0  0  0  0  0  0  0  0  0  0  0
   -4.5181    2.7814   -0.2185 H   0  0  0  0  0  0  0  0  0  0  0  0
   -4.3196    2.7781   -1.9720 H   0  0  0  0  0  0  0  0  0  0  0  0
   -3.6482    4.1095   -1.0163 H   0  0  0  0  0  0  0  0  0  0  0  0
   -0.3844    1.3944    3.0540 N   0  0  0  0  0  0  0  0  0  0  0  0
    0.1789    1.5957    4.3696 C   0  0  2  0  0  0  0  0  0  0  0  0
   -0.9641    1.5929    5.3761 C   0  0  0  0  0  0  0  0  0  0  0  0
   -2.1284    1.8409    5.0695 O   0  0  0  0  0  0  0  0  0  0  0  0
    0.9641    2.8960    4.4423 C   0  0  0  0  0  0  0  0  0  0  0  0
   -1.2631    0.8908    2.9772 H   0  0  0  0  0  0  0  0  0  0  0  0
    0.8398    0.7440    4.5643 H   0  0  0  0  0  0  0  0  0  0  0  0
    0.3185    3.7607    4.2499 H   0  0  0  0  0  0  0  0  0  0  0  0
    1.4140    3.0331    5.4312 H   0  0  0  0  0  0  0  0  0  0  0  0
    1.7672    2.9085    3.6976 H   0  0  0  0  0  0  0  0  0  0  0  0
   -0.5243    1.3234    6.6645 N   0  0  0  0  0  0  0  0  0  0  0  0
   -1.4167    1.2773    7.7992 C   0  0  0  0  0  0  0  0  0  0  0  0
    0.4561    1.1108    6.8236 H   0  0  0  0  0  0  0  0  0  0  0  0
   -1.4566    2.2681    8.2754 H   0  0  0  0  0  0  0  0  0  0  0  0
   -2.4240    0.9918    7.4620 H   0  0  0  0  0  0  0  0  0  0  0  0
   -1.0492    0.5365    8.5246 H   0  0  0  0  0  0  0  0  0  0  0  0
  1  3  1  0  0  0  0
  1  7  1  0  0  0  0
  1  2  2  0  0  0  0
 37 38  1  0  0  0  0
 38 46  1  0  0  0  0
 38 39  2  0  0  0  0
  8  9  1  0  0  0  0
  9 17  1  0  0  0  0
  9 10  2  0  0  0  0
 18 19  1  0  0  0  0
 19 36  1  0  0  0  0
 19 20  2  0  0  0  0
 22 24  1  0  0  0  0
 37 40  1  0  0  0  0
  8 11  1  0  0  0  0
 21 23  1  0  0  0  0
 46 47  1  0  0  0  0
 21 22  1  0  0  0  0
 36 37  1  0  0  0  0
  7  8  1  0  0  0  0
 18 21  1  0  0  0  0
 17 18  1  0  0  0  0
  3  4  1  0  0  0  0
  3  5  1  0  0  0  0
  3  6  1  0  0  0  0
 24 33  1  0  0  0  0
 24 34  1  0  0  0  0
 24 35  1  0  0  0  0
 40 43  1  0  0  0  0
 40 44  1  0  0  0  0
 40 45  1  0  0  0  0
 11 14  1  0  0  0  0
 11 15  1  0  0  0  0
 11 16  1  0  0  0  0
 23 30  1  0  0  0  0
 23 31  1  0  0  0  0
 23 32  1  0  0  0  0
 47 49  1  0  0  0  0
 47 50  1  0  0  0  0
 47 51  1  0  0  0  0
 22 28  1  0  0  0  0
 22 29  1  0  0  0  0
 37 42  1  0  0  0  0
  8 13  1  0  0  0  0
 18 26  1  0  0  0  0
 21 27  1  0  0  0  0
 46 48  1  0  0  0  0
  7 12  1  0  0  0  0
 36 41  1  0  0  0  0
 17 25  1  0  0  0  0
M  END
$$$$

  -OEChem-05262214473D

 51 50  0     1  0  0  0  0  0999 V2000
    1.3524   -3.0009    1.4091 C   0  0  0  0  0  0  0  0  0  0  0  0
    1.8758   -1.9880    0.9598 O   0  0  0  0  0  0  0  0  0  0  0  0
    2.2030   -4.1782    1.7536 C   0  0  0  0  0  0  0  0  0  0  0  0
    2.3264   -4.8705    0.9053 H   0  0  0  0  0  0  0  0  0  0  0  0
    3.2257   -3.8876    2.0432 H   0  0  0  0  0  0  0  0  0  0  0  0
    1.8327   -4.8004    2.5839 H   0  0  0  0  0  0  0  0  0  0  0  0
    0.0005   -3.1873    1.6465 N   0  0  0  0  0  0  0  0  0  0  0  0
   -0.9949   -2.1807    1.3864 C   0  0  2  0  0  0  0  0  0  0  0  0
   -0.3083   -0.8216    1.4164 C   0  0  0  0  0  0  0  0  0  0  0  0
    0.7533   -0.6191    2.0022 O   0  0  0  0  0  0  0  0  0  0  0  0
   -2.1232   -2.2423    2.4042 C   0  0  0  0  0  0  0  0  0  0  0  0
   -0.3048   -4.0823    2.0245 H   0  0  0  0  0  0  0  0  0  0  0  0
   -1.3830   -2.3724    0.3801 H   0  0  0  0  0  0  0  0  0  0  0  0
   -1.7534   -2.0527    3.4185 H   0  0  0  0  0  0  0  0  0  0  0  0
   -2.8936   -1.4947    2.1882 H   0  0  0  0  0  0  0  0  0  0  0  0
   -2.5964   -3.2301    2.4022 H   0  0  0  0  0  0  0  0  0  0  0  0
   -1.0412    0.1517    0.7482 N   0  0  0  0  0  0  0  0  0  0  0  0
   -0.6079    1.5223    0.6467 C   0  0  2  0  0  0  0  0  0  0  0  0
    0.2153    1.8548    1.8905 C   0  0  0  0  0  0  0  0  0  0  0  0
    1.1112    2.6968    1.8928 O   0  0  0  0  0  0  0  0  0  0  0  0
   -1.7781    2.5117    0.4292 C   0  0  2  0  0  0  0  0  0  0  0  0
   -2.5176    2.2585   -0.9033 C   0  0  0  0  0  0  0  0  0  0  0  0
   -1.2736    3.9573    0.5307 C   0  0  0  0  0  0  0  0  0  0  0  0
   -3.8255    3.0296   -1.0277 C   0  0  0  0  0  0  0  0  0  0  0  0
   -1.9022   -0.1128    0.2753 H   0  0  0  0  0  0  0  0  0  0  0  0
    0.0718    1.5591   -0.2142 H   0  0  0  0  0  0  0  0  0  0  0  0
   -2.5001    2.3662    1.2439 H   0  0  0  0  0  0  0  0  0  0  0  0
   -1.8764    2.5550   -1.7413 H   0  0  0  0  0  0  0  0  0  0  0  0
   -2.7272    1.1894   -1.0271 H   0  0  0  0  0  0  0  0  0  0  0  0
   -0.5446    4.1714   -0.2583 H   0  0  0  0  0  0  0  0  0  0  0  0
   -2.0934    4.6723    0.4116 H   0  0  0  0  0  0  0  0  0  0  0  0
   -0.7952    4.1489    1.4967 H   0  0  0  0  0  0  0  0  0  0  0  0
   -4.5181    2.7814   -0.2185 H   0  0  0  0  0  0  0  0  0  0  0  0
   -4.3196    2.7781   -1.9720 H   0  0  0  0  0  0  0  0  0  0  0  0
   -3.6482    4.1095   -1.0163 H   0  0  0  0  0  0  0  0  0  0  0  0
   -0.1918    1.1254    2.9985 N   0  0  0  0  0  0  0  0  0  0  0  0
    0.4100    1.2655    4.3049 C   0  0  2  0  0  0  0  0  0  0  0  0
   -0.6331    0.8833    5.3467 C   0  0  0  0  0  0  0  0  0  0  0  0
   -1.8423    0.9142    5.1279 O   0  0  0  0  0  0  0  0  0  0  0  0
    0.9126    2.6825    4.5335 C   0  0  0  0  0  0  0  0  0  0  0  0
   -0.9507    0.4598    2.8857 H   0  0  0  0  0  0  0  0  0  0  0  0
    1.2448    0.5574    4.3461 H   0  0  0  0  0  0  0  0  0  0  0  0
    0.0903    3.4062    4.4957 H   0  0  0  0  0  0  0  0  0  0  0  0
    1.3938    2.7798    5.5123 H   0  0  0  0  0  0  0  0  0  0  0  0
    1.6406    2.9664    3.7659 H   0  0  0  0  0  0  0  0  0  0  0  0
   -0.0564    0.5450    6.5629 N   0  0  0  0  0  0  0  0  0  0  0  0
   -0.8368    0.1575    7.7148 C   0  0  0  0  0  0  0  0  0  0  0  0
    0.9555    0.5285    6.6487 H   0  0  0  0  0  0  0  0  0  0  0  0
   -1.0466    1.0440    8.3313 H   0  0  0  0  0  0  0  0  0  0  0  0
   -1.7849   -0.2900    7.3816 H   0  0  0  0  0  0  0  0  0  0  0  0
   -0.2735   -0.5771    8.3089 H   0  0  0  0  0  0  0  0  0  0  0  0
  1  3  1  0  0  0  0
  1  7  1  0  0  0  0
  1  2  2  0  0  0  0
 37 38  1  0  0  0  0
 38 46  1  0  0  0  0
 38 39  2  0  0  0  0
  8  9  1  0  0  0  0
  9 17  1  0  0  0  0
  9 10  2  0  0  0  0
 18 19  1  0  0  0  0
 19 36  1  0  0  0  0
 19 20  2  0  0  0  0
 22 24  1  0  0  0  0
 37 40  1  0  0  0  0
  8 11  1  0  0  0  0
 21 23  1  0  0  0  0
 46 47  1  0  0  0  0
 21 22  1  0  0  0  0
 36 37  1  0  0  0  0
  7  8  1  0  0  0  0
 18 21  1  0  0  0  0
 17 18  1  0  0  0  0
  3  4  1  0  0  0  0
  3  5  1  0  0  0  0
  3  6  1  0  0  0  0
 24 33  1  0  0  0  0
 24 34  1  0  0  0  0
 24 35  1  0  0  0  0
 40 43  1  0  0  0  0
 40 44  1  0  0  0  0
 40 45  1  0  0  0  0
 11 14  1  0  0  0  0
 11 15  1  0  0  0  0
 11 16  1  0  0  0  0
 23 30  1  0  0  0  0
 23 31  1  0  0  0  0
 23 32  1  0  0  0  0
 47 49  1  0  0  0  0
 47 50  1  0  0  0  0
 47 51  1  0  0  0  0
 22 28  1  0  0  0  0
 22 29  1  0  0  0  0
 37 42  1  0  0  0  0
  8 13  1  0  0  0  0
 18 26  1  0  0  0  0
 21 27  1  0  0  0  0
 46 48  1  0  0  0  0
  7 12  1  0  0  0  0
 36 41  1  0  0  0  0
 17 25  1  0  0  0  0
M  END
$$$$

  -OEChem-05262214473D

 51 50  0     1  0  0  0  0  0999 V2000
    1.3524   -3.0009    1.4091 C   0  0  0  0  0  0  0  0  0  0  0  0
    1.8758   -1.9880    0.9598 O   0  0  0  0  0  0  0  0  0  0  0  0
    2.2030   -4.1782    1.7536 C   0  0  0  0  0  0  0  0  0  0  0  0
    2.3264   -4.8705    0.9053 H   0  0  0  0  0  0  0  0  0  0  0  0
    3.2257   -3.8876    2.0432 H   0  0  0  0  0  0  0  0  0  0  0  0
    1.8327   -4.8004    2.5839 H   0  0  0  0  0  0  0  0  0  0  0  0
    0.0005   -3.1873    1.6465 N   0  0  0  0  0  0  0  0  0  0  0  0
   -0.9949   -2.1807    1.3864 C   0  0  2  0  0  0  0  0  0  0  0  0
   -0.3083   -0.8216    1.4164 C   0  0  0  0  0  0  0  0  0  0  0  0
    0.7533   -0.6191    2.0022 O   0  0  0  0  0  0  0  0  0  0  0  0
   -2.1232   -2.2423    2.4042 C   0  0  0  0  0  0  0  0  0  0  0  0
   -0.3048   -4.0823    2.0245 H   0  0  0  0  0  0  0  0  0  0  0  0
   -1.3830   -2.3724    0.3801 H   0  0  0  0  0  0  0  0  0  0  0  0
   -1.7534   -2.0527    3.4185 H   0  0  0  0  0  0  0  0  0  0  0  0
   -2.8936   -1.4947    2.1882 H   0  0  0  0  0  0  0  0  0  0  0  0
   -2.5964   -3.2301    2.4022 H   0  0  0  0  0  0  0  0  0  0  0  0
   -1.0412    0.1517    0.7482 N   0  0  0  0  0  0  0  0  0  0  0  0
   -0.6079    1.5223    0.6467 C   0  0  2  0  0  0  0  0  0  0  0  0
    0.2153    1.8548    1.8905 C   0  0  0  0  0  0  0  0  0  0  0  0
    0.9157    2.8614    1.9782 O   0  0  0  0  0  0  0  0  0  0  0  0
   -1.7781    2.5117    0.4292 C   0  0  2  0  0  0  0  0  0  0  0  0
   -2.5176    2.2585   -0.9033 C   0  0  0  0  0  0  0  0  0  0  0  0
   -1.2736    3.9573    0.5307 C   0  0  0  0  0  0  0  0  0  0  0  0
   -3.8255    3.0296   -1.0277 C   0  0  0  0  0  0  0  0  0  0  0  0
   -1.9022   -0.1128    0.2753 H   0  0  0  0  0  0  0  0  0  0  0  0
    0.0718    1.5591   -0.2142 H   0  0  0  0  0  0  0  0  0  0  0  0
   -2.5001    2.3662    1.2439 H   0  0  0  0  0  0  0  0  0  0  0  0
   -1.8764    2.5550   -1.7413 H   0  0  0  0  0  0  0  0  0  0  0  0
   -2.7272    1.1894   -1.0271 H   0  0  0  0  0  0  0  0  0  0  0  0
   -0.5446    4.1714   -0.2583 H   0  0  0  0  0  0  0  0  0  0  0  0
   -2.0934    4.6723    0.4116 H   0  0  0  0  0  0  0  0  0  0  0  0
   -0.7952    4.1489    1.4967 H   0  0  0  0  0  0  0  0  0  0  0  0
   -4.5181    2.7814   -0.2185 H   0  0  0  0  0  0  0  0  0  0  0  0
   -4.3196    2.7781   -1.9720 H   0  0  0  0  0  0  0  0  0  0  0  0
   -3.6482    4.1095   -1.0163 H   0  0  0  0  0  0  0  0  0  0  0  0
    0.0477    0.9139    2.8965 N   0  0  0  0  0  0  0  0  0  0  0  0
    0.6991    1.0044    4.1833 C   0  0  2  0  0  0  0  0  0  0  0  0
   -0.1655    0.2716    5.2007 C   0  0  0  0  0  0  0  0  0  0  0  0
   -1.3675    0.0712    5.0389 O   0  0  0  0  0  0  0  0  0  0  0  0
    0.9130    2.4527    4.5946 C   0  0  0  0  0  0  0  0  0  0  0  0
   -0.5633    0.1220    2.7195 H   0  0  0  0  0  0  0  0  0  0  0  0
    1.6630    0.4929    4.0866 H   0  0  0  0  0  0  0  0  0  0  0  0
   -0.0417    2.9815    4.6966 H   0  0  0  0  0  0  0  0  0  0  0  0
    1.4322    2.5195    5.5564 H   0  0  0  0  0  0  0  0  0  0  0  0
    1.5101    2.9860    3.8470 H   0  0  0  0  0  0  0  0  0  0  0  0
    0.5538   -0.0941    6.3298 N   0  0  0  0  0  0  0  0  0  0  0  0
   -0.0456   -0.7902    7.4444 C   0  0  0  0  0  0  0  0  0  0  0  0
    1.5508    0.0957    6.3704 H   0  0  0  0  0  0  0  0  0  0  0  0
   -0.3896   -0.0597    8.1914 H   0  0  0  0  0  0  0  0  0  0  0  0
   -0.9020   -1.3822    7.0892 H   0  0  0  0  0  0  0  0  0  0  0  0
    0.6983   -1.4593    7.9015 H   0  0  0  0  0  0  0  0  0  0  0  0
  1  3  1  0  0  0  0
  1  7  1  0  0  0  0
  1  2  2  0  0  0  0
 37 38  1  0  0  0  0
 38 46  1  0  0  0  0
 38 39  2  0  0  0  0
  8  9  1  0  0  0  0
  9 17  1  0  0  0  0
  9 10  2  0  0  0  0
 18 19  1  0  0  0  0
 19 36  1  0  0  0  0
 19 20  2  0  0  0  0
 22 24  1  0  0  0  0
 37 40  1  0  0  0  0
  8 11  1  0  0  0  0
 21 23  1  0  0  0  0
 46 47  1  0  0  0  0
 21 22  1  0  0  0  0
 36 37  1  0  0  0  0
  7  8  1  0  0  0  0
 18 21  1  0  0  0  0
 17 18  1  0  0  0  0
  3  4  1  0  0  0  0
  3  5  1  0  0  0  0
  3  6  1  0  0  0  0
 24 33  1  0  0  0  0
 24 34  1  0  0  0  0
 24 35  1  0  0  0  0
 40 43  1  0  0  0  0
 40 44  1  0  0  0  0
 40 45  1  0  0  0  0
 11 14  1  0  0  0  0
 11 15  1  0  0  0  0
 11 16  1  0  0  0  0
 23 30  1  0  0  0  0
 23 31  1  0  0  0  0
 23 32  1  0  0  0  0
 47 49  1  0  0  0  0
 47 50  1  0  0  0  0
 47 51  1  0  0  0  0
 22 28  1  0  0  0  0
 22 29  1  0  0  0  0
 37 42  1  0  0  0  0
  8 13  1  0  0  0  0
 18 26  1  0  0  0  0
 21 27  1  0  0  0  0
 46 48  1  0  0  0  0
  7 12  1  0  0  0  0
 36 41  1  0  0  0  0
 17 25  1  0  0  0  0
M  END
$$$$

  -OEChem-05262214473D

 51 50  0     1  0  0  0  0  0999 V2000
    1.3524   -3.0009    1.4091 C   0  0  0  0  0  0  0  0  0  0  0  0
    1.8758   -1.9880    0.9598 O   0  0  0  0  0  0  0  0  0  0  0  0
    2.2030   -4.1782    1.7536 C   0  0  0  0  0  0  0  0  0  0  0  0
    2.3264   -4.8705    0.9053 H   0  0  0  0  0  0  0  0  0  0  0  0
    3.2257   -3.8876    2.0432 H   0  0  0  0  0  0  0  0  0  0  0  0
    1.8327   -4.8004    2.5839 H   0  0  0  0  0  0  0  0  0  0  0  0
    0.0005   -3.1873    1.6465 N   0  0  0  0  0  0  0  0  0  0  0  0
   -0.9949   -2.1807    1.3864 C   0  0  2  0  0  0  0  0  0  0  0  0
   -0.3083   -0.8216    1.4164 C   0  0  0  0  0  0  0  0  0  0  0  0
    0.7533   -0.6191    2.0022 O   0  0  0  0  0  0  0  0  0  0  0  0
   -2.1232   -2.2423    2.4042 C   0  0  0  0  0  0  0  0  0  0  0  0
   -0.3048   -4.0823    2.0245 H   0  0  0  0  0  0  0  0  0  0  0  0
   -1.3830   -2.3724    0.3801 H   0  0  0  0  0  0  0  0  0  0  0  0
   -1.7534   -2.0527    3.4185 H   0  0  0  0  0  0  0  0  0  0  0  0
   -2.8936   -1.4947    2.1882 H   0  0  0  0  0  0  0  0  0  0  0  0
   -2.5964   -3.2301    2.4022 H   0  0  0  0  0  0  0  0  0  0  0  0
   -1.0412    0.1517    0.7482 N   0  0  0  0  0  0  0  0  0  0  0  0
   -0.6079    1.5223    0.6467 C   0  0  2  0  0  0  0  0  0  0  0  0
    0.2153    1.8548    1.8905 C   0  0  0  0  0  0  0  0  0  0  0  0
    0.6970    2.9674    2.0947 O   0  0  0  0  0  0  0  0  0  0  0  0
   -1.7781    2.5117    0.4292 C   0  0  2  0  0  0  0  0  0  0  0  0
   -2.5176    2.2585   -0.9033 C   0  0  0  0  0  0  0  0  0  0  0  0
   -1.2736    3.9573    0.5307 C   0  0  0  0  0  0  0  0  0  0  0  0
   -3.8255    3.0296   -1.0277 C   0  0  0  0  0  0  0  0  0  0  0  0
   -1.9022   -0.1128    0.2753 H   0  0  0  0  0  0  0  0  0  0  0  0
    0.0718    1.5591   -0.2142 H   0  0  0  0  0  0  0  0  0  0  0  0
   -2.5001    2.3662    1.2439 H   0  0  0  0  0  0  0  0  0  0  0  0
   -1.8764    2.5550   -1.7413 H   0  0  0  0  0  0  0  0  0  0  0  0
   -2.7272    1.1894   -1.0271 H   0  0  0  0  0  0  0  0  0  0  0  0
   -0.5446    4.1714   -0.2583 H   0  0  0  0  0  0  0  0  0  0  0  0
   -2.0934    4.6723    0.4116 H   0  0  0  0  0  0  0  0  0  0  0  0
   -0.7952    4.1489    1.4967 H   0  0  0  0  0  0  0  0  0  0  0  0
   -4.5181    2.7814   -0.2185 H   0  0  0  0  0  0  0  0  0  0  0  0
   -4.3196    2.7781   -1.9720 H   0  0  0  0  0  0  0  0  0  0  0  0
   -3.6482    4.1095   -1.0163 H   0  0  0  0  0  0  0  0  0  0  0  0
    0.3179    0.7743    2.7549 N   0  0  0  0  0  0  0  0  0  0  0  0
    1.0266    0.8299    4.0132 C   0  0  2  0  0  0  0  0  0  0  0  0
    0.4067   -0.2003    4.9481 C   0  0  0  0  0  0  0  0  0  0  0  0
   -0.7363   -0.6307    4.8087 O   0  0  0  0  0  0  0  0  0  0  0  0
    0.9653    2.2224    4.6216 C   0  0  0  0  0  0  0  0  0  0  0  0
   -0.1273   -0.0994    2.4902 H   0  0  0  0  0  0  0  0  0  0  0  0
    2.0659    0.5549    3.8033 H   0  0  0  0  0  0  0  0  0  0  0  0
   -0.0683    2.5154    4.8388 H   0  0  0  0  0  0  0  0  0  0  0  0
    1.5266    2.2701    5.5606 H   0  0  0  0  0  0  0  0  0  0  0  0
    1.3844    2.9662    3.9355 H   0  0  0  0  0  0  0  0  0  0  0  0
    1.2647   -0.5504    5.9813 N   0  0  0  0  0  0  0  0  0  0  0  0
    0.9031   -1.5012    7.0065 C   0  0  0  0  0  0  0  0  0  0  0  0
    2.2012   -0.1581    6.0077 H   0  0  0  0  0  0  0  0  0  0  0  0
    0.4697   -0.9680    7.8655 H   0  0  0  0  0  0  0  0  0  0  0  0
    0.1644   -2.2104    6.6047 H   0  0  0  0  0  0  0  0  0  0  0  0
    1.7998   -2.0499    7.3303 H   0  0  0  0  0  0  0  0  0  0  0  0
  1  3  1  0  0  0  0
  1  7  1  0  0  0  0
  1  2  2  0  0  0  0
 37 38  1  0  0  0  0
 38 46  1  0  0  0  0
 38 39  2  0  0  0  0
  8  9  1  0  0  0  0
  9 17  1  0  0  0  0
  9 10  2  0  0  0  0
 18 19  1  0  0  0  0
 19 36  1  0  0  0  0
 19 20  2  0  0  0  0
 22 24  1  0  0  0  0
 37 40  1  0  0  0  0
  8 11  1  0  0  0  0
 21 23  1  0  0  0  0
 46 47  1  0  0  0  0
 21 22  1  0  0  0  0
 36 37  1  0  0  0  0
  7  8  1  0  0  0  0
 18 21  1  0  0  0  0
 17 18  1  0  0  0  0
  3  4  1  0  0  0  0
  3  5  1  0  0  0  0
  3  6  1  0  0  0  0
 24 33  1  0  0  0  0
 24 34  1  0  0  0  0
 24 35  1  0  0  0  0
 40 43  1  0  0  0  0
 40 44  1  0  0  0  0
 40 45  1  0  0  0  0
 11 14  1  0  0  0  0
 11 15  1  0  0  0  0
 11 16  1  0  0  0  0
 23 30  1  0  0  0  0
 23 31  1  0  0  0  0
 23 32  1  0  0  0  0
 47 49  1  0  0  0  0
 47 50  1  0  0  0  0
 47 51  1  0  0  0  0
 22 28  1  0  0  0  0
 22 29  1  0  0  0  0
 37 42  1  0  0  0  0
  8 13  1  0  0  0  0
 18 26  1  0  0  0  0
 21 27  1  0  0  0  0
 46 48  1  0  0  0  0
  7 12  1  0  0  0  0
 36 41  1  0  0  0  0
 17 25  1  0  0  0  0
M  END
$$$$

  -OEChem-05262214473D

 51 50  0     1  0  0  0  0  0999 V2000
    1.3524   -3.0009    1.4091 C   0  0  0  0  0  0  0  0  0  0  0  0
    1.8758   -1.9880    0.9598 O   0  0  0  0  0  0  0  0  0  0  0  0
    2.2030   -4.1782    1.7536 C   0  0  0  0  0  0  0  0  0  0  0  0
    2.3264   -4.8705    0.9053 H   0  0  0  0  0  0  0  0  0  0  0  0
    3.2257   -3.8876    2.0432 H   0  0  0  0  0  0  0  0  0  0  0  0
    1.8327   -4.8004    2.5839 H   0  0  0  0  0  0  0  0  0  0  0  0
    0.0005   -3.1873    1.6465 N   0  0  0  0  0  0  0  0  0  0  0  0
   -0.9949   -2.1807    1.3864 C   0  0  2  0  0  0  0  0  0  0  0  0
   -0.3083   -0.8216    1.4164 C   0  0  0  0  0  0  0  0  0  0  0  0
    0.7533   -0.6191    2.0022 O   0  0  0  0  0  0  0  0  0  0  0  0
   -2.1232   -2.2423    2.4042 C   0  0  0  0  0  0  0  0  0  0  0  0
   -0.3048   -4.0823    2.0245 H   0  0  0  0  0  0  0  0  0  0  0  0
   -1.3830   -2.3724    0.3801 H   0  0  0  0  0  0  0  0  0  0  0  0
   -1.7534   -2.0527    3.4185 H   0  0  0  0  0  0  0  0  0  0  0  0
   -2.8936   -1.4947    2.1882 H   0  0  0  0  0  0  0  0  0  0  0  0
   -2.5964   -3.2301    2.4022 H   0  0  0  0  0  0  0  0  0  0  0  0
   -1.0412    0.1517    0.7482 N   0  0  0  0  0  0  0  0  0  0  0  0
   -0.6079    1.5223    0.6467 C   0  0  2  0  0  0  0  0  0  0  0  0
    0.2153    1.8548    1.8905 C   0  0  0  0  0  0  0  0  0  0  0  0
    0.4700    3.0074    2.2342 O   0  0  0  0  0  0  0  0  0  0  0  0
   -1.7781    2.5117    0.4292 C   0  0  2  0  0  0  0  0  0  0  0  0
   -2.5176    2.2585   -0.9033 C   0  0  0  0  0  0  0  0  0  0  0  0
   -1.2736    3.9573    0.5307 C   0  0  0  0  0  0  0  0  0  0  0  0
   -3.8255    3.0296   -1.0277 C   0  0  0  0  0  0  0  0  0  0  0  0
   -1.9022   -0.1128    0.2753 H   0  0  0  0  0  0  0  0  0  0  0  0
    0.0718    1.5591   -0.2142 H   0  0  0  0  0  0  0  0  0  0  0  0
   -2.5001    2.3662    1.2439 H   0  0  0  0  0  0  0  0  0  0  0  0
   -1.8764    2.5550   -1.7413 H   0  0  0  0  0  0  0  0  0  0  0  0
   -2.7272    1.1894   -1.0271 H   0  0  0  0  0  0  0  0  0  0  0  0
   -0.5446    4.1714   -0.2583 H   0  0  0  0  0  0  0  0  0  0  0  0
   -2.0934    4.6723    0.4116 H   0  0  0  0  0  0  0  0  0  0  0  0
   -0.7952    4.1489    1.4967 H   0  0  0  0  0  0  0  0  0  0  0  0
   -4.5181    2.7814   -0.2185 H   0  0  0  0  0  0  0  0  0  0  0  0
   -4.3196    2.7781   -1.9720 H   0  0  0  0  0  0  0  0  0  0  0  0
   -3.6482    4.1095   -1.0163 H   0  0  0  0  0  0  0  0  0  0  0  0
    0.6003    0.7160    2.5836 N   0  0  0  0  0  0  0  0  0  0  0  0
    1.3700    0.7542    3.8062 C   0  0  2  0  0  0  0  0  0  0  0  0
    1.0447   -0.5004    4.6060 C   0  0  0  0  0  0  0  0  0  0  0  0
    0.0083   -1.1435    4.4530 O   0  0  0  0  0  0  0  0  0  0  0  0
    1.0658    2.0071    4.6126 C   0  0  0  0  0  0  0  0  0  0  0  0
    0.3276   -0.1895    2.2132 H   0  0  0  0  0  0  0  0  0  0  0  0
    2.4261    0.7391    3.5156 H   0  0  0  0  0  0  0  0  0  0  0  0
    0.0121    2.0398    4.9128 H   0  0  0  0  0  0  0  0  0  0  0  0
    1.6706    2.0485    5.5245 H   0  0  0  0  0  0  0  0  0  0  0  0
    1.2722    2.9083    4.0253 H   0  0  0  0  0  0  0  0  0  0  0  0
    2.0279   -0.7928    5.5409 N   0  0  0  0  0  0  0  0  0  0  0  0
    1.9446   -1.9272    6.4310 C   0  0  0  0  0  0  0  0  0  0  0  0
    2.8626   -0.2158    5.5854 H   0  0  0  0  0  0  0  0  0  0  0  0
    1.4726   -1.6188    7.3756 H   0  0  0  0  0  0  0  0  0  0  0  0
    1.3417   -2.7183    5.9612 H   0  0  0  0  0  0  0  0  0  0  0  0
    2.9561   -2.3087    6.6341 H   0  0  0  0  0  0  0  0  0  0  0  0
  1  3  1  0  0  0  0
  1  7  1  0  0  0  0
  1  2  2  0  0  0  0
 37 38  1  0  0  0  0
 38 46  1  0  0  0  0
 38 39  2  0  0  0  0
  8  9  1  0  0  0  0
  9 17  1  0  0  0  0
  9 10  2  0  0  0  0
 18 19  1  0  0  0  0
 19 36  1  0  0  0  0
 19 20  2  0  0  0  0
 22 24  1  0  0  0  0
 37 40  1  0  0  0  0
  8 11  1  0  0  0  0
 21 23  1  0  0  0  0
 46 47  1  0  0  0  0
 21 22  1  0  0  0  0
 36 37  1  0  0  0  0
  7  8  1  0  0  0  0
 18 21  1  0  0  0  0
 17 18  1  0  0  0  0
  3  4  1  0  0  0  0
  3  5  1  0  0  0  0
  3  6  1  0  0  0  0
 24 33  1  0  0  0  0
 24 34  1  0  0  0  0
 24 35  1  0  0  0  0
 40 43  1  0  0  0  0
 40 44  1  0  0  0  0
 40 45  1  0  0  0  0
 11 14  1  0  0  0  0
 11 15  1  0  0  0  0
 11 16  1  0  0  0  0
 23 30  1  0  0  0  0
 23 31  1  0  0  0  0
 23 32  1  0  0  0  0
 47 49  1  0  0  0  0
 47 50  1  0  0  0  0
 47 51  1  0  0  0  0
 22 28  1  0  0  0  0
 22 29  1  0  0  0  0
 37 42  1  0  0  0  0
  8 13  1  0  0  0  0
 18 26  1  0  0  0  0
 21 27  1  0  0  0  0
 46 48  1  0  0  0  0
  7 12  1  0  0  0  0
 36 41  1  0  0  0  0
 17 25  1  0  0  0  0
M  END
$$$$

  -OEChem-05262214473D

 51 50  0     1  0  0  0  0  0999 V2000
    1.3524   -3.0009    1.4091 C   0  0  0  0  0  0  0  0  0  0  0  0
    1.8758   -1.9880    0.9598 O   0  0  0  0  0  0  0  0  0  0  0  0
    2.2030   -4.1782    1.7536 C   0  0  0  0  0  0  0  0  0  0  0  0
    2.3264   -4.8705    0.9053 H   0  0  0  0  0  0  0  0  0  0  0  0
    3.2257   -3.8876    2.0432 H   0  0  0  0  0  0  0  0  0  0  0  0
    1.8327   -4.8004    2.5839 H   0  0  0  0  0  0  0  0  0  0  0  0
    0.0005   -3.1873    1.6465 N   0  0  0  0  0  0  0  0  0  0  0  0
   -0.9949   -2.1807    1.3864 C   0  0  2  0  0  0  0  0  0  0  0  0
   -0.3083   -0.8216    1.4164 C   0  0  0  0  0  0  0  0  0  0  0  0
    0.7533   -0.6191    2.0022 O   0  0  0  0  0  0  0  0  0  0  0  0
   -2.1232   -2.2423    2.4042 C   0  0  0  0  0  0  0  0  0  0  0  0
   -0.3048   -4.0823    2.0245 H   0  0  0  0  0  0  0  0  0  0  0  0
   -1.3830   -2.3724    0.3801 H   0  0  0  0  0  0  0  0  0  0  0  0
   -1.7534   -2.0527    3.4185 H   0  0  0  0  0  0  0  0  0  0  0  0
   -2.8936   -1.4947    2.1882 H   0  0  0  0  0  0  0  0  0  0  0  0
   -2.5964   -3.2301    2.4022 H   0  0  0  0  0  0  0  0  0  0  0  0
   -1.0412    0.1517    0.7482 N   0  0  0  0  0  0  0  0  0  0  0  0
   -0.6079    1.5223    0.6467 C   0  0  2  0  0  0  0  0  0  0  0  0
    0.2153    1.8548    1.8905 C   0  0  0  0  0  0  0  0  0  0  0  0
    0.2501    2.9788    2.3874 O   0  0  0  0  0  0  0  0  0  0  0  0
   -1.7781    2.5117    0.4292 C   0  0  2  0  0  0  0  0  0  0  0  0
   -2.5176    2.2585   -0.9033 C   0  0  0  0  0  0  0  0  0  0  0  0
   -1.2736    3.9573    0.5307 C   0  0  0  0  0  0  0  0  0  0  0  0
   -3.8255    3.0296   -1.0277 C   0  0  0  0  0  0  0  0  0  0  0  0
   -1.9022   -0.1128    0.2753 H   0  0  0  0  0  0  0  0  0  0  0  0
    0.0718    1.5591   -0.2142 H   0  0  0  0  0  0  0  0  0  0  0  0
   -2.5001    2.3662    1.2439 H   0  0  0  0  0  0  0  0  0  0  0  0
   -1.8764    2.5550   -1.7413 H   0  0  0  0  0  0  0  0  0  0  0  0
   -2.7272    1.1894   -1.0271 H   0  0  0  0  0  0  0  0  0  0  0  0
   -0.5446    4.1714   -0.2583 H   0  0  0  0  0  0  0  0  0  0  0  0
   -2.0934    4.6723    0.4116 H   0  0  0  0  0  0  0  0  0  0  0  0
   -0.7952    4.1489    1.4967 H   0  0  0  0  0  0  0  0  0  0  0  0
   -4.5181    2.7814   -0.2185 H   0  0  0  0  0  0  0  0  0  0  0  0
   -4.3196    2.7781   -1.9720 H   0  0  0  0  0  0  0  0  0  0  0  0
   -3.6482    4.1095   -1.0163 H   0  0  0  0  0  0  0  0  0  0  0  0
    0.8757    0.7432    2.3940 N   0  0  0  0  0  0  0  0  0  0  0  0
    1.7060    0.7822    3.5762 C   0  0  2  0  0  0  0  0  0  0  0  0
    1.7049   -0.6082    4.1979 C   0  0  0  0  0  0  0  0  0  0  0  0
    0.8156   -1.4325    3.9959 O   0  0  0  0  0  0  0  0  0  0  0  0
    1.2078    1.8216    4.5683 C   0  0  0  0  0  0  0  0  0  0  0  0
    0.7703   -0.1421    1.9074 H   0  0  0  0  0  0  0  0  0  0  0  0
    2.7190    1.0331    3.2431 H   0  0  0  0  0  0  0  0  0  0  0  0
    0.1942    1.5870    4.9133 H   0  0  0  0  0  0  0  0  0  0  0  0
    1.8543    1.8698    5.4507 H   0  0  0  0  0  0  0  0  0  0  0  0
    1.1810    2.8162    4.1102 H   0  0  0  0  0  0  0  0  0  0  0  0
    2.7913   -0.8048    5.0388 N   0  0  0  0  0  0  0  0  0  0  0  0
    3.0079   -2.0389    5.7571 C   0  0  0  0  0  0  0  0  0  0  0  0
    3.4898   -0.0732    5.1321 H   0  0  0  0  0  0  0  0  0  0  0  0
    2.5509   -1.9679    6.7552 H   0  0  0  0  0  0  0  0  0  0  0  0
    2.5496   -2.8711    5.2026 H   0  0  0  0  0  0  0  0  0  0  0  0
    4.0883   -2.2181    5.8605 H   0  0  0  0  0  0  0  0  0  0  0  0
  1  3  1  0  0  0  0
  1  7  1  0  0  0  0
  1  2  2  0  0  0  0
 37 38  1  0  0  0  0
 38 46  1  0  0  0  0
 38 39  2  0  0  0  0
  8  9  1  0  0  0  0
  9 17  1  0  0  0  0
  9 10  2  0  0  0  0
 18 19  1  0  0  0  0
 19 36  1  0  0  0  0
 19 20  2  0  0  0  0
 22 24  1  0  0  0  0
 37 40  1  0  0  0  0
  8 11  1  0  0  0  0
 21 23  1  0  0  0  0
 46 47  1  0  0  0  0
 21 22  1  0  0  0  0
 36 37  1  0  0  0  0
  7  8  1  0  0  0  0
 18 21  1  0  0  0  0
 17 18  1  0  0  0  0
  3  4  1  0  0  0  0
  3  5  1  0  0  0  0
  3  6  1  0  0  0  0
 24 33  1  0  0  0  0
 24 34  1  0  0  0  0
 24 35  1  0  0  0  0
 40 43  1  0  0  0  0
 40 44  1  0  0  0  0
 40 45  1  0  0  0  0
 11 14  1  0  0  0  0
 11 15  1  0  0  0  0
 11 16  1  0  0  0  0
 23 30  1  0  0  0  0
 23 31  1  0  0  0  0
 23 32  1  0  0  0  0
 47 49  1  0  0  0  0
 47 50  1  0  0  0  0
 47 51  1  0  0  0  0
 22 28  1  0  0  0  0
 22 29  1  0  0  0  0
 37 42  1  0  0  0  0
  8 13  1  0  0  0  0
 18 26  1  0  0  0  0
 21 27  1  0  0  0  0
 46 48  1  0  0  0  0
  7 12  1  0  0  0  0
 36 41  1  0  0  0  0
 17 25  1  0  0  0  0
M  END
$$$$

  -OEChem-05262214473D

 51 50  0     1  0  0  0  0  0999 V2000
    1.3524   -3.0009    1.4091 C   0  0  0  0  0  0  0  0  0  0  0  0
    1.8758   -1.9880    0.9598 O   0  0  0  0  0  0  0  0  0  0  0  0
    2.2030   -4.1782    1.7536 C   0  0  0  0  0  0  0  0  0  0  0  0
    2.3264   -4.8705    0.9053 H   0  0  0  0  0  0  0  0  0  0  0  0
    3.2257   -3.8876    2.0432 H   0  0  0  0  0  0  0  0  0  0  0  0
    1.8327   -4.8004    2.5839 H   0  0  0  0  0  0  0  0  0  0  0  0
    0.0005   -3.1873    1.6465 N   0  0  0  0  0  0  0  0  0  0  0  0
   -0.9949   -2.1807    1.3864 C   0  0  2  0  0  0  0  0  0  0  0  0
   -0.3083   -0.8216    1.4164 C   0  0  0  0  0  0  0  0  0  0  0  0
    0.7533   -0.6191    2.0022 O   0  0  0  0  0  0  0  0  0  0  0  0
   -2.1232   -2.2423    2.4042 C   0  0  0  0  0  0  0  0  0  0  0  0
   -0.3048   -4.0823    2.0245 H   0  0  0  0  0  0  0  0  0  0  0  0
   -1.3830   -2.3724    0.3801 H   0  0  0  0  0  0  0  0  0  0  0  0
   -1.7534   -2.0527    3.4185 H   0  0  0  0  0  0  0  0  0  0  0  0
   -2.8936   -1.4947    2.1882 H   0  0  0  0  0  0  0  0  0  0  0  0
   -2.5964   -3.2301    2.4022 H   0  0  0  0  0  0  0  0  0  0  0  0
   -1.0412    0.1517    0.7482 N   0  0  0  0  0  0  0  0  0  0  0  0
   -0.6079    1.5223    0.6467 C   0  0  2  0  0  0  0  0  0  0  0  0
    0.2153    1.8548    1.8905 C   0  0  0  0  0  0  0  0  0  0  0  0
    0.0524    2.8835    2.5437 O   0  0  0  0  0  0  0  0  0  0  0  0
   -1.7781    2.5117    0.4292 C   0  0  2  0  0  0  0  0  0  0  0  0
   -2.5176    2.2585   -0.9033 C   0  0  0  0  0  0  0  0  0  0  0  0
   -1.2736    3.9573    0.5307 C   0  0  0  0  0  0  0  0  0  0  0  0
   -3.8255    3.0296   -1.0277 C   0  0  0  0  0  0  0  0  0  0  0  0
   -1.9022   -0.1128    0.2753 H   0  0  0  0  0  0  0  0  0  0  0  0
    0.0718    1.5591   -0.2142 H   0  0  0  0  0  0  0  0  0  0  0  0
   -2.5001    2.3662    1.2439 H   0  0  0  0  0  0  0  0  0  0  0  0
   -1.8764    2.5550   -1.7413 H   0  0  0  0  0  0  0  0  0  0  0  0
   -2.7272    1.1894   -1.0271 H   0  0  0  0  0  0  0  0  0  0  0  0
   -0.5446    4.1714   -0.2583 H   0  0  0  0  0  0  0  0  0  0  0  0
   -2.0934    4.6723    0.4116 H   0  0  0  0  0  0  0  0  0  0  0  0
   -0.7952    4.1489    1.4967 H   0  0  0  0  0  0  0  0  0  0  0  0
   -4.5181    2.7814   -0.2185 H   0  0  0  0  0  0  0  0  0  0  0  0
   -4.3196    2.7781   -1.9720 H   0  0  0  0  0  0  0  0  0  0  0  0
   -3.6482    4.1095   -1.0163 H   0  0  0  0  0  0  0  0  0  0  0  0
    1.1254    0.8538    2.1992 N   0  0  0  0  0  0  0  0  0  0  0  0
    2.0118    0.9121    3.3391 C   0  0  2  0  0  0  0  0  0  0  0  0
    2.3422   -0.5163    3.7514 C   0  0  0  0  0  0  0  0  0  0  0  0
    1.6304   -1.4778    3.4686 O   0  0  0  0  0  0  0  0  0  0  0  0
    1.3815    1.6784    4.4916 C   0  0  0  0  0  0  0  0  0  0  0  0
    1.1708    0.0396    1.5938 H   0  0  0  0  0  0  0  0  0  0  0  0
    2.9247    1.4167    3.0045 H   0  0  0  0  0  0  0  0  0  0  0  0
    0.4654    1.1879    4.8405 H   0  0  0  0  0  0  0  0  0  0  0  0
    2.0653    1.7462    5.3441 H   0  0  0  0  0  0  0  0  0  0  0  0
    1.1172    2.6961    4.1846 H   0  0  0  0  0  0  0  0  0  0  0  0
    3.5030   -0.5855    4.5091 N   0  0  0  0  0  0  0  0  0  0  0  0
    4.0205   -1.8289    5.0307 C   0  0  0  0  0  0  0  0  0  0  0  0
    4.0400    0.2598    4.6789 H   0  0  0  0  0  0  0  0  0  0  0  0
    3.6311   -1.9914    6.0465 H   0  0  0  0  0  0  0  0  0  0  0  0
    3.7058   -2.6585    4.3804 H   0  0  0  0  0  0  0  0  0  0  0  0
    5.1192   -1.7842    5.0621 H   0  0  0  0  0  0  0  0  0  0  0  0
  1  3  1  0  0  0  0
  1  7  1  0  0  0  0
  1  2  2  0  0  0  0
 37 38  1  0  0  0  0
 38 46  1  0  0  0  0
 38 39  2  0  0  0  0
  8  9  1  0  0  0  0
  9 17  1  0  0  0  0
  9 10  2  0  0  0  0
 18 19  1  0  0  0  0
 19 36  1  0  0  0  0
 19 20  2  0  0  0  0
 22 24  1  0  0  0  0
 37 40  1  0  0  0  0
  8 11  1  0  0  0  0
 21 23  1  0  0  0  0
 46 47  1  0  0  0  0
 21 22  1  0  0  0  0
 36 37  1  0  0  0  0
  7  8  1  0  0  0  0
 18 21  1  0  0  0  0
 17 18  1  0  0  0  0
  3  4  1  0  0  0  0
  3  5  1  0  0  0  0
  3  6  1  0  0  0  0
 24 33  1  0  0  0  0
 24 34  1  0  0  0  0
 24 35  1  0  0  0  0
 40 43  1  0  0  0  0
 40 44  1  0  0  0  0
 40 45  1  0  0  0  0
 11 14  1  0  0  0  0
 11 15  1  0  0  0  0
 11 16  1  0  0  0  0
 23 30  1  0  0  0  0
 23 31  1  0  0  0  0
 23 32  1  0  0  0  0
 47 49  1  0  0  0  0
 47 50  1  0  0  0  0
 47 51  1  0  0  0  0
 22 28  1  0  0  0  0
 22 29  1  0  0  0  0
 37 42  1  0  0  0  0
  8 13  1  0  0  0  0
 18 26  1  0  0  0  0
 21 27  1  0  0  0  0
 46 48  1  0  0  0  0
  7 12  1  0  0  0  0
 36 41  1  0  0  0  0
 17 25  1  0  0  0  0
M  END
$$$$

  -OEChem-05262214473D

 51 50  0     1  0  0  0  0  0999 V2000
    1.3524   -3.0009    1.4091 C   0  0  0  0  0  0  0  0  0  0  0  0
    1.8758   -1.9880    0.9598 O   0  0  0  0  0  0  0  0  0  0  0  0
    2.2030   -4.1782    1.7536 C   0  0  0  0  0  0  0  0  0  0  0  0
    2.3264   -4.8705    0.9053 H   0  0  0  0  0  0  0  0  0  0  0  0
    3.2257   -3.8876    2.0432 H   0  0  0  0  0  0  0  0  0  0  0  0
    1.8327   -4.8004    2.5839 H   0  0  0  0  0  0  0  0  0  0  0  0
    0.0005   -3.1873    1.6465 N   0  0  0  0  0  0  0  0  0  0  0  0
   -0.9949   -2.1807    1.3864 C   0  0  2  0  0  0  0  0  0  0  0  0
   -0.3083   -0.8216    1.4164 C   0  0  0  0  0  0  0  0  0  0  0  0
    0.7533   -0.6191    2.0022 O   0  0  0  0  0  0  0  0  0  0  0  0
   -2.1232   -2.2423    2.4042 C   0  0  0  0  0  0  0  0  0  0  0  0
   -0.3048   -4.0823    2.0245 H   0  0  0  0  0  0  0  0  0  0  0  0
   -1.3830   -2.3724    0.3801 H   0  0  0  0  0  0  0  0  0  0  0  0
   -1.7534   -2.0527    3.4185 H   0  0  0  0  0  0  0  0  0  0  0  0
   -2.8936   -1.4947    2.1882 H   0  0  0  0  0  0  0  0  0  0  0  0
   -2.5964   -3.2301    2.4022 H   0  0  0  0  0  0  0  0  0  0  0  0
   -1.0412    0.1517    0.7482 N   0  0  0  0  0  0  0  0  0  0  0  0
   -0.6079    1.5223    0.6467 C   0  0  2  0  0  0  0  0  0  0  0  0
    0.2153    1.8548    1.8905 C   0  0  0  0  0  0  0  0  0  0  0  0
   -0.1097    2.7280    2.6926 O   0  0  0  0  0  0  0  0  0  0  0  0
   -1.7781    2.5117    0.4292 C   0  0  2  0  0  0  0  0  0  0  0  0
   -2.5176    2.2585   -0.9033 C   0  0  0  0  0  0  0  0  0  0  0  0
   -1.2736    3.9573    0.5307 C   0  0  0  0  0  0  0  0  0  0  0  0
   -3.8255    3.0296   -1.0277 C   0  0  0  0  0  0  0  0  0  0  0  0
   -1.9022   -0.1128    0.2753 H   0  0  0  0  0  0  0  0  0  0  0  0
    0.0718    1.5591   -0.2142 H   0  0  0  0  0  0  0  0  0  0  0  0
   -2.5001    2.3662    1.2439 H   0  0  0  0  0  0  0  0  0  0  0  0
   -1.8764    2.5550   -1.7413 H   0  0  0  0  0  0  0  0  0  0  0  0
   -2.7272    1.1894   -1.0271 H   0  0  0  0  0  0  0  0  0  0  0  0
   -0.5446    4.1714   -0.2583 H   0  0  0  0  0  0  0  0  0  0  0  0
   -2.0934    4.6723    0.4116 H   0  0  0  0  0  0  0  0  0  0  0  0
   -0.7952    4.1489    1.4967 H   0  0  0  0  0  0  0  0  0  0  0  0
   -4.5181    2.7814   -0.2185 H   0  0  0  0  0  0  0  0  0  0  0  0
   -4.3196    2.7781   -1.9720 H   0  0  0  0  0  0  0  0  0  0  0  0
   -3.6482    4.1095   -1.0163 H   0  0  0  0  0  0  0  0  0  0  0  0
    1.3322    1.0405    2.0124 N   0  0  0  0  0  0  0  0  0  0  0  0
    2.2664    1.1351    3.1110 C   0  0  2  0  0  0  0  0  0  0  0  0
    2.9134   -0.2310    3.2971 C   0  0  0  0  0  0  0  0  0  0  0  0
    2.3974   -1.2764    2.9072 O   0  0  0  0  0  0  0  0  0  0  0  0
    1.5750    1.5875    4.3877 C   0  0  0  0  0  0  0  0  0  0  0  0
    1.5017    0.3432    1.2936 H   0  0  0  0  0  0  0  0  0  0  0  0
    3.0291    1.8639    2.8158 H   0  0  0  0  0  0  0  0  0  0  0  0
    0.8074    0.8697    4.6991 H   0  0  0  0  0  0  0  0  0  0  0  0
    2.2891    1.6861    5.2120 H   0  0  0  0  0  0  0  0  0  0  0  0
    1.0850    2.5564    4.2433 H   0  0  0  0  0  0  0  0  0  0  0  0
    4.1144   -0.1499    3.9880 N   0  0  0  0  0  0  0  0  0  0  0  0
    4.9135   -1.3115    4.3012 C   0  0  0  0  0  0  0  0  0  0  0  0
    4.4758    0.7605    4.2565 H   0  0  0  0  0  0  0  0  0  0  0  0
    4.6395   -1.6878    5.2979 H   0  0  0  0  0  0  0  0  0  0  0  0
    4.7315   -2.0949    3.5508 H   0  0  0  0  0  0  0  0  0  0  0  0
    5.9786   -1.0366    4.2934 H   0  0  0  0  0  0  0  0  0  0  0  0
  1  3  1  0  0  0  0
  1  7  1  0  0  0  0
  1  2  2  0  0  0  0
 37 38  1  0  0  0  0
 38 46  1  0  0  0  0
 38 39  2  0  0  0  0
  8  9  1  0  0  0  0
  9 17  1  0  0  0  0
  9 10  2  0  0  0  0
 18 19  1  0  0  0  0
 19 36  1  0  0  0  0
 19 20  2  0  0  0  0
 22 24  1  0  0  0  0
 37 40  1  0  0  0  0
  8 11  1  0  0  0  0
 21 23  1  0  0  0  0
 46 47  1  0  0  0  0
 21 22  1  0  0  0  0
 36 37  1  0  0  0  0
  7  8  1  0  0  0  0
 18 21  1  0  0  0  0
 17 18  1  0  0  0  0
  3  4  1  0  0  0  0
  3  5  1  0  0  0  0
  3  6  1  0  0  0  0
 24 33  1  0  0  0  0
 24 34  1  0  0  0  0
 24 35  1  0  0  0  0
 40 43  1  0  0  0  0
 40 44  1  0  0  0  0
 40 45  1  0  0  0  0
 11 14  1  0  0  0  0
 11 15  1  0  0  0  0
 11 16  1  0  0  0  0
 23 30  1  0  0  0  0
 23 31  1  0  0  0  0
 23 32  1  0  0  0  0
 47 49  1  0  0  0  0
 47 50  1  0  0  0  0
 47 51  1  0  0  0  0
 22 28  1  0  0  0  0
 22 29  1  0  0  0  0
 37 42  1  0  0  0  0
  8 13  1  0  0  0  0
 18 26  1  0  0  0  0
 21 27  1  0  0  0  0
 46 48  1  0  0  0  0
  7 12  1  0  0  0  0
 36 41  1  0  0  0  0
 17 25  1  0  0  0  0
M  END
$$$$

  -OEChem-05262214473D

 51 50  0     1  0  0  0  0  0999 V2000
    1.3524   -3.0009    1.4091 C   0  0  0  0  0  0  0  0  0  0  0  0
    1.8758   -1.9880    0.9598 O   0  0  0  0  0  0  0  0  0  0  0  0
    2.2030   -4.1782    1.7536 C   0  0  0  0  0  0  0  0  0  0  0  0
    2.3264   -4.8705    0.9053 H   0  0  0  0  0  0  0  0  0  0  0  0
    3.2257   -3.8876    2.0432 H   0  0  0  0  0  0  0  0  0  0  0  0
    1.8327   -4.8004    2.5839 H   0  0  0  0  0  0  0  0  0  0  0  0
    0.0005   -3.1873    1.6465 N   0  0  0  0  0  0  0  0  0  0  0  0
   -0.9949   -2.1807    1.3864 C   0  0  2  0  0  0  0  0  0  0  0  0
   -0.3083   -0.8216    1.4164 C   0  0  0  0  0  0  0  0  0  0  0  0
    0.7533   -0.6191    2.0022 O   0  0  0  0  0  0  0  0  0  0  0  0
   -2.1232   -2.2423    2.4042 C   0  0  0  0  0  0  0  0  0  0  0  0
   -0.3048   -4.0823    2.0245 H   0  0  0  0  0  0  0  0  0  0  0  0
   -1.3830   -2.3724    0.3801 H   0  0  0  0  0  0  0  0  0  0  0  0
   -1.7534   -2.0527    3.4185 H   0  0  0  0  0  0  0  0  0  0  0  0
   -2.8936   -1.4947    2.1882 H   0  0  0  0  0  0  0  0  0  0  0  0
   -2.5964   -3.2301    2.4022 H   0  0  0  0  0  0  0  0  0  0  0  0
   -1.0412    0.1517    0.7482 N   0  0  0  0  0  0  0  0  0  0  0  0
   -0.6079    1.5223    0.6467 C   0  0  2  0  0  0  0  0  0  0  0  0
    0.2153    1.8548    1.8905 C   0  0  0  0  0  0  0  0  0  0  0  0
   -0.2251    2.5229    2.8238 O   0  0  0  0  0  0  0  0  0  0  0  0
   -1.7781    2.5117    0.4292 C   0  0  2  0  0  0  0  0  0  0  0  0
   -2.5176    2.2585   -0.9033 C   0  0  0  0  0  0  0  0  0  0  0  0
   -1.2736    3.9573    0.5307 C   0  0  0  0  0  0  0  0  0  0  0  0
   -3.8255    3.0296   -1.0277 C   0  0  0  0  0  0  0  0  0  0  0  0
   -1.9022   -0.1128    0.2753 H   0  0  0  0  0  0  0  0  0  0  0  0
    0.0718    1.5591   -0.2142 H   0  0  0  0  0  0  0  0  0  0  0  0
   -2.5001    2.3662    1.2439 H   0  0  0  0  0  0  0  0  0  0  0  0
   -1.8764    2.5550   -1.7413 H   0  0  0  0  0  0  0  0  0  0  0  0
   -2.7272    1.1894   -1.0271 H   0  0  0  0  0  0  0  0  0  0  0  0
   -0.5446    4.1714   -0.2583 H   0  0  0  0  0  0  0  0  0  0  0  0
   -2.0934    4.6723    0.4116 H   0  0  0  0  0  0  0  0  0  0  0  0
   -0.7952    4.1489    1.4967 H   0  0  0  0  0  0  0  0  0  0  0  0
   -4.5181    2.7814   -0.2185 H   0  0  0  0  0  0  0  0  0  0  0  0
   -4.3196    2.7781   -1.9720 H   0  0  0  0  0  0  0  0  0  0  0  0
   -3.6482    4.1095   -1.0163 H   0  0  0  0  0  0  0  0  0  0  0  0
    1.4822    1.2904    1.8463 N   0  0  0  0  0  0  0  0  0  0  0  0
    2.4525    1.4358    2.9074 C   0  0  2  0  0  0  0  0  0  0  0  0
    3.3795    0.2282    2.8658 C   0  0  0  0  0  0  0  0  0  0  0  0
    3.0641   -0.8420    2.3497 O   0  0  0  0  0  0  0  0  0  0  0  0
    1.7754    1.5549    4.2639 C   0  0  0  0  0  0  0  0  0  0  0  0
    1.7405    0.7480    1.0273 H   0  0  0  0  0  0  0  0  0  0  0  0
    3.0251    2.3441    2.6901 H   0  0  0  0  0  0  0  0  0  0  0  0
    1.1968    0.6541    4.4990 H   0  0  0  0  0  0  0  0  0  0  0  0
    2.5105    1.6936    5.0635 H   0  0  0  0  0  0  0  0  0  0  0  0
    1.0866    2.4064    4.2823 H   0  0  0  0  0  0  0  0  0  0  0  0
    4.5838    0.4722    3.5109 N   0  0  0  0  0  0  0  0  0  0  0  0
    5.6260   -0.5218    3.6185 C   0  0  0  0  0  0  0  0  0  0  0  0
    4.7675    1.3949    3.8938 H   0  0  0  0  0  0  0  0  0  0  0  0
    5.5074   -1.0777    4.5603 H   0  0  0  0  0  0  0  0  0  0  0  0
    5.5568   -1.2188    2.7703 H   0  0  0  0  0  0  0  0  0  0  0  0
    6.6080   -0.0262    3.6067 H   0  0  0  0  0  0  0  0  0  0  0  0
  1  3  1  0  0  0  0
  1  7  1  0  0  0  0
  1  2  2  0  0  0  0
 37 38  1  0  0  0  0
 38 46  1  0  0  0  0
 38 39  2  0  0  0  0
  8  9  1  0  0  0  0
  9 17  1  0  0  0  0
  9 10  2  0  0  0  0
 18 19  1  0  0  0  0
 19 36  1  0  0  0  0
 19 20  2  0  0  0  0
 22 24  1  0  0  0  0
 37 40  1  0  0  0  0
  8 11  1  0  0  0  0
 21 23  1  0  0  0  0
 46 47  1  0  0  0  0
 21 22  1  0  0  0  0
 36 37  1  0  0  0  0
  7  8  1  0  0  0  0
 18 21  1  0  0  0  0
 17 18  1  0  0  0  0
  3  4  1  0  0  0  0
  3  5  1  0  0  0  0
  3  6  1  0  0  0  0
 24 33  1  0  0  0  0
 24 34  1  0  0  0  0
 24 35  1  0  0  0  0
 40 43  1  0  0  0  0
 40 44  1  0  0  0  0
 40 45  1  0  0  0  0
 11 14  1  0  0  0  0
 11 15  1  0  0  0  0
 11 16  1  0  0  0  0
 23 30  1  0  0  0  0
 23 31  1  0  0  0  0
 23 32  1  0  0  0  0
 47 49  1  0  0  0  0
 47 50  1  0  0  0  0
 47 51  1  0  0  0  0
 22 28  1  0  0  0  0
 22 29  1  0  0  0  0
 37 42  1  0  0  0  0
  8 13  1  0  0  0  0
 18 26  1  0  0  0  0
 21 27  1  0  0  0  0
 46 48  1  0  0  0  0
  7 12  1  0  0  0  0
 36 41  1  0  0  0  0
 17 25  1  0  0  0  0
M  END
$$$$

  -OEChem-05262214473D

 51 50  0     1  0  0  0  0  0999 V2000
    1.3524   -3.0009    1.4091 C   0  0  0  0  0  0  0  0  0  0  0  0
    1.8758   -1.9880    0.9598 O   0  0  0  0  0  0  0  0  0  0  0  0
    2.2030   -4.1782    1.7536 C   0  0  0  0  0  0  0  0  0  0  0  0
    2.3264   -4.8705    0.9053 H   0  0  0  0  0  0  0  0  0  0  0  0
    3.2257   -3.8876    2.0432 H   0  0  0  0  0  0  0  0  0  0  0  0
    1.8327   -4.8004    2.5839 H   0  0  0  0  0  0  0  0  0  0  0  0
    0.0005   -3.1873    1.6465 N   0  0  0  0  0  0  0  0  0  0  0  0
   -0.9949   -2.1807    1.3864 C   0  0  2  0  0  0  0  0  0  0  0  0
   -0.3083   -0.8216    1.4164 C   0  0  0  0  0  0  0  0  0  0  0  0
    0.7533   -0.6191    2.0022 O   0  0  0  0  0  0  0  0  0  0  0  0
   -2.1232   -2.2423    2.4042 C   0  0  0  0  0  0  0  0  0  0  0  0
   -0.3048   -4.0823    2.0245 H   0  0  0  0  0  0  0  0  0  0  0  0
   -1.3830   -2.3724    0.3801 H   0  0  0  0  0  0  0  0  0  0  0  0
   -1.7534   -2.0527    3.4185 H   0  0  0  0  0  0  0  0  0  0  0  0
   -2.8936   -1.4947    2.1882 H   0  0  0  0  0  0  0  0  0  0  0  0
   -2.5964   -3.2301    2.4022 H   0  0  0  0  0  0  0  0  0  0  0  0
   -1.0412    0.1517    0.7482 N   0  0  0  0  0  0  0  0  0  0  0  0
   -0.6079    1.5223    0.6467 C   0  0  2  0  0  0  0  0  0  0  0  0
    0.2153    1.8548    1.8905 C   0  0  0  0  0  0  0  0  0  0  0  0
   -0.2860    2.2821    2.9285 O   0  0  0  0  0  0  0  0  0  0  0  0
   -1.7781    2.5117    0.4292 C   0  0  2  0  0  0  0  0  0  0  0  0
   -2.5176    2.2585   -0.9033 C   0  0  0  0  0  0  0  0  0  0  0  0
   -1.2736    3.9573    0.5307 C   0  0  0  0  0  0  0  0  0  0  0  0
   -3.8255    3.0296   -1.0277 C   0  0  0  0  0  0  0  0  0  0  0  0
   -1.9022   -0.1128    0.2753 H   0  0  0  0  0  0  0  0  0  0  0  0
    0.0718    1.5591   -0.2142 H   0  0  0  0  0  0  0  0  0  0  0  0
   -2.5001    2.3662    1.2439 H   0  0  0  0  0  0  0  0  0  0  0  0
   -1.8764    2.5550   -1.7413 H   0  0  0  0  0  0  0  0  0  0  0  0
   -2.7272    1.1894   -1.0271 H   0  0  0  0  0  0  0  0  0  0  0  0
   -0.5446    4.1714   -0.2583 H   0  0  0  0  0  0  0  0  0  0  0  0
   -2.0934    4.6723    0.4116 H   0  0  0  0  0  0  0  0  0  0  0  0
   -0.7952    4.1489    1.4967 H   0  0  0  0  0  0  0  0  0  0  0  0
   -4.5181    2.7814   -0.2185 H   0  0  0  0  0  0  0  0  0  0  0  0
   -4.3196    2.7781   -1.9720 H   0  0  0  0  0  0  0  0  0  0  0  0
   -3.6482    4.1095   -1.0163 H   0  0  0  0  0  0  0  0  0  0  0  0
    1.5651    1.5865    1.7123 N   0  0  0  0  0  0  0  0  0  0  0  0
    2.5574    1.7940    2.7422 C   0  0  2  0  0  0  0  0  0  0  0  0
    3.7086    0.8300    2.4871 C   0  0  0  0  0  0  0  0  0  0  0  0
    3.5853   -0.2042    1.8342 O   0  0  0  0  0  0  0  0  0  0  0  0
    1.9687    1.5829    4.1284 C   0  0  0  0  0  0  0  0  0  0  0  0
    1.8708    1.2264    0.8131 H   0  0  0  0  0  0  0  0  0  0  0  0
    2.9130    2.8247    2.6358 H   0  0  0  0  0  0  0  0  0  0  0  0
    1.6071    0.5557    4.2537 H   0  0  0  0  0  0  0  0  0  0  0  0
    2.7144    1.7682    4.9086 H   0  0  0  0  0  0  0  0  0  0  0  0
    1.1220    2.2565    4.2989 H   0  0  0  0  0  0  0  0  0  0  0  0
    4.8794    1.2386    3.1104 N   0  0  0  0  0  0  0  0  0  0  0  0
    6.1095    0.4862    3.0290 C   0  0  0  0  0  0  0  0  0  0  0  0
    4.8952    2.1197    3.6155 H   0  0  0  0  0  0  0  0  0  0  0  0
    6.1757   -0.2028    3.8840 H   0  0  0  0  0  0  0  0  0  0  0  0
    6.1255   -0.0899    2.0921 H   0  0  0  0  0  0  0  0  0  0  0  0
    6.9644    1.1781    3.0488 H   0  0  0  0  0  0  0  0  0  0  0  0
  1  3  1  0  0  0  0
  1  7  1  0  0  0  0
  1  2  2  0  0  0  0
 37 38  1  0  0  0  0
 38 46  1  0  0  0  0
 38 39  2  0  0  0  0
  8  9  1  0  0  0  0
  9 17  1  0  0  0  0
  9 10  2  0  0  0  0
 18 19  1  0  0  0  0
 19 36  1  0  0  0  0
 19 20  2  0  0  0  0
 22 24  1  0  0  0  0
 37 40  1  0  0  0  0
  8 11  1  0  0  0  0
 21 23  1  0  0  0  0
 46 47  1  0  0  0  0
 21 22  1  0  0  0  0
 36 37  1  0  0  0  0
  7  8  1  0  0  0  0
 18 21  1  0  0  0  0
 17 18  1  0  0  0  0
  3  4  1  0  0  0  0
  3  5  1  0  0  0  0
  3  6  1  0  0  0  0
 24 33  1  0  0  0  0
 24 34  1  0  0  0  0
 24 35  1  0  0  0  0
 40 43  1  0  0  0  0
 40 44  1  0  0  0  0
 40 45  1  0  0  0  0
 11 14  1  0  0  0  0
 11 15  1  0  0  0  0
 11 16  1  0  0  0  0
 23 30  1  0  0  0  0
 23 31  1  0  0  0  0
 23 32  1  0  0  0  0
 47 49  1  0  0  0  0
 47 50  1  0  0  0  0
 47 51  1  0  0  0  0
 22 28  1  0  0  0  0
 22 29  1  0  0  0  0
 37 42  1  0  0  0  0
  8 13  1  0  0  0  0
 18 26  1  0  0  0  0
 21 27  1  0  0  0  0
 46 48  1  0  0  0  0
  7 12  1  0  0  0  0
 36 41  1  0  0  0  0
 17 25  1  0  0  0  0
M  END
$$$$

  -OEChem-05262214473D

 51 50  0     1  0  0  0  0  0999 V2000
    1.3524   -3.0009    1.4091 C   0  0  0  0  0  0  0  0  0  0  0  0
    1.8758   -1.9880    0.9598 O   0  0  0  0  0  0  0  0  0  0  0  0
    2.2030   -4.1782    1.7536 C   0  0  0  0  0  0  0  0  0  0  0  0
    2.3264   -4.8705    0.9053 H   0  0  0  0  0  0  0  0  0  0  0  0
    3.2257   -3.8876    2.0432 H   0  0  0  0  0  0  0  0  0  0  0  0
    1.8327   -4.8004    2.5839 H   0  0  0  0  0  0  0  0  0  0  0  0
    0.0005   -3.1873    1.6465 N   0  0  0  0  0  0  0  0  0  0  0  0
   -0.9949   -2.1807    1.3864 C   0  0  2  0  0  0  0  0  0  0  0  0
   -0.3083   -0.8216    1.4164 C   0  0  0  0  0  0  0  0  0  0  0  0
    0.7533   -0.6191    2.0022 O   0  0  0  0  0  0  0  0  0  0  0  0
   -2.1232   -2.2423    2.4042 C   0  0  0  0  0  0  0  0  0  0  0  0
   -0.3048   -4.0823    2.0245 H   0  0  0  0  0  0  0  0  0  0  0  0
   -1.3830   -2.3724    0.3801 H   0  0  0  0  0  0  0  0  0  0  0  0
   -1.7534   -2.0527    3.4185 H   0  0  0  0  0  0  0  0  0  0  0  0
   -2.8936   -1.4947    2.1882 H   0  0  0  0  0  0  0  0  0  0  0  0
   -2.5964   -3.2301    2.4022 H   0  0  0  0  0  0  0  0  0  0  0  0
   -1.0412    0.1517    0.7482 N   0  0  0  0  0  0  0  0  0  0  0  0
   -0.6079    1.5223    0.6467 C   0  0  2  0  0  0  0  0  0  0  0  0
    0.2153    1.8548    1.8905 C   0  0  0  0  0  0  0  0  0  0  0  0
   -0.2882    2.0222    2.9995 O   0  0  0  0  0  0  0  0  0  0  0  0
   -1.7781    2.5117    0.4292 C   0  0  2  0  0  0  0  0  0  0  0  0
   -2.5176    2.2585   -0.9033 C   0  0  0  0  0  0  0  0  0  0  0  0
   -1.2736    3.9573    0.5307 C   0  0  0  0  0  0  0  0  0  0  0  0
   -3.8255    3.0296   -1.0277 C   0  0  0  0  0  0  0  0  0  0  0  0
   -1.9022   -0.1128    0.2753 H   0  0  0  0  0  0  0  0  0  0  0  0
    0.0718    1.5591   -0.2142 H   0  0  0  0  0  0  0  0  0  0  0  0
   -2.5001    2.3662    1.2439 H   0  0  0  0  0  0  0  0  0  0  0  0
   -1.8764    2.5550   -1.7413 H   0  0  0  0  0  0  0  0  0  0  0  0
   -2.7272    1.1894   -1.0271 H   0  0  0  0  0  0  0  0  0  0  0  0
   -0.5446    4.1714   -0.2583 H   0  0  0  0  0  0  0  0  0  0  0  0
   -2.0934    4.6723    0.4116 H   0  0  0  0  0  0  0  0  0  0  0  0
   -0.7952    4.1489    1.4967 H   0  0  0  0  0  0  0  0  0  0  0  0
   -4.5181    2.7814   -0.2185 H   0  0  0  0  0  0  0  0  0  0  0  0
   -4.3196    2.7781   -1.9720 H   0  0  0  0  0  0  0  0  0  0  0  0
   -3.6482    4.1095   -1.0163 H   0  0  0  0  0  0  0  0  0  0  0  0
    1.5752    1.9087    1.6194 N   0  0  0  0  0  0  0  0  0  0  0  0
    2.5741    2.1851    2.6266 C   0  0  2  0  0  0  0  0  0  0  0  0
    3.8784    1.5335    2.1866 C   0  0  0  0  0  0  0  0  0  0  0  0
    3.9253    0.5935    1.3959 O   0  0  0  0  0  0  0  0  0  0  0  0
    2.1420    1.6695    3.9905 C   0  0  0  0  0  0  0  0  0  0  0  0
    1.8839    1.7459    0.6656 H   0  0  0  0  0  0  0  0  0  0  0  0
    2.7004    3.2728    2.6567 H   0  0  0  0  0  0  0  0  0  0  0  0
    2.0103    0.5814    3.9800 H   0  0  0  0  0  0  0  0  0  0  0  0
    2.8869    1.9049    4.7579 H   0  0  0  0  0  0  0  0  0  0  0  0
    1.1887    2.1168    4.2922 H   0  0  0  0  0  0  0  0  0  0  0  0
    4.9808    2.0970    2.8137 N   0  0  0  0  0  0  0  0  0  0  0  0
    6.3309    1.6439    2.5730 C   0  0  0  0  0  0  0  0  0  0  0  0
    4.8502    2.8855    3.4406 H   0  0  0  0  0  0  0  0  0  0  0  0
    6.5988    0.8775    3.3152 H   0  0  0  0  0  0  0  0  0  0  0  0
    6.3988    1.2150    1.5623 H   0  0  0  0  0  0  0  0  0  0  0  0
    7.0235    2.4942    2.6578 H   0  0  0  0  0  0  0  0  0  0  0  0
  1  3  1  0  0  0  0
  1  7  1  0  0  0  0
  1  2  2  0  0  0  0
 37 38  1  0  0  0  0
 38 46  1  0  0  0  0
 38 39  2  0  0  0  0
  8  9  1  0  0  0  0
  9 17  1  0  0  0  0
  9 10  2  0  0  0  0
 18 19  1  0  0  0  0
 19 36  1  0  0  0  0
 19 20  2  0  0  0  0
 22 24  1  0  0  0  0
 37 40  1  0  0  0  0
  8 11  1  0  0  0  0
 21 23  1  0  0  0  0
 46 47  1  0  0  0  0
 21 22  1  0  0  0  0
 36 37  1  0  0  0  0
  7  8  1  0  0  0  0
 18 21  1  0  0  0  0
 17 18  1  0  0  0  0
  3  4  1  0  0  0  0
  3  5  1  0  0  0  0
  3  6  1  0  0  0  0
 24 33  1  0  0  0  0
 24 34  1  0  0  0  0
 24 35  1  0  0  0  0
 40 43  1  0  0  0  0
 40 44  1  0  0  0  0
 40 45  1  0  0  0  0
 11 14  1  0  0  0  0
 11 15  1  0  0  0  0
 11 16  1  0  0  0  0
 23 30  1  0  0  0  0
 23 31  1  0  0  0  0
 23 32  1  0  0  0  0
 47 49  1  0  0  0  0
 47 50  1  0  0  0  0
 47 51  1  0  0  0  0
 22 28  1  0  0  0  0
 22 29  1  0  0  0  0
 37 42  1  0  0  0  0
  8 13  1  0  0  0  0
 18 26  1  0  0  0  0
 21 27  1  0  0  0  0
 46 48  1  0  0  0  0
  7 12  1  0  0  0  0
 36 41  1  0  0  0  0
 17 25  1  0  0  0  0
M  END
$$$$

  -OEChem-05262214473D

 51 50  0     1  0  0  0  0  0999 V2000
    1.3524   -3.0009    1.4091 C   0  0  0  0  0  0  0  0  0  0  0  0
    1.8758   -1.9880    0.9598 O   0  0  0  0  0  0  0  0  0  0  0  0
    2.2030   -4.1782    1.7536 C   0  0  0  0  0  0  0  0  0  0  0  0
    2.3264   -4.8705    0.9053 H   0  0  0  0  0  0  0  0  0  0  0  0
    3.2257   -3.8876    2.0432 H   0  0  0  0  0  0  0  0  0  0  0  0
    1.8327   -4.8004    2.5839 H   0  0  0  0  0  0  0  0  0  0  0  0
    0.0005   -3.1873    1.6465 N   0  0  0  0  0  0  0  0  0  0  0  0
   -0.9949   -2.1807    1.3864 C   0  0  2  0  0  0  0  0  0  0  0  0
   -0.3083   -0.8216    1.4164 C   0  0  0  0  0  0  0  0  0  0  0  0
    0.7533   -0.6191    2.0022 O   0  0  0  0  0  0  0  0  0  0  0  0
   -2.1232   -2.2423    2.4042 C   0  0  0  0  0  0  0  0  0  0  0  0
   -0.3048   -4.0823    2.0245 H   0  0  0  0  0  0  0  0  0  0  0  0
   -1.3830   -2.3724    0.3801 H   0  0  0  0  0  0  0  0  0  0  0  0
   -1.7534   -2.0527    3.4185 H   0  0  0  0  0  0  0  0  0  0  0  0
   -2.8936   -1.4947    2.1882 H   0  0  0  0  0  0  0  0  0  0  0  0
   -2.5964   -3.2301    2.4022 H   0  0  0  0  0  0  0  0  0  0  0  0
   -1.0412    0.1517    0.7482 N   0  0  0  0  0  0  0  0  0  0  0  0
   -0.6079    1.5223    0.6467 C   0  0  2  0  0  0  0  0  0  0  0  0
    0.2153    1.8548    1.8905 C   0  0  0  0  0  0  0  0  0  0  0  0
   -0.2316    1.7607    3.0319 O   0  0  0  0  0  0  0  0  0  0  0  0
   -1.7781    2.5117    0.4292 C   0  0  2  0  0  0  0  0  0  0  0  0
   -2.5176    2.2585   -0.9033 C   0  0  0  0  0  0  0  0  0  0  0  0
   -1.2736    3.9573    0.5307 C   0  0  0  0  0  0  0  0  0  0  0  0
   -3.8255    3.0296   -1.0277 C   0  0  0  0  0  0  0  0  0  0  0  0
   -1.9022   -0.1128    0.2753 H   0  0  0  0  0  0  0  0  0  0  0  0
    0.0718    1.5591   -0.2142 H   0  0  0  0  0  0  0  0  0  0  0  0
   -2.5001    2.3662    1.2439 H   0  0  0  0  0  0  0  0  0  0  0  0
   -1.8764    2.5550   -1.7413 H   0  0  0  0  0  0  0  0  0  0  0  0
   -2.7272    1.1894   -1.0271 H   0  0  0  0  0  0  0  0  0  0  0  0
   -0.5446    4.1714   -0.2583 H   0  0  0  0  0  0  0  0  0  0  0  0
   -2.0934    4.6723    0.4116 H   0  0  0  0  0  0  0  0  0  0  0  0
   -0.7952    4.1489    1.4967 H   0  0  0  0  0  0  0  0  0  0  0  0
   -4.5181    2.7814   -0.2185 H   0  0  0  0  0  0  0  0  0  0  0  0
   -4.3196    2.7781   -1.9720 H   0  0  0  0  0  0  0  0  0  0  0  0
   -3.6482    4.1095   -1.0163 H   0  0  0  0  0  0  0  0  0  0  0  0
    1.5118    2.2350    1.5741 N   0  0  0  0  0  0  0  0  0  0  0  0
    2.5012    2.5824    2.5686 C   0  0  2  0  0  0  0  0  0  0  0  0
    3.8773    2.2907    1.9849 C   0  0  0  0  0  0  0  0  0  0  0  0
    4.0610    1.4967    1.0646 O   0  0  0  0  0  0  0  0  0  0  0  0
    2.2833    1.8089    3.8597 C   0  0  0  0  0  0  0  0  0  0  0  0
    1.7788    2.2709    0.5948 H   0  0  0  0  0  0  0  0  0  0  0  0
    2.4019    3.6580    2.7513 H   0  0  0  0  0  0  0  0  0  0  0  0
    2.3790    0.7293    3.6965 H   0  0  0  0  0  0  0  0  0  0  0  0
    3.0163    2.0942    4.6216 H   0  0  0  0  0  0  0  0  0  0  0  0
    1.2822    1.9968    4.2624 H   0  0  0  0  0  0  0  0  0  0  0  0
    4.8813    2.9889    2.6411 N   0  0  0  0  0  0  0  0  0  0  0  0
    6.2752    2.8724    2.2814 C   0  0  0  0  0  0  0  0  0  0  0  0
    4.6356    3.6401    3.3809 H   0  0  0  0  0  0  0  0  0  0  0  0
    6.7479    2.0893    2.8925 H   0  0  0  0  0  0  0  0  0  0  0  0
    6.3581    2.6068    1.2172 H   0  0  0  0  0  0  0  0  0  0  0  0
    6.7814    3.8324    2.4603 H   0  0  0  0  0  0  0  0  0  0  0  0
  1  3  1  0  0  0  0
  1  7  1  0  0  0  0
  1  2  2  0  0  0  0
 37 38  1  0  0  0  0
 38 46  1  0  0  0  0
 38 39  2  0  0  0  0
  8  9  1  0  0  0  0
  9 17  1  0  0  0  0
  9 10  2  0  0  0  0
 18 19  1  0  0  0  0
 19 36  1  0  0  0  0
 19 20  2  0  0  0  0
 22 24  1  0  0  0  0
 37 40  1  0  0  0  0
  8 11  1  0  0  0  0
 21 23  1  0  0  0  0
 46 47  1  0  0  0  0
 21 22  1  0  0  0  0
 36 37  1  0  0  0  0
  7  8  1  0  0  0  0
 18 21  1  0  0  0  0
 17 18  1  0  0  0  0
  3  4  1  0  0  0  0
  3  5  1  0  0  0  0
  3  6  1  0  0  0  0
 24 33  1  0  0  0  0
 24 34  1  0  0  0  0
 24 35  1  0  0  0  0
 40 43  1  0  0  0  0
 40 44  1  0  0  0  0
 40 45  1  0  0  0  0
 11 14  1  0  0  0  0
 11 15  1  0  0  0  0
 11 16  1  0  0  0  0
 23 30  1  0  0  0  0
 23 31  1  0  0  0  0
 23 32  1  0  0  0  0
 47 49  1  0  0  0  0
 47 50  1  0  0  0  0
 47 51  1  0  0  0  0
 22 28  1  0  0  0  0
 22 29  1  0  0  0  0
 37 42  1  0  0  0  0
  8 13  1  0  0  0  0
 18 26  1  0  0  0  0
 21 27  1  0  0  0  0
 46 48  1  0  0  0  0
  7 12  1  0  0  0  0
 36 41  1  0  0  0  0
 17 25  1  0  0  0  0
M  END
$$$$

  -OEChem-05262214473D

 51 50  0     1  0  0  0  0  0999 V2000
    1.3524   -3.0009    1.4091 C   0  0  0  0  0  0  0  0  0  0  0  0
    1.8758   -1.9880    0.9598 O   0  0  0  0  0  0  0  0  0  0  0  0
    2.2030   -4.1782    1.7536 C   0  0  0  0  0  0  0  0  0  0  0  0
    2.3264   -4.8705    0.9053 H   0  0  0  0  0  0  0  0  0  0  0  0
    3.2257   -3.8876    2.0432 H   0  0  0  0  0  0  0  0  0  0  0  0
    1.8327   -4.8004    2.5839 H   0  0  0  0  0  0  0  0  0  0  0  0
    0.0005   -3.1873    1.6465 N   0  0  0  0  0  0  0  0  0  0  0  0
   -0.9949   -2.1807    1.3864 C   0  0  2  0  0  0  0  0  0  0  0  0
   -0.3083   -0.8216    1.4164 C   0  0  0  0  0  0  0  0  0  0  0  0
    0.7533   -0.6191    2.0022 O   0  0  0  0  0  0  0  0  0  0  0  0
   -2.1232   -2.2423    2.4042 C   0  0  0  0  0  0  0  0  0  0  0  0
   -0.3048   -4.0823    2.0245 H   0  0  0  0  0  0  0  0  0  0  0  0
   -1.3830   -2.3724    0.3801 H   0  0  0  0  0  0  0  0  0  0  0  0
   -1.7534   -2.0527    3.4185 H   0  0  0  0  0  0  0  0  0  0  0  0
   -2.8936   -1.4947    2.1882 H   0  0  0  0  0  0  0  0  0  0  0  0
   -2.5964   -3.2301    2.4022 H   0  0  0  0  0  0  0  0  0  0  0  0
   -1.0412    0.1517    0.7482 N   0  0  0  0  0  0  0  0  0  0  0  0
   -0.6079    1.5223    0.6467 C   0  0  2  0  0  0  0  0  0  0  0  0
    0.2153    1.8548    1.8905 C   0  0  0  0  0  0  0  0  0  0  0  0
   -0.1200    1.5156    3.0236 O   0  0  0  0  0  0  0  0  0  0  0  0
   -1.7781    2.5117    0.4292 C   0  0  2  0  0  0  0  0  0  0  0  0
   -2.5176    2.2585   -0.9033 C   0  0  0  0  0  0  0  0  0  0  0  0
   -1.2736    3.9573    0.5307 C   0  0  0  0  0  0  0  0  0  0  0  0
   -3.8255    3.0296   -1.0277 C   0  0  0  0  0  0  0  0  0  0  0  0
   -1.9022   -0.1128    0.2753 H   0  0  0  0  0  0  0  0  0  0  0  0
    0.0718    1.5591   -0.2142 H   0  0  0  0  0  0  0  0  0  0  0  0
   -2.5001    2.3662    1.2439 H   0  0  0  0  0  0  0  0  0  0  0  0
   -1.8764    2.5550   -1.7413 H   0  0  0  0  0  0  0  0  0  0  0  0
   -2.7272    1.1894   -1.0271 H   0  0  0  0  0  0  0  0  0  0  0  0
   -0.5446    4.1714   -0.2583 H   0  0  0  0  0  0  0  0  0  0  0  0
   -2.0934    4.6723    0.4116 H   0  0  0  0  0  0  0  0  0  0  0  0
   -0.7952    4.1489    1.4967 H   0  0  0  0  0  0  0  0  0  0  0  0
   -4.5181    2.7814   -0.2185 H   0  0  0  0  0  0  0  0  0  0  0  0
   -4.3196    2.7781   -1.9720 H   0  0  0  0  0  0  0  0  0  0  0  0
   -3.6482    4.1095   -1.0163 H   0  0  0  0  0  0  0  0  0  0  0  0
    1.3794    2.5432    1.5794 N   0  0  0  0  0  0  0  0  0  0  0  0
    2.3439    2.9590    2.5721 C   0  0  2  0  0  0  0  0  0  0  0  0
    3.7054    3.0500    1.8957 C   0  0  0  0  0  0  0  0  0  0  0  0
    3.9832    2.4440    0.8629 O   0  0  0  0  0  0  0  0  0  0  0  0
    2.3831    1.9916    3.7448 C   0  0  0  0  0  0  0  0  0  0  0  0
    1.5626    2.7659    0.6056 H   0  0  0  0  0  0  0  0  0  0  0  0
    2.0377    3.9540    2.9132 H   0  0  0  0  0  0  0  0  0  0  0  0
    2.6879    0.9893    3.4224 H   0  0  0  0  0  0  0  0  0  0  0  0
    3.0937    2.3233    4.5091 H   0  0  0  0  0  0  0  0  0  0  0  0
    1.3960    1.9048    4.2116 H   0  0  0  0  0  0  0  0  0  0  0  0
    4.5876    3.8535    2.6044 N   0  0  0  0  0  0  0  0  0  0  0  0
    5.9462    4.0879    2.1742 C   0  0  0  0  0  0  0  0  0  0  0  0
    4.2660    4.3321    3.4406 H   0  0  0  0  0  0  0  0  0  0  0  0
    6.6129    3.3502    2.6448 H   0  0  0  0  0  0  0  0  0  0  0  0
    6.0062    3.9907    1.0801 H   0  0  0  0  0  0  0  0  0  0  0  0
    6.2546    5.1016    2.4697 H   0  0  0  0  0  0  0  0  0  0  0  0
  1  3  1  0  0  0  0
  1  7  1  0  0  0  0
  1  2  2  0  0  0  0
 37 38  1  0  0  0  0
 38 46  1  0  0  0  0
 38 39  2  0  0  0  0
  8  9  1  0  0  0  0
  9 17  1  0  0  0  0
  9 10  2  0  0  0  0
 18 19  1  0  0  0  0
 19 36  1  0  0  0  0
 19 20  2  0  0  0  0
 22 24  1  0  0  0  0
 37 40  1  0  0  0  0
  8 11  1  0  0  0  0
 21 23  1  0  0  0  0
 46 47  1  0  0  0  0
 21 22  1  0  0  0  0
 36 37  1  0  0  0  0
  7  8  1  0  0  0  0
 18 21  1  0  0  0  0
 17 18  1  0  0  0  0
  3  4  1  0  0  0  0
  3  5  1  0  0  0  0
  3  6  1  0  0  0  0
 24 33  1  0  0  0  0
 24 34  1  0  0  0  0
 24 35  1  0  0  0  0
 40 43  1  0  0  0  0
 40 44  1  0  0  0  0
 40 45  1  0  0  0  0
 11 14  1  0  0  0  0
 11 15  1  0  0  0  0
 11 16  1  0  0  0  0
 23 30  1  0  0  0  0
 23 31  1  0  0  0  0
 23 32  1  0  0  0  0
 47 49  1  0  0  0  0
 47 50  1  0  0  0  0
 47 51  1  0  0  0  0
 22 28  1  0  0  0  0
 22 29  1  0  0  0  0
 37 42  1  0  0  0  0
  8 13  1  0  0  0  0
 18 26  1  0  0  0  0
 21 27  1  0  0  0  0
 46 48  1  0  0  0  0
  7 12  1  0  0  0  0
 36 41  1  0  0  0  0
 17 25  1  0  0  0  0
M  END
$$$$

  -OEChem-05262214473D

 51 50  0     1  0  0  0  0  0999 V2000
    1.3524   -3.0009    1.4091 C   0  0  0  0  0  0  0  0  0  0  0  0
    1.8758   -1.9880    0.9598 O   0  0  0  0  0  0  0  0  0  0  0  0
    2.2030   -4.1782    1.7536 C   0  0  0  0  0  0  0  0  0  0  0  0
    2.3264   -4.8705    0.9053 H   0  0  0  0  0  0  0  0  0  0  0  0
    3.2257   -3.8876    2.0432 H   0  0  0  0  0  0  0  0  0  0  0  0
    1.8327   -4.8004    2.5839 H   0  0  0  0  0  0  0  0  0  0  0  0
    0.0005   -3.1873    1.6465 N   0  0  0  0  0  0  0  0  0  0  0  0
   -0.9949   -2.1807    1.3864 C   0  0  2  0  0  0  0  0  0  0  0  0
   -0.3083   -0.8216    1.4164 C   0  0  0  0  0  0  0  0  0  0  0  0
    0.7533   -0.6191    2.0022 O   0  0  0  0  0  0  0  0  0  0  0  0
   -2.1232   -2.2423    2.4042 C   0  0  0  0  0  0  0  0  0  0  0  0
   -0.3048   -4.0823    2.0245 H   0  0  0  0  0  0  0  0  0  0  0  0
   -1.3830   -2.3724    0.3801 H   0  0  0  0  0  0  0  0  0  0  0  0
   -1.7534   -2.0527    3.4185 H   0  0  0  0  0  0  0  0  0  0  0  0
   -2.8936   -1.4947    2.1882 H   0  0  0  0  0  0  0  0  0  0  0  0
   -2.5964   -3.2301    2.4022 H   0  0  0  0  0  0  0  0  0  0  0  0
   -1.0412    0.1517    0.7482 N   0  0  0  0  0  0  0  0  0  0  0  0
   -0.6079    1.5223    0.6467 C   0  0  2  0  0  0  0  0  0  0  0  0
    0.2153    1.8548    1.8905 C   0  0  0  0  0  0  0  0  0  0  0  0
    0.0390    1.3035    2.9751 O   0  0  0  0  0  0  0  0  0  0  0  0
   -1.7781    2.5117    0.4292 C   0  0  2  0  0  0  0  0  0  0  0  0
   -2.5176    2.2585   -0.9033 C   0  0  0  0  0  0  0  0  0  0  0  0
   -1.2736    3.9573    0.5307 C   0  0  0  0  0  0  0  0  0  0  0  0
   -3.8255    3.0296   -1.0277 C   0  0  0  0  0  0  0  0  0  0  0  0
   -1.9022   -0.1128    0.2753 H   0  0  0  0  0  0  0  0  0  0  0  0
    0.0718    1.5591   -0.2142 H   0  0  0  0  0  0  0  0  0  0  0  0
   -2.5001    2.3662    1.2439 H   0  0  0  0  0  0  0  0  0  0  0  0
   -1.8764    2.5550   -1.7413 H   0  0  0  0  0  0  0  0  0  0  0  0
   -2.7272    1.1894   -1.0271 H   0  0  0  0  0  0  0  0  0  0  0  0
   -0.5446    4.1714   -0.2583 H   0  0  0  0  0  0  0  0  0  0  0  0
   -2.0934    4.6723    0.4116 H   0  0  0  0  0  0  0  0  0  0  0  0
   -0.7952    4.1489    1.4967 H   0  0  0  0  0  0  0  0  0  0  0  0
   -4.5181    2.7814   -0.2185 H   0  0  0  0  0  0  0  0  0  0  0  0
   -4.3196    2.7781   -1.9720 H   0  0  0  0  0  0  0  0  0  0  0  0
   -3.6482    4.1095   -1.0163 H   0  0  0  0  0  0  0  0  0  0  0  0
    1.1868    2.8122    1.6350 N   0  0  0  0  0  0  0  0  0  0  0  0
    2.1128    3.2891    2.6368 C   0  0  2  0  0  0  0  0  0  0  0  0
    3.3744    3.7596    1.9251 C   0  0  0  0  0  0  0  0  0  0  0  0
    3.6971    3.3707    0.8045 O   0  0  0  0  0  0  0  0  0  0  0  0
    2.4346    2.2051    3.6537 C   0  0  0  0  0  0  0  0  0  0  0  0
    1.2502    3.1969    0.6971 H   0  0  0  0  0  0  0  0  0  0  0  0
    1.6327    4.1405    3.1314 H   0  0  0  0  0  0  0  0  0  0  0  0
    2.9162    1.3438    3.1766 H   0  0  0  0  0  0  0  0  0  0  0  0
    3.1139    2.5766    4.4280 H   0  0  0  0  0  0  0  0  0  0  0  0
    1.5226    1.8470    4.1433 H   0  0  0  0  0  0  0  0  0  0  0  0
    4.1197    4.6318    2.7060 N   0  0  0  0  0  0  0  0  0  0  0  0
    5.3664    5.2077    2.2587 C   0  0  0  0  0  0  0  0  0  0  0  0
    3.7665    4.9144    3.6155 H   0  0  0  0  0  0  0  0  0  0  0  0
    6.2029    4.5743    2.5889 H   0  0  0  0  0  0  0  0  0  0  0  0
    5.3670    5.2725    1.1606 H   0  0  0  0  0  0  0  0  0  0  0  0
    5.4788    6.2153    2.6855 H   0  0  0  0  0  0  0  0  0  0  0  0
  1  3  1  0  0  0  0
  1  7  1  0  0  0  0
  1  2  2  0  0  0  0
 37 38  1  0  0  0  0
 38 46  1  0  0  0  0
 38 39  2  0  0  0  0
  8  9  1  0  0  0  0
  9 17  1  0  0  0  0
  9 10  2  0  0  0  0
 18 19  1  0  0  0  0
 19 36  1  0  0  0  0
 19 20  2  0  0  0  0
 22 24  1  0  0  0  0
 37 40  1  0  0  0  0
  8 11  1  0  0  0  0
 21 23  1  0  0  0  0
 46 47  1  0  0  0  0
 21 22  1  0  0  0  0
 36 37  1  0  0  0  0
  7  8  1  0  0  0  0
 18 21  1  0  0  0  0
 17 18  1  0  0  0  0
  3  4  1  0  0  0  0
  3  5  1  0  0  0  0
  3  6  1  0  0  0  0
 24 33  1  0  0  0  0
 24 34  1  0  0  0  0
 24 35  1  0  0  0  0
 40 43  1  0  0  0  0
 40 44  1  0  0  0  0
 40 45  1  0  0  0  0
 11 14  1  0  0  0  0
 11 15  1  0  0  0  0
 11 16  1  0  0  0  0
 23 30  1  0  0  0  0
 23 31  1  0  0  0  0
 23 32  1  0  0  0  0
 47 49  1  0  0  0  0
 47 50  1  0  0  0  0
 47 51  1  0  0  0  0
 22 28  1  0  0  0  0
 22 29  1  0  0  0  0
 37 42  1  0  0  0  0
  8 13  1  0  0  0  0
 18 26  1  0  0  0  0
 21 27  1  0  0  0  0
 46 48  1  0  0  0  0
  7 12  1  0  0  0  0
 36 41  1  0  0  0  0
 17 25  1  0  0  0  0
M  END
$$$$

  -OEChem-05262214473D

 51 50  0     1  0  0  0  0  0999 V2000
    1.3524   -3.0009    1.4091 C   0  0  0  0  0  0  0  0  0  0  0  0
    1.8758   -1.9880    0.9598 O   0  0  0  0  0  0  0  0  0  0  0  0
    2.2030   -4.1782    1.7536 C   0  0  0  0  0  0  0  0  0  0  0  0
    2.3264   -4.8705    0.9053 H   0  0  0  0  0  0  0  0  0  0  0  0
    3.2257   -3.8876    2.0432 H   0  0  0  0  0  0  0  0  0  0  0  0
    1.8327   -4.8004    2.5839 H   0  0  0  0  0  0  0  0  0  0  0  0
    0.0005   -3.1873    1.6465 N   0  0  0  0  0  0  0  0  0  0  0  0
   -0.9949   -2.1807    1.3864 C   0  0  2  0  0  0  0  0  0  0  0  0
   -0.3083   -0.8216    1.4164 C   0  0  0  0  0  0  0  0  0  0  0  0
    0.7533   -0.6191    2.0022 O   0  0  0  0  0  0  0  0  0  0  0  0
   -2.1232   -2.2423    2.4042 C   0  0  0  0  0  0  0  0  0  0  0  0
   -0.3048   -4.0823    2.0245 H   0  0  0  0  0  0  0  0  0  0  0  0
   -1.3830   -2.3724    0.3801 H   0  0  0  0  0  0  0  0  0  0  0  0
   -1.7534   -2.0527    3.4185 H   0  0  0  0  0  0  0  0  0  0  0  0
   -2.8936   -1.4947    2.1882 H   0  0  0  0  0  0  0  0  0  0  0  0
   -2.5964   -3.2301    2.4022 H   0  0  0  0  0  0  0  0  0  0  0  0
   -1.0412    0.1517    0.7482 N   0  0  0  0  0  0  0  0  0  0  0  0
   -0.6079    1.5223    0.6467 C   0  0  2  0  0  0  0  0  0  0  0  0
    0.2153    1.8548    1.8905 C   0  0  0  0  0  0  0  0  0  0  0  0
    0.2345    1.1388    2.8897 O   0  0  0  0  0  0  0  0  0  0  0  0
   -1.7781    2.5117    0.4292 C   0  0  2  0  0  0  0  0  0  0  0  0
   -2.5176    2.2585   -0.9033 C   0  0  0  0  0  0  0  0  0  0  0  0
   -1.2736    3.9573    0.5307 C   0  0  0  0  0  0  0  0  0  0  0  0
   -3.8255    3.0296   -1.0277 C   0  0  0  0  0  0  0  0  0  0  0  0
   -1.9022   -0.1128    0.2753 H   0  0  0  0  0  0  0  0  0  0  0  0
    0.0718    1.5591   -0.2142 H   0  0  0  0  0  0  0  0  0  0  0  0
   -2.5001    2.3662    1.2439 H   0  0  0  0  0  0  0  0  0  0  0  0
   -1.8764    2.5550   -1.7413 H   0  0  0  0  0  0  0  0  0  0  0  0
   -2.7272    1.1894   -1.0271 H   0  0  0  0  0  0  0  0  0  0  0  0
   -0.5446    4.1714   -0.2583 H   0  0  0  0  0  0  0  0  0  0  0  0
   -2.0934    4.6723    0.4116 H   0  0  0  0  0  0  0  0  0  0  0  0
   -0.7952    4.1489    1.4967 H   0  0  0  0  0  0  0  0  0  0  0  0
   -4.5181    2.7814   -0.2185 H   0  0  0  0  0  0  0  0  0  0  0  0
   -4.3196    2.7781   -1.9720 H   0  0  0  0  0  0  0  0  0  0  0  0
   -3.6482    4.1095   -1.0163 H   0  0  0  0  0  0  0  0  0  0  0  0
    0.9472    3.0237    1.7370 N   0  0  0  0  0  0  0  0  0  0  0  0
    1.8237    3.5503    2.7583 C   0  0  2  0  0  0  0  0  0  0  0  0
    2.9068    4.3713    2.0711 C   0  0  0  0  0  0  0  0  0  0  0  0
    3.2222    4.2137    0.8935 O   0  0  0  0  0  0  0  0  0  0  0  0
    2.4342    2.4349    3.5925 C   0  0  0  0  0  0  0  0  0  0  0  0
    0.8628    3.5346    0.8632 H   0  0  0  0  0  0  0  0  0  0  0  0
    1.2145    4.2050    3.3910 H   0  0  0  0  0  0  0  0  0  0  0  0
    3.0481    1.7685    2.9757 H   0  0  0  0  0  0  0  0  0  0  0  0
    3.0754    2.8368    4.3839 H   0  0  0  0  0  0  0  0  0  0  0  0
    1.6531    1.8273    4.0622 H   0  0  0  0  0  0  0  0  0  0  0  0
    3.5095    5.2710    2.9391 N   0  0  0  0  0  0  0  0  0  0  0  0
    4.5751    6.1554    2.5290 C   0  0  0  0  0  0  0  0  0  0  0  0
    3.1713    5.3472    3.8938 H   0  0  0  0  0  0  0  0  0  0  0  0
    5.5458    5.6780    2.7288 H   0  0  0  0  0  0  0  0  0  0  0  0
    4.4841    6.3647    1.4530 H   0  0  0  0  0  0  0  0  0  0  0  0
    4.5070    7.0974    3.0929 H   0  0  0  0  0  0  0  0  0  0  0  0
  1  3  1  0  0  0  0
  1  7  1  0  0  0  0
  1  2  2  0  0  0  0
 37 38  1  0  0  0  0
 38 46  1  0  0  0  0
 38 39  2  0  0  0  0
  8  9  1  0  0  0  0
  9 17  1  0  0  0  0
  9 10  2  0  0  0  0
 18 19  1  0  0  0  0
 19 36  1  0  0  0  0
 19 20  2  0  0  0  0
 22 24  1  0  0  0  0
 37 40  1  0  0  0  0
  8 11  1  0  0  0  0
 21 23  1  0  0  0  0
 46 47  1  0  0  0  0
 21 22  1  0  0  0  0
 36 37  1  0  0  0  0
  7  8  1  0  0  0  0
 18 21  1  0  0  0  0
 17 18  1  0  0  0  0
  3  4  1  0  0  0  0
  3  5  1  0  0  0  0
  3  6  1  0  0  0  0
 24 33  1  0  0  0  0
 24 34  1  0  0  0  0
 24 35  1  0  0  0  0
 40 43  1  0  0  0  0
 40 44  1  0  0  0  0
 40 45  1  0  0  0  0
 11 14  1  0  0  0  0
 11 15  1  0  0  0  0
 11 16  1  0  0  0  0
 23 30  1  0  0  0  0
 23 31  1  0  0  0  0
 23 32  1  0  0  0  0
 47 49  1  0  0  0  0
 47 50  1  0  0  0  0
 47 51  1  0  0  0  0
 22 28  1  0  0  0  0
 22 29  1  0  0  0  0
 37 42  1  0  0  0  0
  8 13  1  0  0  0  0
 18 26  1  0  0  0  0
 21 27  1  0  0  0  0
 46 48  1  0  0  0  0
  7 12  1  0  0  0  0
 36 41  1  0  0  0  0
 17 25  1  0  0  0  0
M  END
$$$$

  -OEChem-05262214473D

 51 50  0     1  0  0  0  0  0999 V2000
    1.3524   -3.0009    1.4091 C   0  0  0  0  0  0  0  0  0  0  0  0
    1.8758   -1.9880    0.9598 O   0  0  0  0  0  0  0  0  0  0  0  0
    2.2030   -4.1782    1.7536 C   0  0  0  0  0  0  0  0  0  0  0  0
    2.3264   -4.8705    0.9053 H   0  0  0  0  0  0  0  0  0  0  0  0
    3.2257   -3.8876    2.0432 H   0  0  0  0  0  0  0  0  0  0  0  0
    1.8327   -4.8004    2.5839 H   0  0  0  0  0  0  0  0  0  0  0  0
    0.0005   -3.1873    1.6465 N   0  0  0  0  0  0  0  0  0  0  0  0
   -0.9949   -2.1807    1.3864 C   0  0  2  0  0  0  0  0  0  0  0  0
   -0.3083   -0.8216    1.4164 C   0  0  0  0  0  0  0  0  0  0  0  0
    0.7533   -0.6191    2.0022 O   0  0  0  0  0  0  0  0  0  0  0  0
   -2.1232   -2.2423    2.4042 C   0  0  0  0  0  0  0  0  0  0  0  0
   -0.3048   -4.0823    2.0245 H   0  0  0  0  0  0  0  0  0  0  0  0
   -1.3830   -2.3724    0.3801 H   0  0  0  0  0  0  0  0  0  0  0  0
   -1.7534   -2.0527    3.4185 H   0  0  0  0  0  0  0  0  0  0  0  0
   -2.8936   -1.4947    2.1882 H   0  0  0  0  0  0  0  0  0  0  0  0
   -2.5964   -3.2301    2.4022 H   0  0  0  0  0  0  0  0  0  0  0  0
   -1.0412    0.1517    0.7482 N   0  0  0  0  0  0  0  0  0  0  0  0
   -0.6079    1.5223    0.6467 C   0  0  2  0  0  0  0  0  0  0  0  0
    0.5044    1.7471    1.6702 C   0  0  0  0  0  0  0  0  0  0  0  0
    0.9285    0.8551    2.4022 O   0  0  0  0  0  0  0  0  0  0  0  0
   -1.7676    2.5358    0.8002 C   0  0  2  0  0  0  0  0  0  0  0  0
   -2.8183    2.3965   -0.3237 C   0  0  0  0  0  0  0  0  0  0  0  0
   -1.2133    3.9643    0.8829 C   0  0  0  0  0  0  0  0  0  0  0  0
   -4.0946    3.1861   -0.0627 C   0  0  0  0  0  0  0  0  0  0  0  0
   -1.9022   -0.1128    0.2753 H   0  0  0  0  0  0  0  0  0  0  0  0
   -0.1596    1.6222   -0.3500 H   0  0  0  0  0  0  0  0  0  0  0  0
   -2.2713    2.3317    1.7545 H   0  0  0  0  0  0  0  0  0  0  0  0
   -2.3944    2.7537   -1.2692 H   0  0  0  0  0  0  0  0  0  0  0  0
   -3.0817    1.3425   -0.4723 H   0  0  0  0  0  0  0  0  0  0  0  0
   -0.6946    4.2348   -0.0431 H   0  0  0  0  0  0  0  0  0  0  0  0
   -2.0169    4.6935    1.0243 H   0  0  0  0  0  0  0  0  0  0  0  0
   -0.5073    4.0738    1.7125 H   0  0  0  0  0  0  0  0  0  0  0  0
   -4.5741    2.8797    0.8713 H   0  0  0  0  0  0  0  0  0  0  0  0
   -4.8122    3.0153   -0.8719 H   0  0  0  0  0  0  0  0  0  0  0  0
   -3.8898    4.2601   -0.0139 H   0  0  0  0  0  0  0  0  0  0  0  0
    0.9855    3.0484    1.6435 N   0  0  0  0  0  0  0  0  0  0  0  0
    2.0526    3.5169    2.4980 C   0  0  2  0  0  0  0  0  0  0  0  0
    2.7478    4.6731    1.7912 C   0  0  0  0  0  0  0  0  0  0  0  0
    2.7038    4.8392    0.5740 O   0  0  0  0  0  0  0  0  0  0  0  0
    3.0376    2.4024    2.8148 C   0  0  0  0  0  0  0  0  0  0  0  0
    0.5667    3.7044    0.9908 H   0  0  0  0  0  0  0  0  0  0  0  0
    1.5840    3.8800    3.4191 H   0  0  0  0  0  0  0  0  0  0  0  0
    3.5173    2.0259    1.9039 H   0  0  0  0  0  0  0  0  0  0  0  0
    3.8298    2.7517    3.4852 H   0  0  0  0  0  0  0  0  0  0  0  0
    2.5305    1.5593    3.2962 H   0  0  0  0  0  0  0  0  0  0  0  0
    3.4588    5.4732    2.6747 N   0  0  0  0  0  0  0  0  0  0  0  0
    4.2141    6.6273    2.2465 C   0  0  0  0  0  0  0  0  0  0  0  0
    3.4239    5.2721    3.6698 H   0  0  0  0  0  0  0  0  0  0  0  0
    5.2551    6.3321    2.0485 H   0  0  0  0  0  0  0  0  0  0  0  0
    3.7683    7.0370    1.3281 H   0  0  0  0  0  0  0  0  0  0  0  0
    4.1941    7.3923    3.0367 H   0  0  0  0  0  0  0  0  0  0  0  0
  1  3  1  0  0  0  0
  1  7  1  0  0  0  0
  1  2  2  0  0  0  0
 37 38  1  0  0  0  0
 38 46  1  0  0  0  0
 38 39  2  0  0  0  0
  8  9  1  0  0  0  0
  9 17  1  0  0  0  0
  9 10  2  0  0  0  0
 18 19  1  0  0  0  0
 19 36  1  0  0  0  0
 19 20  2  0  0  0  0
 22 24  1  0  0  0  0
 37 40  1  0  0  0  0
  8 11  1  0  0  0  0
 21 23  1  0  0  0  0
 46 47  1  0  0  0  0
 21 22  1  0  0  0  0
 36 37  1  0  0  0  0
  7  8  1  0  0  0  0
 18 21  1  0  0  0  0
 17 18  1  0  0  0  0
  3  4  1  0  0  0  0
  3  5  1  0  0  0  0
  3  6  1  0  0  0  0
 24 33  1  0  0  0  0
 24 34  1  0  0  0  0
 24 35  1  0  0  0  0
 40 43  1  0  0  0  0
 40 44  1  0  0  0  0
 40 45  1  0  0  0  0
 11 14  1  0  0  0  0
 11 15  1  0  0  0  0
 11 16  1  0  0  0  0
 23 30  1  0  0  0  0
 23 31  1  0  0  0  0
 23 32  1  0  0  0  0
 47 49  1  0  0  0  0
 47 50  1  0  0  0  0
 47 51  1  0  0  0  0
 22 28  1  0  0  0  0
 22 29  1  0  0  0  0
 37 42  1  0  0  0  0
  8 13  1  0  0  0  0
 18 26  1  0  0  0  0
 21 27  1  0  0  0  0
 46 48  1  0  0  0  0
  7 12  1  0  0  0  0
 36 41  1  0  0  0  0
 17 25  1  0  0  0  0
M  END
$$$$

  -OEChem-05262214473D

 51 50  0     1  0  0  0  0  0999 V2000
    1.3524   -3.0009    1.4091 C   0  0  0  0  0  0  0  0  0  0  0  0
    1.8758   -1.9880    0.9598 O   0  0  0  0  0  0  0  0  0  0  0  0
    2.2030   -4.1782    1.7536 C   0  0  0  0  0  0  0  0  0  0  0  0
    2.3264   -4.8705    0.9053 H   0  0  0  0  0  0  0  0  0  0  0  0
    3.2257   -3.8876    2.0432 H   0  0  0  0  0  0  0  0  0  0  0  0
    1.8327   -4.8004    2.5839 H   0  0  0  0  0  0  0  0  0  0  0  0
    0.0005   -3.1873    1.6465 N   0  0  0  0  0  0  0  0  0  0  0  0
   -0.9949   -2.1807    1.3864 C   0  0  2  0  0  0  0  0  0  0  0  0
   -0.3083   -0.8216    1.4164 C   0  0  0  0  0  0  0  0  0  0  0  0
    0.7533   -0.6191    2.0022 O   0  0  0  0  0  0  0  0  0  0  0  0
   -2.1232   -2.2423    2.4042 C   0  0  0  0  0  0  0  0  0  0  0  0
   -0.3048   -4.0823    2.0245 H   0  0  0  0  0  0  0  0  0  0  0  0
   -1.3830   -2.3724    0.3801 H   0  0  0  0  0  0  0  0  0  0  0  0
   -1.7534   -2.0527    3.4185 H   0  0  0  0  0  0  0  0  0  0  0  0
   -2.8936   -1.4947    2.1882 H   0  0  0  0  0  0  0  0  0  0  0  0
   -2.5964   -3.2301    2.4022 H   0  0  0  0  0  0  0  0  0  0  0  0
   -1.0412    0.1517    0.7482 N   0  0  0  0  0  0  0  0  0  0  0  0
   -0.6079    1.5223    0.6467 C   0  0  2  0  0  0  0  0  0  0  0  0
    0.5044    1.7471    1.6702 C   0  0  0  0  0  0  0  0  0  0  0  0
    1.1131    0.8245    2.2083 O   0  0  0  0  0  0  0  0  0  0  0  0
   -1.7676    2.5358    0.8002 C   0  0  2  0  0  0  0  0  0  0  0  0
   -2.8183    2.3965   -0.3237 C   0  0  0  0  0  0  0  0  0  0  0  0
   -1.2133    3.9643    0.8829 C   0  0  0  0  0  0  0  0  0  0  0  0
   -4.0946    3.1861   -0.0627 C   0  0  0  0  0  0  0  0  0  0  0  0
   -1.9022   -0.1128    0.2753 H   0  0  0  0  0  0  0  0  0  0  0  0
   -0.1596    1.6222   -0.3500 H   0  0  0  0  0  0  0  0  0  0  0  0
   -2.2713    2.3317    1.7545 H   0  0  0  0  0  0  0  0  0  0  0  0
   -2.3944    2.7537   -1.2692 H   0  0  0  0  0  0  0  0  0  0  0  0
   -3.0817    1.3425   -0.4723 H   0  0  0  0  0  0  0  0  0  0  0  0
   -0.6946    4.2348   -0.0431 H   0  0  0  0  0  0  0  0  0  0  0  0
   -2.0169    4.6935    1.0243 H   0  0  0  0  0  0  0  0  0  0  0  0
   -0.5073    4.0738    1.7125 H   0  0  0  0  0  0  0  0  0  0  0  0
   -4.5741    2.8797    0.8713 H   0  0  0  0  0  0  0  0  0  0  0  0
   -4.8122    3.0153   -0.8719 H   0  0  0  0  0  0  0  0  0  0  0  0
   -3.8898    4.2601   -0.0139 H   0  0  0  0  0  0  0  0  0  0  0  0
    0.7555    3.0951    1.8832 N   0  0  0  0  0  0  0  0  0  0  0  0
    1.7728    3.5788    2.7885 C   0  0  2  0  0  0  0  0  0  0  0  0
    2.2220    4.9503    2.3018 C   0  0  0  0  0  0  0  0  0  0  0  0
    2.0839    5.3282    1.1403 O   0  0  0  0  0  0  0  0  0  0  0  0
    2.9484    2.6171    2.8645 C   0  0  0  0  0  0  0  0  0  0  0  0
    0.1964    3.7759    1.3775 H   0  0  0  0  0  0  0  0  0  0  0  0
    1.3004    3.6763    3.7721 H   0  0  0  0  0  0  0  0  0  0  0  0
    3.4345    2.5066    1.8883 H   0  0  0  0  0  0  0  0  0  0  0  0
    3.7053    2.9709    3.5724 H   0  0  0  0  0  0  0  0  0  0  0  0
    2.6188    1.6233    3.1861 H   0  0  0  0  0  0  0  0  0  0  0  0
    2.8341    5.6860    3.3069 N   0  0  0  0  0  0  0  0  0  0  0  0
    3.3581    7.0146    3.0918 C   0  0  0  0  0  0  0  0  0  0  0  0
    2.8883    5.3013    4.2454 H   0  0  0  0  0  0  0  0  0  0  0  0
    4.4217    6.9500    2.8185 H   0  0  0  0  0  0  0  0  0  0  0  0
    2.7997    7.5016    2.2788 H   0  0  0  0  0  0  0  0  0  0  0  0
    3.2518    7.6043    4.0142 H   0  0  0  0  0  0  0  0  0  0  0  0
  1  3  1  0  0  0  0
  1  7  1  0  0  0  0
  1  2  2  0  0  0  0
 37 38  1  0  0  0  0
 38 46  1  0  0  0  0
 38 39  2  0  0  0  0
  8  9  1  0  0  0  0
  9 17  1  0  0  0  0
  9 10  2  0  0  0  0
 18 19  1  0  0  0  0
 19 36  1  0  0  0  0
 19 20  2  0  0  0  0
 22 24  1  0  0  0  0
 37 40  1  0  0  0  0
  8 11  1  0  0  0  0
 21 23  1  0  0  0  0
 46 47  1  0  0  0  0
 21 22  1  0  0  0  0
 36 37  1  0  0  0  0
  7  8  1  0  0  0  0
 18 21  1  0  0  0  0
 17 18  1  0  0  0  0
  3  4  1  0  0  0  0
  3  5  1  0  0  0  0
  3  6  1  0  0  0  0
 24 33  1  0  0  0  0
 24 34  1  0  0  0  0
 24 35  1  0  0  0  0
 40 43  1  0  0  0  0
 40 44  1  0  0  0  0
 40 45  1  0  0  0  0
 11 14  1  0  0  0  0
 11 15  1  0  0  0  0
 11 16  1  0  0  0  0
 23 30  1  0  0  0  0
 23 31  1  0  0  0  0
 23 32  1  0  0  0  0
 47 49  1  0  0  0  0
 47 50  1  0  0  0  0
 47 51  1  0  0  0  0
 22 28  1  0  0  0  0
 22 29  1  0  0  0  0
 37 42  1  0  0  0  0
  8 13  1  0  0  0  0
 18 26  1  0  0  0  0
 21 27  1  0  0  0  0
 46 48  1  0  0  0  0
  7 12  1  0  0  0  0
 36 41  1  0  0  0  0
 17 25  1  0  0  0  0
M  END
$$$$

  -OEChem-05262214473D

 51 50  0     1  0  0  0  0  0999 V2000
    1.3524   -3.0009    1.4091 C   0  0  0  0  0  0  0  0  0  0  0  0
    1.8758   -1.9880    0.9598 O   0  0  0  0  0  0  0  0  0  0  0  0
    2.2030   -4.1782    1.7536 C   0  0  0  0  0  0  0  0  0  0  0  0
    2.3264   -4.8705    0.9053 H   0  0  0  0  0  0  0  0  0  0  0  0
    3.2257   -3.8876    2.0432 H   0  0  0  0  0  0  0  0  0  0  0  0
    1.8327   -4.8004    2.5839 H   0  0  0  0  0  0  0  0  0  0  0  0
    0.0005   -3.1873    1.6465 N   0  0  0  0  0  0  0  0  0  0  0  0
   -0.9949   -2.1807    1.3864 C   0  0  2  0  0  0  0  0  0  0  0  0
   -0.3083   -0.8216    1.4164 C   0  0  0  0  0  0  0  0  0  0  0  0
    0.7533   -0.6191    2.0022 O   0  0  0  0  0  0  0  0  0  0  0  0
   -2.1232   -2.2423    2.4042 C   0  0  0  0  0  0  0  0  0  0  0  0
   -0.3048   -4.0823    2.0245 H   0  0  0  0  0  0  0  0  0  0  0  0
   -1.3830   -2.3724    0.3801 H   0  0  0  0  0  0  0  0  0  0  0  0
   -1.7534   -2.0527    3.4185 H   0  0  0  0  0  0  0  0  0  0  0  0
   -2.8936   -1.4947    2.1882 H   0  0  0  0  0  0  0  0  0  0  0  0
   -2.5964   -3.2301    2.4022 H   0  0  0  0  0  0  0  0  0  0  0  0
   -1.0412    0.1517    0.7482 N   0  0  0  0  0  0  0  0  0  0  0  0
   -0.6079    1.5223    0.6467 C   0  0  2  0  0  0  0  0  0  0  0  0
    0.5044    1.7471    1.6702 C   0  0  0  0  0  0  0  0  0  0  0  0
    1.2894    0.8634    2.0082 O   0  0  0  0  0  0  0  0  0  0  0  0
   -1.7676    2.5358    0.8002 C   0  0  2  0  0  0  0  0  0  0  0  0
   -2.8183    2.3965   -0.3237 C   0  0  0  0  0  0  0  0  0  0  0  0
   -1.2133    3.9643    0.8829 C   0  0  0  0  0  0  0  0  0  0  0  0
   -4.0946    3.1861   -0.0627 C   0  0  0  0  0  0  0  0  0  0  0  0
   -1.9022   -0.1128    0.2753 H   0  0  0  0  0  0  0  0  0  0  0  0
   -0.1596    1.6222   -0.3500 H   0  0  0  0  0  0  0  0  0  0  0  0
   -2.2713    2.3317    1.7545 H   0  0  0  0  0  0  0  0  0  0  0  0
   -2.3944    2.7537   -1.2692 H   0  0  0  0  0  0  0  0  0  0  0  0
   -3.0817    1.3425   -0.4723 H   0  0  0  0  0  0  0  0  0  0  0  0
   -0.6946    4.2348   -0.0431 H   0  0  0  0  0  0  0  0  0  0  0  0
   -2.0169    4.6935    1.0243 H   0  0  0  0  0  0  0  0  0  0  0  0
   -0.5073    4.0738    1.7125 H   0  0  0  0  0  0  0  0  0  0  0  0
   -4.5741    2.8797    0.8713 H   0  0  0  0  0  0  0  0  0  0  0  0
   -4.8122    3.0153   -0.8719 H   0  0  0  0  0  0  0  0  0  0  0  0
   -3.8898    4.2601   -0.0139 H   0  0  0  0  0  0  0  0  0  0  0  0
    0.5344    3.0552    2.1322 N   0  0  0  0  0  0  0  0  0  0  0  0
    1.5028    3.5353    3.0915 C   0  0  2  0  0  0  0  0  0  0  0  0
    1.6855    5.0306    2.8673 C   0  0  0  0  0  0  0  0  0  0  0  0
    1.4220    5.5864    1.8030 O   0  0  0  0  0  0  0  0  0  0  0  0
    2.8270    2.7997    2.9564 C   0  0  0  0  0  0  0  0  0  0  0  0
   -0.1589    3.7079    1.7786 H   0  0  0  0  0  0  0  0  0  0  0  0
    1.0752    3.3640    4.0854 H   0  0  0  0  0  0  0  0  0  0  0  0
    3.2706    2.9595    1.9669 H   0  0  0  0  0  0  0  0  0  0  0  0
    3.5504    3.1446    3.7026 H   0  0  0  0  0  0  0  0  0  0  0  0
    2.6889    1.7211    3.0885 H   0  0  0  0  0  0  0  0  0  0  0  0
    2.2179    5.6642    3.9814 N   0  0  0  0  0  0  0  0  0  0  0  0
    2.4963    7.0810    4.0138 C   0  0  0  0  0  0  0  0  0  0  0  0
    2.3878    5.1283    4.8274 H   0  0  0  0  0  0  0  0  0  0  0  0
    3.5388    7.2574    3.7105 H   0  0  0  0  0  0  0  0  0  0  0  0
    1.8197    7.6034    3.3215 H   0  0  0  0  0  0  0  0  0  0  0  0
    2.3421    7.4616    5.0343 H   0  0  0  0  0  0  0  0  0  0  0  0
  1  3  1  0  0  0  0
  1  7  1  0  0  0  0
  1  2  2  0  0  0  0
 37 38  1  0  0  0  0
 38 46  1  0  0  0  0
 38 39  2  0  0  0  0
  8  9  1  0  0  0  0
  9 17  1  0  0  0  0
  9 10  2  0  0  0  0
 18 19  1  0  0  0  0
 19 36  1  0  0  0  0
 19 20  2  0  0  0  0
 22 24  1  0  0  0  0
 37 40  1  0  0  0  0
  8 11  1  0  0  0  0
 21 23  1  0  0  0  0
 46 47  1  0  0  0  0
 21 22  1  0  0  0  0
 36 37  1  0  0  0  0
  7  8  1  0  0  0  0
 18 21  1  0  0  0  0
 17 18  1  0  0  0  0
  3  4  1  0  0  0  0
  3  5  1  0  0  0  0
  3  6  1  0  0  0  0
 24 33  1  0  0  0  0
 24 34  1  0  0  0  0
 24 35  1  0  0  0  0
 40 43  1  0  0  0  0
 40 44  1  0  0  0  0
 40 45  1  0  0  0  0
 11 14  1  0  0  0  0
 11 15  1  0  0  0  0
 11 16  1  0  0  0  0
 23 30  1  0  0  0  0
 23 31  1  0  0  0  0
 23 32  1  0  0  0  0
 47 49  1  0  0  0  0
 47 50  1  0  0  0  0
 47 51  1  0  0  0  0
 22 28  1  0  0  0  0
 22 29  1  0  0  0  0
 37 42  1  0  0  0  0
  8 13  1  0  0  0  0
 18 26  1  0  0  0  0
 21 27  1  0  0  0  0
 46 48  1  0  0  0  0
  7 12  1  0  0  0  0
 36 41  1  0  0  0  0
 17 25  1  0  0  0  0
M  END
$$$$

  -OEChem-05262214473D

 51 50  0     1  0  0  0  0  0999 V2000
    1.3524   -3.0009    1.4091 C   0  0  0  0  0  0  0  0  0  0  0  0
    1.8758   -1.9880    0.9598 O   0  0  0  0  0  0  0  0  0  0  0  0
    2.2030   -4.1782    1.7536 C   0  0  0  0  0  0  0  0  0  0  0  0
    2.3264   -4.8705    0.9053 H   0  0  0  0  0  0  0  0  0  0  0  0
    3.2257   -3.8876    2.0432 H   0  0  0  0  0  0  0  0  0  0  0  0
    1.8327   -4.8004    2.5839 H   0  0  0  0  0  0  0  0  0  0  0  0
    0.0005   -3.1873    1.6465 N   0  0  0  0  0  0  0  0  0  0  0  0
   -0.9949   -2.1807    1.3864 C   0  0  2  0  0  0  0  0  0  0  0  0
   -0.3083   -0.8216    1.4164 C   0  0  0  0  0  0  0  0  0  0  0  0
    0.7533   -0.6191    2.0022 O   0  0  0  0  0  0  0  0  0  0  0  0
   -2.1232   -2.2423    2.4042 C   0  0  0  0  0  0  0  0  0  0  0  0
   -0.3048   -4.0823    2.0245 H   0  0  0  0  0  0  0  0  0  0  0  0
   -1.3830   -2.3724    0.3801 H   0  0  0  0  0  0  0  0  0  0  0  0
   -1.7534   -2.0527    3.4185 H   0  0  0  0  0  0  0  0  0  0  0  0
   -2.8936   -1.4947    2.1882 H   0  0  0  0  0  0  0  0  0  0  0  0
   -2.5964   -3.2301    2.4022 H   0  0  0  0  0  0  0  0  0  0  0  0
   -1.0412    0.1517    0.7482 N   0  0  0  0  0  0  0  0  0  0  0  0
   -0.6079    1.5223    0.6467 C   0  0  2  0  0  0  0  0  0  0  0  0
    0.5044    1.7471    1.6702 C   0  0  0  0  0  0  0  0  0  0  0  0
    1.4452    0.9693    1.8155 O   0  0  0  0  0  0  0  0  0  0  0  0
   -1.7676    2.5358    0.8002 C   0  0  2  0  0  0  0  0  0  0  0  0
   -2.8183    2.3965   -0.3237 C   0  0  0  0  0  0  0  0  0  0  0  0
   -1.2133    3.9643    0.8829 C   0  0  0  0  0  0  0  0  0  0  0  0
   -4.0946    3.1861   -0.0627 C   0  0  0  0  0  0  0  0  0  0  0  0
   -1.9022   -0.1128    0.2753 H   0  0  0  0  0  0  0  0  0  0  0  0
   -0.1596    1.6222   -0.3500 H   0  0  0  0  0  0  0  0  0  0  0  0
   -2.2713    2.3317    1.7545 H   0  0  0  0  0  0  0  0  0  0  0  0
   -2.3944    2.7537   -1.2692 H   0  0  0  0  0  0  0  0  0  0  0  0
   -3.0817    1.3425   -0.4723 H   0  0  0  0  0  0  0  0  0  0  0  0
   -0.6946    4.2348   -0.0431 H   0  0  0  0  0  0  0  0  0  0  0  0
   -2.0169    4.6935    1.0243 H   0  0  0  0  0  0  0  0  0  0  0  0
   -0.5073    4.0738    1.7125 H   0  0  0  0  0  0  0  0  0  0  0  0
   -4.5741    2.8797    0.8713 H   0  0  0  0  0  0  0  0  0  0  0  0
   -4.8122    3.0153   -0.8719 H   0  0  0  0  0  0  0  0  0  0  0  0
   -3.8898    4.2601   -0.0139 H   0  0  0  0  0  0  0  0  0  0  0  0
    0.3372    2.9314    2.3737 N   0  0  0  0  0  0  0  0  0  0  0  0
    1.2611    3.3894    3.3862 C   0  0  2  0  0  0  0  0  0  0  0  0
    1.1748    4.9087    3.4490 C   0  0  0  0  0  0  0  0  0  0  0  0
    0.7631    5.5962    2.5170 O   0  0  0  0  0  0  0  0  0  0  0  0
    2.6815    2.9377    3.0842 C   0  0  0  0  0  0  0  0  0  0  0  0
   -0.4751    3.5050    2.1668 H   0  0  0  0  0  0  0  0  0  0  0  0
    0.9238    2.9642    4.3378 H   0  0  0  0  0  0  0  0  0  0  0  0
    3.0368    3.3538    2.1344 H   0  0  0  0  0  0  0  0  0  0  0  0
    3.3756    3.2611    3.8669 H   0  0  0  0  0  0  0  0  0  0  0  0
    2.7358    1.8462    3.0099 H   0  0  0  0  0  0  0  0  0  0  0  0
    1.6522    5.4092    4.6523 N   0  0  0  0  0  0  0  0  0  0  0  0
    1.6875    6.8221    4.9498 C   0  0  0  0  0  0  0  0  0  0  0  0
    1.9566    4.7647    5.3760 H   0  0  0  0  0  0  0  0  0  0  0  0
    2.6668    7.2333    4.6636 H   0  0  0  0  0  0  0  0  0  0  0  0
    0.8952    7.3354    4.3852 H   0  0  0  0  0  0  0  0  0  0  0  0
    1.5269    6.9738    6.0274 H   0  0  0  0  0  0  0  0  0  0  0  0
  1  3  1  0  0  0  0
  1  7  1  0  0  0  0
  1  2  2  0  0  0  0
 37 38  1  0  0  0  0
 38 46  1  0  0  0  0
 38 39  2  0  0  0  0
  8  9  1  0  0  0  0
  9 17  1  0  0  0  0
  9 10  2  0  0  0  0
 18 19  1  0  0  0  0
 19 36  1  0  0  0  0
 19 20  2  0  0  0  0
 22 24  1  0  0  0  0
 37 40  1  0  0  0  0
  8 11  1  0  0  0  0
 21 23  1  0  0  0  0
 46 47  1  0  0  0  0
 21 22  1  0  0  0  0
 36 37  1  0  0  0  0
  7  8  1  0  0  0  0
 18 21  1  0  0  0  0
 17 18  1  0  0  0  0
  3  4  1  0  0  0  0
  3  5  1  0  0  0  0
  3  6  1  0  0  0  0
 24 33  1  0  0  0  0
 24 34  1  0  0  0  0
 24 35  1  0  0  0  0
 40 43  1  0  0  0  0
 40 44  1  0  0  0  0
 40 45  1  0  0  0  0
 11 14  1  0  0  0  0
 11 15  1  0  0  0  0
 11 16  1  0  0  0  0
 23 30  1  0  0  0  0
 23 31  1  0  0  0  0
 23 32  1  0  0  0  0
 47 49  1  0  0  0  0
 47 50  1  0  0  0  0
 47 51  1  0  0  0  0
 22 28  1  0  0  0  0
 22 29  1  0  0  0  0
 37 42  1  0  0  0  0
  8 13  1  0  0  0  0
 18 26  1  0  0  0  0
 21 27  1  0  0  0  0
 46 48  1  0  0  0  0
  7 12  1  0  0  0  0
 36 41  1  0  0  0  0
 17 25  1  0  0  0  0
M  END
$$$$

  -OEChem-05262214473D

 51 50  0     1  0  0  0  0  0999 V2000
    1.3524   -3.0009    1.4091 C   0  0  0  0  0  0  0  0  0  0  0  0
    1.8758   -1.9880    0.9598 O   0  0  0  0  0  0  0  0  0  0  0  0
    2.2030   -4.1782    1.7536 C   0  0  0  0  0  0  0  0  0  0  0  0
    2.3264   -4.8705    0.9053 H   0  0  0  0  0  0  0  0  0  0  0  0
    3.2257   -3.8876    2.0432 H   0  0  0  0  0  0  0  0  0  0  0  0
    1.8327   -4.8004    2.5839 H   0  0  0  0  0  0  0  0  0  0  0  0
    0.0005   -3.1873    1.6465 N   0  0  0  0  0  0  0  0  0  0  0  0
   -0.9949   -2.1807    1.3864 C   0  0  2  0  0  0  0  0  0  0  0  0
   -0.3083   -0.8216    1.4164 C   0  0  0  0  0  0  0  0  0  0  0  0
    0.7533   -0.6191    2.0022 O   0  0  0  0  0  0  0  0  0  0  0  0
   -2.1232   -2.2423    2.4042 C   0  0  0  0  0  0  0  0  0  0  0  0
   -0.3048   -4.0823    2.0245 H   0  0  0  0  0  0  0  0  0  0  0  0
   -1.3830   -2.3724    0.3801 H   0  0  0  0  0  0  0  0  0  0  0  0
   -1.7534   -2.0527    3.4185 H   0  0  0  0  0  0  0  0  0  0  0  0
   -2.8936   -1.4947    2.1882 H   0  0  0  0  0  0  0  0  0  0  0  0
   -2.5964   -3.2301    2.4022 H   0  0  0  0  0  0  0  0  0  0  0  0
   -1.0412    0.1517    0.7482 N   0  0  0  0  0  0  0  0  0  0  0  0
   -0.6079    1.5223    0.6467 C   0  0  2  0  0  0  0  0  0  0  0  0
    0.5044    1.7471    1.6702 C   0  0  0  0  0  0  0  0  0  0  0  0
    1.5701    1.1348    1.6435 O   0  0  0  0  0  0  0  0  0  0  0  0
   -1.7676    2.5358    0.8002 C   0  0  2  0  0  0  0  0  0  0  0  0
   -2.8183    2.3965   -0.3237 C   0  0  0  0  0  0  0  0  0  0  0  0
   -1.2133    3.9643    0.8829 C   0  0  0  0  0  0  0  0  0  0  0  0
   -4.0946    3.1861   -0.0627 C   0  0  0  0  0  0  0  0  0  0  0  0
   -1.9022   -0.1128    0.2753 H   0  0  0  0  0  0  0  0  0  0  0  0
   -0.1596    1.6222   -0.3500 H   0  0  0  0  0  0  0  0  0  0  0  0
   -2.2713    2.3317    1.7545 H   0  0  0  0  0  0  0  0  0  0  0  0
   -2.3944    2.7537   -1.2692 H   0  0  0  0  0  0  0  0  0  0  0  0
   -3.0817    1.3425   -0.4723 H   0  0  0  0  0  0  0  0  0  0  0  0
   -0.6946    4.2348   -0.0431 H   0  0  0  0  0  0  0  0  0  0  0  0
   -2.0169    4.6935    1.0243 H   0  0  0  0  0  0  0  0  0  0  0  0
   -0.5073    4.0738    1.7125 H   0  0  0  0  0  0  0  0  0  0  0  0
   -4.5741    2.8797    0.8713 H   0  0  0  0  0  0  0  0  0  0  0  0
   -4.8122    3.0153   -0.8719 H   0  0  0  0  0  0  0  0  0  0  0  0
   -3.8898    4.2601   -0.0139 H   0  0  0  0  0  0  0  0  0  0  0  0
    0.1774    2.7322    2.5912 N   0  0  0  0  0  0  0  0  0  0  0  0
    1.0642    3.1511    3.6526 C   0  0  2  0  0  0  0  0  0  0  0  0
    0.7249    4.5928    4.0074 C   0  0  0  0  0  0  0  0  0  0  0  0
    0.1521    5.3570    3.2336 O   0  0  0  0  0  0  0  0  0  0  0  0
    2.5219    3.0217    3.2392 C   0  0  0  0  0  0  0  0  0  0  0  0
   -0.7305    3.1812    2.5156 H   0  0  0  0  0  0  0  0  0  0  0  0
    0.8564    2.5043    4.5120 H   0  0  0  0  0  0  0  0  0  0  0  0
    2.7490    3.6625    2.3794 H   0  0  0  0  0  0  0  0  0  0  0  0
    3.1928    3.3123    4.0543 H   0  0  0  0  0  0  0  0  0  0  0  0
    2.7565    1.9899    2.9559 H   0  0  0  0  0  0  0  0  0  0  0  0
    1.1755    4.9385    5.2738 N   0  0  0  0  0  0  0  0  0  0  0  0
    0.9867    6.2554    5.8359 C   0  0  0  0  0  0  0  0  0  0  0  0
    1.6239    4.2354    5.8538 H   0  0  0  0  0  0  0  0  0  0  0  0
    1.8649    6.8792    5.6129 H   0  0  0  0  0  0  0  0  0  0  0  0
    0.0891    6.7159    5.3973 H   0  0  0  0  0  0  0  0  0  0  0  0
    0.8619    6.1744    6.9258 H   0  0  0  0  0  0  0  0  0  0  0  0
  1  3  1  0  0  0  0
  1  7  1  0  0  0  0
  1  2  2  0  0  0  0
 37 38  1  0  0  0  0
 38 46  1  0  0  0  0
 38 39  2  0  0  0  0
  8  9  1  0  0  0  0
  9 17  1  0  0  0  0
  9 10  2  0  0  0  0
 18 19  1  0  0  0  0
 19 36  1  0  0  0  0
 19 20  2  0  0  0  0
 22 24  1  0  0  0  0
 37 40  1  0  0  0  0
  8 11  1  0  0  0  0
 21 23  1  0  0  0  0
 46 47  1  0  0  0  0
 21 22  1  0  0  0  0
 36 37  1  0  0  0  0
  7  8  1  0  0  0  0
 18 21  1  0  0  0  0
 17 18  1  0  0  0  0
  3  4  1  0  0  0  0
  3  5  1  0  0  0  0
  3  6  1  0  0  0  0
 24 33  1  0  0  0  0
 24 34  1  0  0  0  0
 24 35  1  0  0  0  0
 40 43  1  0  0  0  0
 40 44  1  0  0  0  0
 40 45  1  0  0  0  0
 11 14  1  0  0  0  0
 11 15  1  0  0  0  0
 11 16  1  0  0  0  0
 23 30  1  0  0  0  0
 23 31  1  0  0  0  0
 23 32  1  0  0  0  0
 47 49  1  0  0  0  0
 47 50  1  0  0  0  0
 47 51  1  0  0  0  0
 22 28  1  0  0  0  0
 22 29  1  0  0  0  0
 37 42  1  0  0  0  0
  8 13  1  0  0  0  0
 18 26  1  0  0  0  0
 21 27  1  0  0  0  0
 46 48  1  0  0  0  0
  7 12  1  0  0  0  0
 36 41  1  0  0  0  0
 17 25  1  0  0  0  0
M  END
$$$$

  -OEChem-05262214473D

 51 50  0     1  0  0  0  0  0999 V2000
    1.3524   -3.0009    1.4091 C   0  0  0  0  0  0  0  0  0  0  0  0
    1.8758   -1.9880    0.9598 O   0  0  0  0  0  0  0  0  0  0  0  0
    2.2030   -4.1782    1.7536 C   0  0  0  0  0  0  0  0  0  0  0  0
    2.3264   -4.8705    0.9053 H   0  0  0  0  0  0  0  0  0  0  0  0
    3.2257   -3.8876    2.0432 H   0  0  0  0  0  0  0  0  0  0  0  0
    1.8327   -4.8004    2.5839 H   0  0  0  0  0  0  0  0  0  0  0  0
    0.0005   -3.1873    1.6465 N   0  0  0  0  0  0  0  0  0  0  0  0
   -0.9949   -2.1807    1.3864 C   0  0  2  0  0  0  0  0  0  0  0  0
   -0.3083   -0.8216    1.4164 C   0  0  0  0  0  0  0  0  0  0  0  0
    0.7533   -0.6191    2.0022 O   0  0  0  0  0  0  0  0  0  0  0  0
   -2.1232   -2.2423    2.4042 C   0  0  0  0  0  0  0  0  0  0  0  0
   -0.3048   -4.0823    2.0245 H   0  0  0  0  0  0  0  0  0  0  0  0
   -1.3830   -2.3724    0.3801 H   0  0  0  0  0  0  0  0  0  0  0  0
   -1.7534   -2.0527    3.4185 H   0  0  0  0  0  0  0  0  0  0  0  0
   -2.8936   -1.4947    2.1882 H   0  0  0  0  0  0  0  0  0  0  0  0
   -2.5964   -3.2301    2.4022 H   0  0  0  0  0  0  0  0  0  0  0  0
   -1.0412    0.1517    0.7482 N   0  0  0  0  0  0  0  0  0  0  0  0
   -0.6079    1.5223    0.6467 C   0  0  2  0  0  0  0  0  0  0  0  0
    0.5044    1.7471    1.6702 C   0  0  0  0  0  0  0  0  0  0  0  0
    1.6555    1.3488    1.5037 O   0  0  0  0  0  0  0  0  0  0  0  0
   -1.7676    2.5358    0.8002 C   0  0  2  0  0  0  0  0  0  0  0  0
   -2.8183    2.3965   -0.3237 C   0  0  0  0  0  0  0  0  0  0  0  0
   -1.2133    3.9643    0.8829 C   0  0  0  0  0  0  0  0  0  0  0  0
   -4.0946    3.1861   -0.0627 C   0  0  0  0  0  0  0  0  0  0  0  0
   -1.9022   -0.1128    0.2753 H   0  0  0  0  0  0  0  0  0  0  0  0
   -0.1596    1.6222   -0.3500 H   0  0  0  0  0  0  0  0  0  0  0  0
   -2.2713    2.3317    1.7545 H   0  0  0  0  0  0  0  0  0  0  0  0
   -2.3944    2.7537   -1.2692 H   0  0  0  0  0  0  0  0  0  0  0  0
   -3.0817    1.3425   -0.4723 H   0  0  0  0  0  0  0  0  0  0  0  0
   -0.6946    4.2348   -0.0431 H   0  0  0  0  0  0  0  0  0  0  0  0
   -2.0169    4.6935    1.0243 H   0  0  0  0  0  0  0  0  0  0  0  0
   -0.5073    4.0738    1.7125 H   0  0  0  0  0  0  0  0  0  0  0  0
   -4.5741    2.8797    0.8713 H   0  0  0  0  0  0  0  0  0  0  0  0
   -4.8122    3.0153   -0.8719 H   0  0  0  0  0  0  0  0  0  0  0  0
   -3.8898    4.2601   -0.0139 H   0  0  0  0  0  0  0  0  0  0  0  0
    0.0658    2.4710    2.7698 N   0  0  0  0  0  0  0  0  0  0  0  0
    0.9254    2.8365    3.8726 C   0  0  2  0  0  0  0  0  0  0  0  0
    0.3663    4.1045    4.5044 C   0  0  0  0  0  0  0  0  0  0  0  0
   -0.3694    4.8850    3.9039 O   0  0  0  0  0  0  0  0  0  0  0  0
    2.3591    3.0459    3.4108 C   0  0  0  0  0  0  0  0  0  0  0  0
   -0.9079    2.7584    2.8012 H   0  0  0  0  0  0  0  0  0  0  0  0
    0.8777    2.0155    4.5963 H   0  0  0  0  0  0  0  0  0  0  0  0
    2.4268    3.8647    2.6852 H   0  0  0  0  0  0  0  0  0  0  0  0
    3.0145    3.2948    4.2519 H   0  0  0  0  0  0  0  0  0  0  0  0
    2.7496    2.1425    2.9299 H   0  0  0  0  0  0  0  0  0  0  0  0
    0.8203    4.2841    5.8036 N   0  0  0  0  0  0  0  0  0  0  0  0
    0.4418    5.4197    6.6117 C   0  0  0  0  0  0  0  0  0  0  0  0
    1.4126    3.5765    6.2282 H   0  0  0  0  0  0  0  0  0  0  0  0
    1.1878    6.2194    6.4936 H   0  0  0  0  0  0  0  0  0  0  0  0
   -0.5435    5.7872    6.2890 H   0  0  0  0  0  0  0  0  0  0  0  0
    0.3924    5.1176    7.6682 H   0  0  0  0  0  0  0  0  0  0  0  0
  1  3  1  0  0  0  0
  1  7  1  0  0  0  0
  1  2  2  0  0  0  0
 37 38  1  0  0  0  0
 38 46  1  0  0  0  0
 38 39  2  0  0  0  0
  8  9  1  0  0  0  0
  9 17  1  0  0  0  0
  9 10  2  0  0  0  0
 18 19  1  0  0  0  0
 19 36  1  0  0  0  0
 19 20  2  0  0  0  0
 22 24  1  0  0  0  0
 37 40  1  0  0  0  0
  8 11  1  0  0  0  0
 21 23  1  0  0  0  0
 46 47  1  0  0  0  0
 21 22  1  0  0  0  0
 36 37  1  0  0  0  0
  7  8  1  0  0  0  0
 18 21  1  0  0  0  0
 17 18  1  0  0  0  0
  3  4  1  0  0  0  0
  3  5  1  0  0  0  0
  3  6  1  0  0  0  0
 24 33  1  0  0  0  0
 24 34  1  0  0  0  0
 24 35  1  0  0  0  0
 40 43  1  0  0  0  0
 40 44  1  0  0  0  0
 40 45  1  0  0  0  0
 11 14  1  0  0  0  0
 11 15  1  0  0  0  0
 11 16  1  0  0  0  0
 23 30  1  0  0  0  0
 23 31  1  0  0  0  0
 23 32  1  0  0  0  0
 47 49  1  0  0  0  0
 47 50  1  0  0  0  0
 47 51  1  0  0  0  0
 22 28  1  0  0  0  0
 22 29  1  0  0  0  0
 37 42  1  0  0  0  0
  8 13  1  0  0  0  0
 18 26  1  0  0  0  0
 21 27  1  0  0  0  0
 46 48  1  0  0  0  0
  7 12  1  0  0  0  0
 36 41  1  0  0  0  0
 17 25  1  0  0  0  0
M  END
$$$$

  -OEChem-05262214473D

 51 50  0     1  0  0  0  0  0999 V2000
    1.3524   -3.0009    1.4091 C   0  0  0  0  0  0  0  0  0  0  0  0
    1.8758   -1.9880    0.9598 O   0  0  0  0  0  0  0  0  0  0  0  0
    2.2030   -4.1782    1.7536 C   0  0  0  0  0  0  0  0  0  0  0  0
    2.3264   -4.8705    0.9053 H   0  0  0  0  0  0  0  0  0  0  0  0
    3.2257   -3.8876    2.0432 H   0  0  0  0  0  0  0  0  0  0  0  0
    1.8327   -4.8004    2.5839 H   0  0  0  0  0  0  0  0  0  0  0  0
    0.0005   -3.1873    1.6465 N   0  0  0  0  0  0  0  0  0  0  0  0
   -0.9949   -2.1807    1.3864 C   0  0  2  0  0  0  0  0  0  0  0  0
   -0.3083   -0.8216    1.4164 C   0  0  0  0  0  0  0  0  0  0  0  0
    0.7533   -0.6191    2.0022 O   0  0  0  0  0  0  0  0  0  0  0  0
   -2.1232   -2.2423    2.4042 C   0  0  0  0  0  0  0  0  0  0  0  0
   -0.3048   -4.0823    2.0245 H   0  0  0  0  0  0  0  0  0  0  0  0
   -1.3830   -2.3724    0.3801 H   0  0  0  0  0  0  0  0  0  0  0  0
   -1.7534   -2.0527    3.4185 H   0  0  0  0  0  0  0  0  0  0  0  0
   -2.8936   -1.4947    2.1882 H   0  0  0  0  0  0  0  0  0  0  0  0
   -2.5964   -3.2301    2.4022 H   0  0  0  0  0  0  0  0  0  0  0  0
   -1.0412    0.1517    0.7482 N   0  0  0  0  0  0  0  0  0  0  0  0
   -0.6079    1.5223    0.6467 C   0  0  2  0  0  0  0  0  0  0  0  0
    0.5044    1.7471    1.6702 C   0  0  0  0  0  0  0  0  0  0  0  0
    1.6955    1.5966    1.4057 O   0  0  0  0  0  0  0  0  0  0  0  0
   -1.7676    2.5358    0.8002 C   0  0  2  0  0  0  0  0  0  0  0  0
   -2.8183    2.3965   -0.3237 C   0  0  0  0  0  0  0  0  0  0  0  0
   -1.2133    3.9643    0.8829 C   0  0  0  0  0  0  0  0  0  0  0  0
   -4.0946    3.1861   -0.0627 C   0  0  0  0  0  0  0  0  0  0  0  0
   -1.9022   -0.1128    0.2753 H   0  0  0  0  0  0  0  0  0  0  0  0
   -0.1596    1.6222   -0.3500 H   0  0  0  0  0  0  0  0  0  0  0  0
   -2.2713    2.3317    1.7545 H   0  0  0  0  0  0  0  0  0  0  0  0
   -2.3944    2.7537   -1.2692 H   0  0  0  0  0  0  0  0  0  0  0  0
   -3.0817    1.3425   -0.4723 H   0  0  0  0  0  0  0  0  0  0  0  0
   -0.6946    4.2348   -0.0431 H   0  0  0  0  0  0  0  0  0  0  0  0
   -2.0169    4.6935    1.0243 H   0  0  0  0  0  0  0  0  0  0  0  0
   -0.5073    4.0738    1.7125 H   0  0  0  0  0  0  0  0  0  0  0  0
   -4.5741    2.8797    0.8713 H   0  0  0  0  0  0  0  0  0  0  0  0
   -4.8122    3.0153   -0.8719 H   0  0  0  0  0  0  0  0  0  0  0  0
   -3.8898    4.2601   -0.0139 H   0  0  0  0  0  0  0  0  0  0  0  0
    0.0102    2.1658    2.8973 N   0  0  0  0  0  0  0  0  0  0  0  0
    0.8542    2.4672    4.0310 C   0  0  2  0  0  0  0  0  0  0  0  0
    0.1235    3.4770    4.9061 C   0  0  0  0  0  0  0  0  0  0  0  0
   -0.7657    4.2125    4.4824 O   0  0  0  0  0  0  0  0  0  0  0  0
    2.2042    3.0088    3.5873 C   0  0  0  0  0  0  0  0  0  0  0  0
   -0.9950    2.2654    3.0041 H   0  0  0  0  0  0  0  0  0  0  0  0
    0.9862    1.5312    4.5847 H   0  0  0  0  0  0  0  0  0  0  0  0
    2.0922    3.9465    3.0309 H   0  0  0  0  0  0  0  0  0  0  0  0
    2.8529    3.2098    4.4463 H   0  0  0  0  0  0  0  0  0  0  0  0
    2.7154    2.2936    2.9339 H   0  0  0  0  0  0  0  0  0  0  0  0
    0.6108    3.4906    6.2056 N   0  0  0  0  0  0  0  0  0  0  0  0
    0.0898    4.3719    7.2244 C   0  0  0  0  0  0  0  0  0  0  0  0
    1.3368    2.8329    6.4739 H   0  0  0  0  0  0  0  0  0  0  0  0
    0.6818    5.2987    7.2459 H   0  0  0  0  0  0  0  0  0  0  0  0
   -0.9597    4.6124    6.9993 H   0  0  0  0  0  0  0  0  0  0  0  0
    0.1503    3.8756    8.2042 H   0  0  0  0  0  0  0  0  0  0  0  0
  1  3  1  0  0  0  0
  1  7  1  0  0  0  0
  1  2  2  0  0  0  0
 37 38  1  0  0  0  0
 38 46  1  0  0  0  0
 38 39  2  0  0  0  0
  8  9  1  0  0  0  0
  9 17  1  0  0  0  0
  9 10  2  0  0  0  0
 18 19  1  0  0  0  0
 19 36  1  0  0  0  0
 19 20  2  0  0  0  0
 22 24  1  0  0  0  0
 37 40  1  0  0  0  0
  8 11  1  0  0  0  0
 21 23  1  0  0  0  0
 46 47  1  0  0  0  0
 21 22  1  0  0  0  0
 36 37  1  0  0  0  0
  7  8  1  0  0  0  0
 18 21  1  0  0  0  0
 17 18  1  0  0  0  0
  3  4  1  0  0  0  0
  3  5  1  0  0  0  0
  3  6  1  0  0  0  0
 24 33  1  0  0  0  0
 24 34  1  0  0  0  0
 24 35  1  0  0  0  0
 40 43  1  0  0  0  0
 40 44  1  0  0  0  0
 40 45  1  0  0  0  0
 11 14  1  0  0  0  0
 11 15  1  0  0  0  0
 11 16  1  0  0  0  0
 23 30  1  0  0  0  0
 23 31  1  0  0  0  0
 23 32  1  0  0  0  0
 47 49  1  0  0  0  0
 47 50  1  0  0  0  0
 47 51  1  0  0  0  0
 22 28  1  0  0  0  0
 22 29  1  0  0  0  0
 37 42  1  0  0  0  0
  8 13  1  0  0  0  0
 18 26  1  0  0  0  0
 21 27  1  0  0  0  0
 46 48  1  0  0  0  0
  7 12  1  0  0  0  0
 36 41  1  0  0  0  0
 17 25  1  0  0  0  0
M  END
$$$$

  -OEChem-05262214473D

 51 50  0     1  0  0  0  0  0999 V2000
    1.3524   -3.0009    1.4091 C   0  0  0  0  0  0  0  0  0  0  0  0
    1.8758   -1.9880    0.9598 O   0  0  0  0  0  0  0  0  0  0  0  0
    2.2030   -4.1782    1.7536 C   0  0  0  0  0  0  0  0  0  0  0  0
    2.3264   -4.8705    0.9053 H   0  0  0  0  0  0  0  0  0  0  0  0
    3.2257   -3.8876    2.0432 H   0  0  0  0  0  0  0  0  0  0  0  0
    1.8327   -4.8004    2.5839 H   0  0  0  0  0  0  0  0  0  0  0  0
    0.0005   -3.1873    1.6465 N   0  0  0  0  0  0  0  0  0  0  0  0
   -0.9949   -2.1807    1.3864 C   0  0  2  0  0  0  0  0  0  0  0  0
   -0.3083   -0.8216    1.4164 C   0  0  0  0  0  0  0  0  0  0  0  0
    0.7533   -0.6191    2.0022 O   0  0  0  0  0  0  0  0  0  0  0  0
   -2.1232   -2.2423    2.4042 C   0  0  0  0  0  0  0  0  0  0  0  0
   -0.3048   -4.0823    2.0245 H   0  0  0  0  0  0  0  0  0  0  0  0
   -1.3830   -2.3724    0.3801 H   0  0  0  0  0  0  0  0  0  0  0  0
   -1.7534   -2.0527    3.4185 H   0  0  0  0  0  0  0  0  0  0  0  0
   -2.8936   -1.4947    2.1882 H   0  0  0  0  0  0  0  0  0  0  0  0
   -2.5964   -3.2301    2.4022 H   0  0  0  0  0  0  0  0  0  0  0  0
   -1.0412    0.1517    0.7482 N   0  0  0  0  0  0  0  0  0  0  0  0
   -0.6079    1.5223    0.6467 C   0  0  2  0  0  0  0  0  0  0  0  0
    0.5044    1.7471    1.6702 C   0  0  0  0  0  0  0  0  0  0  0  0
    1.6875    1.8614    1.3562 O   0  0  0  0  0  0  0  0  0  0  0  0
   -1.7676    2.5358    0.8002 C   0  0  2  0  0  0  0  0  0  0  0  0
   -2.8183    2.3965   -0.3237 C   0  0  0  0  0  0  0  0  0  0  0  0
   -1.2133    3.9643    0.8829 C   0  0  0  0  0  0  0  0  0  0  0  0
   -4.0946    3.1861   -0.0627 C   0  0  0  0  0  0  0  0  0  0  0  0
   -1.9022   -0.1128    0.2753 H   0  0  0  0  0  0  0  0  0  0  0  0
   -0.1596    1.6222   -0.3500 H   0  0  0  0  0  0  0  0  0  0  0  0
   -2.2713    2.3317    1.7545 H   0  0  0  0  0  0  0  0  0  0  0  0
   -2.3944    2.7537   -1.2692 H   0  0  0  0  0  0  0  0  0  0  0  0
   -3.0817    1.3425   -0.4723 H   0  0  0  0  0  0  0  0  0  0  0  0
   -0.6946    4.2348   -0.0431 H   0  0  0  0  0  0  0  0  0  0  0  0
   -2.0169    4.6935    1.0243 H   0  0  0  0  0  0  0  0  0  0  0  0
   -0.5073    4.0738    1.7125 H   0  0  0  0  0  0  0  0  0  0  0  0
   -4.5741    2.8797    0.8713 H   0  0  0  0  0  0  0  0  0  0  0  0
   -4.8122    3.0153   -0.8719 H   0  0  0  0  0  0  0  0  0  0  0  0
   -3.8898    4.2601   -0.0139 H   0  0  0  0  0  0  0  0  0  0  0  0
    0.0141    1.8373    2.9652 N   0  0  0  0  0  0  0  0  0  0  0  0
    0.8556    2.0683    4.1172 C   0  0  2  0  0  0  0  0  0  0  0  0
    0.0130    2.7532    5.1852 C   0  0  0  0  0  0  0  0  0  0  0  0
   -1.0099    3.3851    4.9295 O   0  0  0  0  0  0  0  0  0  0  0  0
    2.0677    2.9129    3.7567 C   0  0  0  0  0  0  0  0  0  0  0  0
   -0.9860    1.7360    3.1106 H   0  0  0  0  0  0  0  0  0  0  0  0
    1.1746    1.0844    4.4782 H   0  0  0  0  0  0  0  0  0  0  0  0
    1.7679    3.9024    3.3929 H   0  0  0  0  0  0  0  0  0  0  0  0
    2.7189    3.0630    4.6242 H   0  0  0  0  0  0  0  0  0  0  0  0
    2.6563    2.4329    2.9674 H   0  0  0  0  0  0  0  0  0  0  0  0
    0.5612    2.6121    6.4524 N   0  0  0  0  0  0  0  0  0  0  0  0
   -0.0452    3.1833    7.6322 C   0  0  0  0  0  0  0  0  0  0  0  0
    1.4020    2.0552    6.5739 H   0  0  0  0  0  0  0  0  0  0  0  0
    0.3812    4.1800    7.8183 H   0  0  0  0  0  0  0  0  0  0  0  0
   -1.1310    3.2717    7.4800 H   0  0  0  0  0  0  0  0  0  0  0  0
    0.1521    2.5329    8.4972 H   0  0  0  0  0  0  0  0  0  0  0  0
  1  3  1  0  0  0  0
  1  7  1  0  0  0  0
  1  2  2  0  0  0  0
 37 38  1  0  0  0  0
 38 46  1  0  0  0  0
 38 39  2  0  0  0  0
  8  9  1  0  0  0  0
  9 17  1  0  0  0  0
  9 10  2  0  0  0  0
 18 19  1  0  0  0  0
 19 36  1  0  0  0  0
 19 20  2  0  0  0  0
 22 24  1  0  0  0  0
 37 40  1  0  0  0  0
  8 11  1  0  0  0  0
 21 23  1  0  0  0  0
 46 47  1  0  0  0  0
 21 22  1  0  0  0  0
 36 37  1  0  0  0  0
  7  8  1  0  0  0  0
 18 21  1  0  0  0  0
 17 18  1  0  0  0  0
  3  4  1  0  0  0  0
  3  5  1  0  0  0  0
  3  6  1  0  0  0  0
 24 33  1  0  0  0  0
 24 34  1  0  0  0  0
 24 35  1  0  0  0  0
 40 43  1  0  0  0  0
 40 44  1  0  0  0  0
 40 45  1  0  0  0  0
 11 14  1  0  0  0  0
 11 15  1  0  0  0  0
 11 16  1  0  0  0  0
 23 30  1  0  0  0  0
 23 31  1  0  0  0  0
 23 32  1  0  0  0  0
 47 49  1  0  0  0  0
 47 50  1  0  0  0  0
 47 51  1  0  0  0  0
 22 28  1  0  0  0  0
 22 29  1  0  0  0  0
 37 42  1  0  0  0  0
  8 13  1  0  0  0  0
 18 26  1  0  0  0  0
 21 27  1  0  0  0  0
 46 48  1  0  0  0  0
  7 12  1  0  0  0  0
 36 41  1  0  0  0  0
 17 25  1  0  0  0  0
M  END
$$$$

  -OEChem-05262214473D

 51 50  0     1  0  0  0  0  0999 V2000
    1.3524   -3.0009    1.4091 C   0  0  0  0  0  0  0  0  0  0  0  0
    1.8758   -1.9880    0.9598 O   0  0  0  0  0  0  0  0  0  0  0  0
    2.2030   -4.1782    1.7536 C   0  0  0  0  0  0  0  0  0  0  0  0
    2.3264   -4.8705    0.9053 H   0  0  0  0  0  0  0  0  0  0  0  0
    3.2257   -3.8876    2.0432 H   0  0  0  0  0  0  0  0  0  0  0  0
    1.8327   -4.8004    2.5839 H   0  0  0  0  0  0  0  0  0  0  0  0
    0.0005   -3.1873    1.6465 N   0  0  0  0  0  0  0  0  0  0  0  0
   -0.9949   -2.1807    1.3864 C   0  0  2  0  0  0  0  0  0  0  0  0
   -0.3083   -0.8216    1.4164 C   0  0  0  0  0  0  0  0  0  0  0  0
    0.7533   -0.6191    2.0022 O   0  0  0  0  0  0  0  0  0  0  0  0
   -2.1232   -2.2423    2.4042 C   0  0  0  0  0  0  0  0  0  0  0  0
   -0.3048   -4.0823    2.0245 H   0  0  0  0  0  0  0  0  0  0  0  0
   -1.3830   -2.3724    0.3801 H   0  0  0  0  0  0  0  0  0  0  0  0
   -1.7534   -2.0527    3.4185 H   0  0  0  0  0  0  0  0  0  0  0  0
   -2.8936   -1.4947    2.1882 H   0  0  0  0  0  0  0  0  0  0  0  0
   -2.5964   -3.2301    2.4022 H   0  0  0  0  0  0  0  0  0  0  0  0
   -1.0412    0.1517    0.7482 N   0  0  0  0  0  0  0  0  0  0  0  0
   -0.6079    1.5223    0.6467 C   0  0  2  0  0  0  0  0  0  0  0  0
    0.5044    1.7471    1.6702 C   0  0  0  0  0  0  0  0  0  0  0  0
    1.6320    2.1251    1.3586 O   0  0  0  0  0  0  0  0  0  0  0  0
   -1.7676    2.5358    0.8002 C   0  0  2  0  0  0  0  0  0  0  0  0
   -2.8183    2.3965   -0.3237 C   0  0  0  0  0  0  0  0  0  0  0  0
   -1.2133    3.9643    0.8829 C   0  0  0  0  0  0  0  0  0  0  0  0
   -4.0946    3.1861   -0.0627 C   0  0  0  0  0  0  0  0  0  0  0  0
   -1.9022   -0.1128    0.2753 H   0  0  0  0  0  0  0  0  0  0  0  0
   -0.1596    1.6222   -0.3500 H   0  0  0  0  0  0  0  0  0  0  0  0
   -2.2713    2.3317    1.7545 H   0  0  0  0  0  0  0  0  0  0  0  0
   -2.3944    2.7537   -1.2692 H   0  0  0  0  0  0  0  0  0  0  0  0
   -3.0817    1.3425   -0.4723 H   0  0  0  0  0  0  0  0  0  0  0  0
   -0.6946    4.2348   -0.0431 H   0  0  0  0  0  0  0  0  0  0  0  0
   -2.0169    4.6935    1.0243 H   0  0  0  0  0  0  0  0  0  0  0  0
   -0.5073    4.0738    1.7125 H   0  0  0  0  0  0  0  0  0  0  0  0
   -4.5741    2.8797    0.8713 H   0  0  0  0  0  0  0  0  0  0  0  0
   -4.8122    3.0153   -0.8719 H   0  0  0  0  0  0  0  0  0  0  0  0
   -3.8898    4.2601   -0.0139 H   0  0  0  0  0  0  0  0  0  0  0  0
    0.0775    1.5079    2.9686 N   0  0  0  0  0  0  0  0  0  0  0  0
    0.9293    1.6669    4.1253 C   0  0  2  0  0  0  0  0  0  0  0  0
    0.0424    1.9823    5.3226 C   0  0  0  0  0  0  0  0  0  0  0  0
   -1.0853    2.4594    5.2149 O   0  0  0  0  0  0  0  0  0  0  0  0
    1.9590    2.7646    3.9075 C   0  0  0  0  0  0  0  0  0  0  0  0
   -0.8814    1.2060    3.1134 H   0  0  0  0  0  0  0  0  0  0  0  0
    1.4298    0.7055    4.2840 H   0  0  0  0  0  0  0  0  0  0  0  0
    1.4762    3.7355    3.7467 H   0  0  0  0  0  0  0  0  0  0  0  0
    2.6217    2.8645    4.7734 H   0  0  0  0  0  0  0  0  0  0  0  0
    2.5764    2.5509    3.0284 H   0  0  0  0  0  0  0  0  0  0  0  0
    0.6751    1.7085    6.5272 N   0  0  0  0  0  0  0  0  0  0  0  0
    0.0460    1.9350    7.8074 C   0  0  0  0  0  0  0  0  0  0  0  0
    1.6035    1.2964    6.5216 H   0  0  0  0  0  0  0  0  0  0  0  0
    0.3066    2.9395    8.1719 H   0  0  0  0  0  0  0  0  0  0  0  0
   -1.0458    1.8564    7.6983 H   0  0  0  0  0  0  0  0  0  0  0  0
    0.3978    1.1811    8.5271 H   0  0  0  0  0  0  0  0  0  0  0  0
  1  3  1  0  0  0  0
  1  7  1  0  0  0  0
  1  2  2  0  0  0  0
 37 38  1  0  0  0  0
 38 46  1  0  0  0  0
 38 39  2  0  0  0  0
  8  9  1  0  0  0  0
  9 17  1  0  0  0  0
  9 10  2  0  0  0  0
 18 19  1  0  0  0  0
 19 36  1  0  0  0  0
 19 20  2  0  0  0  0
 22 24  1  0  0  0  0
 37 40  1  0  0  0  0
  8 11  1  0  0  0  0
 21 23  1  0  0  0  0
 46 47  1  0  0  0  0
 21 22  1  0  0  0  0
 36 37  1  0  0  0  0
  7  8  1  0  0  0  0
 18 21  1  0  0  0  0
 17 18  1  0  0  0  0
  3  4  1  0  0  0  0
  3  5  1  0  0  0  0
  3  6  1  0  0  0  0
 24 33  1  0  0  0  0
 24 34  1  0  0  0  0
 24 35  1  0  0  0  0
 40 43  1  0  0  0  0
 40 44  1  0  0  0  0
 40 45  1  0  0  0  0
 11 14  1  0  0  0  0
 11 15  1  0  0  0  0
 11 16  1  0  0  0  0
 23 30  1  0  0  0  0
 23 31  1  0  0  0  0
 23 32  1  0  0  0  0
 47 49  1  0  0  0  0
 47 50  1  0  0  0  0
 47 51  1  0  0  0  0
 22 28  1  0  0  0  0
 22 29  1  0  0  0  0
 37 42  1  0  0  0  0
  8 13  1  0  0  0  0
 18 26  1  0  0  0  0
 21 27  1  0  0  0  0
 46 48  1  0  0  0  0
  7 12  1  0  0  0  0
 36 41  1  0  0  0  0
 17 25  1  0  0  0  0
M  END
$$$$

  -OEChem-05262214473D

 51 50  0     1  0  0  0  0  0999 V2000
    1.3524   -3.0009    1.4091 C   0  0  0  0  0  0  0  0  0  0  0  0
    1.8758   -1.9880    0.9598 O   0  0  0  0  0  0  0  0  0  0  0  0
    2.2030   -4.1782    1.7536 C   0  0  0  0  0  0  0  0  0  0  0  0
    2.3264   -4.8705    0.9053 H   0  0  0  0  0  0  0  0  0  0  0  0
    3.2257   -3.8876    2.0432 H   0  0  0  0  0  0  0  0  0  0  0  0
    1.8327   -4.8004    2.5839 H   0  0  0  0  0  0  0  0  0  0  0  0
    0.0005   -3.1873    1.6465 N   0  0  0  0  0  0  0  0  0  0  0  0
   -0.9949   -2.1807    1.3864 C   0  0  2  0  0  0  0  0  0  0  0  0
   -0.3083   -0.8216    1.4164 C   0  0  0  0  0  0  0  0  0  0  0  0
    0.7533   -0.6191    2.0022 O   0  0  0  0  0  0  0  0  0  0  0  0
   -2.1232   -2.2423    2.4042 C   0  0  0  0  0  0  0  0  0  0  0  0
   -0.3048   -4.0823    2.0245 H   0  0  0  0  0  0  0  0  0  0  0  0
   -1.3830   -2.3724    0.3801 H   0  0  0  0  0  0  0  0  0  0  0  0
   -1.7534   -2.0527    3.4185 H   0  0  0  0  0  0  0  0  0  0  0  0
   -2.8936   -1.4947    2.1882 H   0  0  0  0  0  0  0  0  0  0  0  0
   -2.5964   -3.2301    2.4022 H   0  0  0  0  0  0  0  0  0  0  0  0
   -1.0412    0.1517    0.7482 N   0  0  0  0  0  0  0  0  0  0  0  0
   -0.6079    1.5223    0.6467 C   0  0  2  0  0  0  0  0  0  0  0  0
    0.5044    1.7471    1.6702 C   0  0  0  0  0  0  0  0  0  0  0  0
    1.5328    2.3697    1.4128 O   0  0  0  0  0  0  0  0  0  0  0  0
   -1.7676    2.5358    0.8002 C   0  0  2  0  0  0  0  0  0  0  0  0
   -2.8183    2.3965   -0.3237 C   0  0  0  0  0  0  0  0  0  0  0  0
   -1.2133    3.9643    0.8829 C   0  0  0  0  0  0  0  0  0  0  0  0
   -4.0946    3.1861   -0.0627 C   0  0  0  0  0  0  0  0  0  0  0  0
   -1.9022   -0.1128    0.2753 H   0  0  0  0  0  0  0  0  0  0  0  0
   -0.1596    1.6222   -0.3500 H   0  0  0  0  0  0  0  0  0  0  0  0
   -2.2713    2.3317    1.7545 H   0  0  0  0  0  0  0  0  0  0  0  0
   -2.3944    2.7537   -1.2692 H   0  0  0  0  0  0  0  0  0  0  0  0
   -3.0817    1.3425   -0.4723 H   0  0  0  0  0  0  0  0  0  0  0  0
   -0.6946    4.2348   -0.0431 H   0  0  0  0  0  0  0  0  0  0  0  0
   -2.0169    4.6935    1.0243 H   0  0  0  0  0  0  0  0  0  0  0  0
   -0.5073    4.0738    1.7125 H   0  0  0  0  0  0  0  0  0  0  0  0
   -4.5741    2.8797    0.8713 H   0  0  0  0  0  0  0  0  0  0  0  0
   -4.8122    3.0153   -0.8719 H   0  0  0  0  0  0  0  0  0  0  0  0
   -3.8898    4.2601   -0.0139 H   0  0  0  0  0  0  0  0  0  0  0  0
    0.1960    1.2001    2.9075 N   0  0  0  0  0  0  0  0  0  0  0  0
    1.0703    1.2905    4.0546 C   0  0  2  0  0  0  0  0  0  0  0  0
    0.2097    1.2169    5.3090 C   0  0  0  0  0  0  0  0  0  0  0  0
   -0.9868    1.4984    5.3190 O   0  0  0  0  0  0  0  0  0  0  0  0
    1.8854    2.5742    4.0293 C   0  0  0  0  0  0  0  0  0  0  0  0
   -0.6885    0.7118    3.0123 H   0  0  0  0  0  0  0  0  0  0  0  0
    1.7347    0.4204    4.0153 H   0  0  0  0  0  0  0  0  0  0  0  0
    1.2368    3.4569    4.0681 H   0  0  0  0  0  0  0  0  0  0  0  0
    2.5679    2.6278    4.8839 H   0  0  0  0  0  0  0  0  0  0  0  0
    2.4811    2.6395    3.1125 H   0  0  0  0  0  0  0  0  0  0  0  0
    0.9445    0.8412    6.4248 N   0  0  0  0  0  0  0  0  0  0  0  0
    0.3571    0.7120    7.7379 C   0  0  0  0  0  0  0  0  0  0  0  0
    1.9277    0.6083    6.3204 H   0  0  0  0  0  0  0  0  0  0  0  0
    0.4630    1.6617    8.2826 H   0  0  0  0  0  0  0  0  0  0  0  0
   -0.7098    0.4630    7.6392 H   0  0  0  0  0  0  0  0  0  0  0  0
    0.8705   -0.0876    8.2920 H   0  0  0  0  0  0  0  0  0  0  0  0
  1  3  1  0  0  0  0
  1  7  1  0  0  0  0
  1  2  2  0  0  0  0
 37 38  1  0  0  0  0
 38 46  1  0  0  0  0
 38 39  2  0  0  0  0
  8  9  1  0  0  0  0
  9 17  1  0  0  0  0
  9 10  2  0  0  0  0
 18 19  1  0  0  0  0
 19 36  1  0  0  0  0
 19 20  2  0  0  0  0
 22 24  1  0  0  0  0
 37 40  1  0  0  0  0
  8 11  1  0  0  0  0
 21 23  1  0  0  0  0
 46 47  1  0  0  0  0
 21 22  1  0  0  0  0
 36 37  1  0  0  0  0
  7  8  1  0  0  0  0
 18 21  1  0  0  0  0
 17 18  1  0  0  0  0
  3  4  1  0  0  0  0
  3  5  1  0  0  0  0
  3  6  1  0  0  0  0
 24 33  1  0  0  0  0
 24 34  1  0  0  0  0
 24 35  1  0  0  0  0
 40 43  1  0  0  0  0
 40 44  1  0  0  0  0
 40 45  1  0  0  0  0
 11 14  1  0  0  0  0
 11 15  1  0  0  0  0
 11 16  1  0  0  0  0
 23 30  1  0  0  0  0
 23 31  1  0  0  0  0
 23 32  1  0  0  0  0
 47 49  1  0  0  0  0
 47 50  1  0  0  0  0
 47 51  1  0  0  0  0
 22 28  1  0  0  0  0
 22 29  1  0  0  0  0
 37 42  1  0  0  0  0
  8 13  1  0  0  0  0
 18 26  1  0  0  0  0
 21 27  1  0  0  0  0
 46 48  1  0  0  0  0
  7 12  1  0  0  0  0
 36 41  1  0  0  0  0
 17 25  1  0  0  0  0
M  END
$$$$

  -OEChem-05262214473D

 51 50  0     1  0  0  0  0  0999 V2000
    1.3524   -3.0009    1.4091 C   0  0  0  0  0  0  0  0  0  0  0  0
    1.8758   -1.9880    0.9598 O   0  0  0  0  0  0  0  0  0  0  0  0
    2.2030   -4.1782    1.7536 C   0  0  0  0  0  0  0  0  0  0  0  0
    2.3264   -4.8705    0.9053 H   0  0  0  0  0  0  0  0  0  0  0  0
    3.2257   -3.8876    2.0432 H   0  0  0  0  0  0  0  0  0  0  0  0
    1.8327   -4.8004    2.5839 H   0  0  0  0  0  0  0  0  0  0  0  0
    0.0005   -3.1873    1.6465 N   0  0  0  0  0  0  0  0  0  0  0  0
   -0.9949   -2.1807    1.3864 C   0  0  2  0  0  0  0  0  0  0  0  0
   -0.3083   -0.8216    1.4164 C   0  0  0  0  0  0  0  0  0  0  0  0
    0.7533   -0.6191    2.0022 O   0  0  0  0  0  0  0  0  0  0  0  0
   -2.1232   -2.2423    2.4042 C   0  0  0  0  0  0  0  0  0  0  0  0
   -0.3048   -4.0823    2.0245 H   0  0  0  0  0  0  0  0  0  0  0  0
   -1.3830   -2.3724    0.3801 H   0  0  0  0  0  0  0  0  0  0  0  0
   -1.7534   -2.0527    3.4185 H   0  0  0  0  0  0  0  0  0  0  0  0
   -2.8936   -1.4947    2.1882 H   0  0  0  0  0  0  0  0  0  0  0  0
   -2.5964   -3.2301    2.4022 H   0  0  0  0  0  0  0  0  0  0  0  0
   -1.0412    0.1517    0.7482 N   0  0  0  0  0  0  0  0  0  0  0  0
   -0.6079    1.5223    0.6467 C   0  0  2  0  0  0  0  0  0  0  0  0
    0.5044    1.7471    1.6702 C   0  0  0  0  0  0  0  0  0  0  0  0
    1.3966    2.5786    1.5149 O   0  0  0  0  0  0  0  0  0  0  0  0
   -1.7676    2.5358    0.8002 C   0  0  2  0  0  0  0  0  0  0  0  0
   -2.8183    2.3965   -0.3237 C   0  0  0  0  0  0  0  0  0  0  0  0
   -1.2133    3.9643    0.8829 C   0  0  0  0  0  0  0  0  0  0  0  0
   -4.0946    3.1861   -0.0627 C   0  0  0  0  0  0  0  0  0  0  0  0
   -1.9022   -0.1128    0.2753 H   0  0  0  0  0  0  0  0  0  0  0  0
   -0.1596    1.6222   -0.3500 H   0  0  0  0  0  0  0  0  0  0  0  0
   -2.2713    2.3317    1.7545 H   0  0  0  0  0  0  0  0  0  0  0  0
   -2.3944    2.7537   -1.2692 H   0  0  0  0  0  0  0  0  0  0  0  0
   -3.0817    1.3425   -0.4723 H   0  0  0  0  0  0  0  0  0  0  0  0
   -0.6946    4.2348   -0.0431 H   0  0  0  0  0  0  0  0  0  0  0  0
   -2.0169    4.6935    1.0243 H   0  0  0  0  0  0  0  0  0  0  0  0
   -0.5073    4.0738    1.7125 H   0  0  0  0  0  0  0  0  0  0  0  0
   -4.5741    2.8797    0.8713 H   0  0  0  0  0  0  0  0  0  0  0  0
   -4.8122    3.0153   -0.8719 H   0  0  0  0  0  0  0  0  0  0  0  0
   -3.8898    4.2601   -0.0139 H   0  0  0  0  0  0  0  0  0  0  0  0
    0.3614    0.9348    2.7860 N   0  0  0  0  0  0  0  0  0  0  0  0
    1.2691    0.9647    3.9101 C   0  0  2  0  0  0  0  0  0  0  0  0
    0.5034    0.5091    5.1453 C   0  0  0  0  0  0  0  0  0  0  0  0
   -0.7212    0.5677    5.2347 O   0  0  0  0  0  0  0  0  0  0  0  0
    1.8519    2.3545    4.1139 C   0  0  0  0  0  0  0  0  0  0  0  0
   -0.4203    0.2868    2.8141 H   0  0  0  0  0  0  0  0  0  0  0  0
    2.0684    0.2485    3.6904 H   0  0  0  0  0  0  0  0  0  0  0  0
    1.0660    3.0859    4.3352 H   0  0  0  0  0  0  0  0  0  0  0  0
    2.5611    2.3690    4.9481 H   0  0  0  0  0  0  0  0  0  0  0  0
    2.3769    2.6928    3.2141 H   0  0  0  0  0  0  0  0  0  0  0  0
    1.3512    0.0696    6.1523 N   0  0  0  0  0  0  0  0  0  0  0  0
    0.8669   -0.4023    7.4285 C   0  0  0  0  0  0  0  0  0  0  0  0
    2.3524    0.0377    5.9841 H   0  0  0  0  0  0  0  0  0  0  0  0
    0.8397    0.4337    8.1429 H   0  0  0  0  0  0  0  0  0  0  0  0
   -0.1460   -0.8136    7.3069 H   0  0  0  0  0  0  0  0  0  0  0  0
    1.5381   -1.1869    7.8079 H   0  0  0  0  0  0  0  0  0  0  0  0
  1  3  1  0  0  0  0
  1  7  1  0  0  0  0
  1  2  2  0  0  0  0
 37 38  1  0  0  0  0
 38 46  1  0  0  0  0
 38 39  2  0  0  0  0
  8  9  1  0  0  0  0
  9 17  1  0  0  0  0
  9 10  2  0  0  0  0
 18 19  1  0  0  0  0
 19 36  1  0  0  0  0
 19 20  2  0  0  0  0
 22 24  1  0  0  0  0
 37 40  1  0  0  0  0
  8 11  1  0  0  0  0
 21 23  1  0  0  0  0
 46 47  1  0  0  0  0
 21 22  1  0  0  0  0
 36 37  1  0  0  0  0
  7  8  1  0  0  0  0
 18 21  1  0  0  0  0
 17 18  1  0  0  0  0
  3  4  1  0  0  0  0
  3  5  1  0  0  0  0
  3  6  1  0  0  0  0
 24 33  1  0  0  0  0
 24 34  1  0  0  0  0
 24 35  1  0  0  0  0
 40 43  1  0  0  0  0
 40 44  1  0  0  0  0
 40 45  1  0  0  0  0
 11 14  1  0  0  0  0
 11 15  1  0  0  0  0
 11 16  1  0  0  0  0
 23 30  1  0  0  0  0
 23 31  1  0  0  0  0
 23 32  1  0  0  0  0
 47 49  1  0  0  0  0
 47 50  1  0  0  0  0
 47 51  1  0  0  0  0
 22 28  1  0  0  0  0
 22 29  1  0  0  0  0
 37 42  1  0  0  0  0
  8 13  1  0  0  0  0
 18 26  1  0  0  0  0
 21 27  1  0  0  0  0
 46 48  1  0  0  0  0
  7 12  1  0  0  0  0
 36 41  1  0  0  0  0
 17 25  1  0  0  0  0
M  END
$$$$

  -OEChem-05262214473D

 51 50  0     1  0  0  0  0  0999 V2000
    1.3524   -3.0009    1.4091 C   0  0  0  0  0  0  0  0  0  0  0  0
    1.8758   -1.9880    0.9598 O   0  0  0  0  0  0  0  0  0  0  0  0
    2.2030   -4.1782    1.7536 C   0  0  0  0  0  0  0  0  0  0  0  0
    2.3264   -4.8705    0.9053 H   0  0  0  0  0  0  0  0  0  0  0  0
    3.2257   -3.8876    2.0432 H   0  0  0  0  0  0  0  0  0  0  0  0
    1.8327   -4.8004    2.5839 H   0  0  0  0  0  0  0  0  0  0  0  0
    0.0005   -3.1873    1.6465 N   0  0  0  0  0  0  0  0  0  0  0  0
   -0.9949   -2.1807    1.3864 C   0  0  2  0  0  0  0  0  0  0  0  0
   -0.3083   -0.8216    1.4164 C   0  0  0  0  0  0  0  0  0  0  0  0
    0.7533   -0.6191    2.0022 O   0  0  0  0  0  0  0  0  0  0  0  0
   -2.1232   -2.2423    2.4042 C   0  0  0  0  0  0  0  0  0  0  0  0
   -0.3048   -4.0823    2.0245 H   0  0  0  0  0  0  0  0  0  0  0  0
   -1.3830   -2.3724    0.3801 H   0  0  0  0  0  0  0  0  0  0  0  0
   -1.7534   -2.0527    3.4185 H   0  0  0  0  0  0  0  0  0  0  0  0
   -2.8936   -1.4947    2.1882 H   0  0  0  0  0  0  0  0  0  0  0  0
   -2.5964   -3.2301    2.4022 H   0  0  0  0  0  0  0  0  0  0  0  0
   -1.0412    0.1517    0.7482 N   0  0  0  0  0  0  0  0  0  0  0  0
   -0.6079    1.5223    0.6467 C   0  0  2  0  0  0  0  0  0  0  0  0
    0.5044    1.7471    1.6702 C   0  0  0  0  0  0  0  0  0  0  0  0
    1.2327    2.7375    1.6581 O   0  0  0  0  0  0  0  0  0  0  0  0
   -1.7676    2.5358    0.8002 C   0  0  2  0  0  0  0  0  0  0  0  0
   -2.8183    2.3965   -0.3237 C   0  0  0  0  0  0  0  0  0  0  0  0
   -1.2133    3.9643    0.8829 C   0  0  0  0  0  0  0  0  0  0  0  0
   -4.0946    3.1861   -0.0627 C   0  0  0  0  0  0  0  0  0  0  0  0
   -1.9022   -0.1128    0.2753 H   0  0  0  0  0  0  0  0  0  0  0  0
   -0.1596    1.6222   -0.3500 H   0  0  0  0  0  0  0  0  0  0  0  0
   -2.2713    2.3317    1.7545 H   0  0  0  0  0  0  0  0  0  0  0  0
   -2.3944    2.7537   -1.2692 H   0  0  0  0  0  0  0  0  0  0  0  0
   -3.0817    1.3425   -0.4723 H   0  0  0  0  0  0  0  0  0  0  0  0
   -0.6946    4.2348   -0.0431 H   0  0  0  0  0  0  0  0  0  0  0  0
   -2.0169    4.6935    1.0243 H   0  0  0  0  0  0  0  0  0  0  0  0
   -0.5073    4.0738    1.7125 H   0  0  0  0  0  0  0  0  0  0  0  0
   -4.5741    2.8797    0.8713 H   0  0  0  0  0  0  0  0  0  0  0  0
   -4.8122    3.0153   -0.8719 H   0  0  0  0  0  0  0  0  0  0  0  0
   -3.8898    4.2601   -0.0139 H   0  0  0  0  0  0  0  0  0  0  0  0
    0.5626    0.7301    2.6124 N   0  0  0  0  0  0  0  0  0  0  0  0
    1.5122    0.7117    3.7016 C   0  0  2  0  0  0  0  0  0  0  0  0
    0.9035   -0.0928    4.8426 C   0  0  0  0  0  0  0  0  0  0  0  0
   -0.3065   -0.2695    4.9679 O   0  0  0  0  0  0  0  0  0  0  0  0
    1.8609    2.1206    4.1555 C   0  0  0  0  0  0  0  0  0  0  0  0
   -0.0951   -0.0398    2.5325 H   0  0  0  0  0  0  0  0  0  0  0  0
    2.4081    0.2014    3.3315 H   0  0  0  0  0  0  0  0  0  0  0  0
    0.9756    2.6475    4.5297 H   0  0  0  0  0  0  0  0  0  0  0  0
    2.6019    2.1057    4.9616 H   0  0  0  0  0  0  0  0  0  0  0  0
    2.2709    2.7070    3.3262 H   0  0  0  0  0  0  0  0  0  0  0  0
    1.8674   -0.5540    5.7282 N   0  0  0  0  0  0  0  0  0  0  0  0
    1.5408   -1.3320    6.9004 C   0  0  0  0  0  0  0  0  0  0  0  0
    2.8488   -0.3764    5.5356 H   0  0  0  0  0  0  0  0  0  0  0  0
    1.4112   -0.6608    7.7622 H   0  0  0  0  0  0  0  0  0  0  0  0
    0.6072   -1.8863    6.7239 H   0  0  0  0  0  0  0  0  0  0  0  0
    2.3551   -2.0418    7.1078 H   0  0  0  0  0  0  0  0  0  0  0  0
  1  3  1  0  0  0  0
  1  7  1  0  0  0  0
  1  2  2  0  0  0  0
 37 38  1  0  0  0  0
 38 46  1  0  0  0  0
 38 39  2  0  0  0  0
  8  9  1  0  0  0  0
  9 17  1  0  0  0  0
  9 10  2  0  0  0  0
 18 19  1  0  0  0  0
 19 36  1  0  0  0  0
 19 20  2  0  0  0  0
 22 24  1  0  0  0  0
 37 40  1  0  0  0  0
  8 11  1  0  0  0  0
 21 23  1  0  0  0  0
 46 47  1  0  0  0  0
 21 22  1  0  0  0  0
 36 37  1  0  0  0  0
  7  8  1  0  0  0  0
 18 21  1  0  0  0  0
 17 18  1  0  0  0  0
  3  4  1  0  0  0  0
  3  5  1  0  0  0  0
  3  6  1  0  0  0  0
 24 33  1  0  0  0  0
 24 34  1  0  0  0  0
 24 35  1  0  0  0  0
 40 43  1  0  0  0  0
 40 44  1  0  0  0  0
 40 45  1  0  0  0  0
 11 14  1  0  0  0  0
 11 15  1  0  0  0  0
 11 16  1  0  0  0  0
 23 30  1  0  0  0  0
 23 31  1  0  0  0  0
 23 32  1  0  0  0  0
 47 49  1  0  0  0  0
 47 50  1  0  0  0  0
 47 51  1  0  0  0  0
 22 28  1  0  0  0  0
 22 29  1  0  0  0  0
 37 42  1  0  0  0  0
  8 13  1  0  0  0  0
 18 26  1  0  0  0  0
 21 27  1  0  0  0  0
 46 48  1  0  0  0  0
  7 12  1  0  0  0  0
 36 41  1  0  0  0  0
 17 25  1  0  0  0  0
M  END
$$$$

  -OEChem-05262214473D

 51 50  0     1  0  0  0  0  0999 V2000
    1.3524   -3.0009    1.4091 C   0  0  0  0  0  0  0  0  0  0  0  0
    1.8758   -1.9880    0.9598 O   0  0  0  0  0  0  0  0  0  0  0  0
    2.2030   -4.1782    1.7536 C   0  0  0  0  0  0  0  0  0  0  0  0
    2.3264   -4.8705    0.9053 H   0  0  0  0  0  0  0  0  0  0  0  0
    3.2257   -3.8876    2.0432 H   0  0  0  0  0  0  0  0  0  0  0  0
    1.8327   -4.8004    2.5839 H   0  0  0  0  0  0  0  0  0  0  0  0
    0.0005   -3.1873    1.6465 N   0  0  0  0  0  0  0  0  0  0  0  0
   -0.9949   -2.1807    1.3864 C   0  0  2  0  0  0  0  0  0  0  0  0
   -0.3083   -0.8216    1.4164 C   0  0  0  0  0  0  0  0  0  0  0  0
    0.7533   -0.6191    2.0022 O   0  0  0  0  0  0  0  0  0  0  0  0
   -2.1232   -2.2423    2.4042 C   0  0  0  0  0  0  0  0  0  0  0  0
   -0.3048   -4.0823    2.0245 H   0  0  0  0  0  0  0  0  0  0  0  0
   -1.3830   -2.3724    0.3801 H   0  0  0  0  0  0  0  0  0  0  0  0
   -1.7534   -2.0527    3.4185 H   0  0  0  0  0  0  0  0  0  0  0  0
   -2.8936   -1.4947    2.1882 H   0  0  0  0  0  0  0  0  0  0  0  0
   -2.5964   -3.2301    2.4022 H   0  0  0  0  0  0  0  0  0  0  0  0
   -1.0412    0.1517    0.7482 N   0  0  0  0  0  0  0  0  0  0  0  0
   -0.6079    1.5223    0.6467 C   0  0  2  0  0  0  0  0  0  0  0  0
    0.5044    1.7471    1.6702 C   0  0  0  0  0  0  0  0  0  0  0  0
    1.0523    2.8356    1.8326 O   0  0  0  0  0  0  0  0  0  0  0  0
   -1.7676    2.5358    0.8002 C   0  0  2  0  0  0  0  0  0  0  0  0
   -2.8183    2.3965   -0.3237 C   0  0  0  0  0  0  0  0  0  0  0  0
   -1.2133    3.9643    0.8829 C   0  0  0  0  0  0  0  0  0  0  0  0
   -4.0946    3.1861   -0.0627 C   0  0  0  0  0  0  0  0  0  0  0  0
   -1.9022   -0.1128    0.2753 H   0  0  0  0  0  0  0  0  0  0  0  0
   -0.1596    1.6222   -0.3500 H   0  0  0  0  0  0  0  0  0  0  0  0
   -2.2713    2.3317    1.7545 H   0  0  0  0  0  0  0  0  0  0  0  0
   -2.3944    2.7537   -1.2692 H   0  0  0  0  0  0  0  0  0  0  0  0
   -3.0817    1.3425   -0.4723 H   0  0  0  0  0  0  0  0  0  0  0  0
   -0.6946    4.2348   -0.0431 H   0  0  0  0  0  0  0  0  0  0  0  0
   -2.0169    4.6935    1.0243 H   0  0  0  0  0  0  0  0  0  0  0  0
   -0.5073    4.0738    1.7125 H   0  0  0  0  0  0  0  0  0  0  0  0
   -4.5741    2.8797    0.8713 H   0  0  0  0  0  0  0  0  0  0  0  0
   -4.8122    3.0153   -0.8719 H   0  0  0  0  0  0  0  0  0  0  0  0
   -3.8898    4.2601   -0.0139 H   0  0  0  0  0  0  0  0  0  0  0  0
    0.7857    0.6000    2.3984 N   0  0  0  0  0  0  0  0  0  0  0  0
    1.7828    0.5487    3.4432 C   0  0  2  0  0  0  0  0  0  0  0  0
    1.3829   -0.5479    4.4216 C   0  0  0  0  0  0  0  0  0  0  0  0
    0.2291   -0.9560    4.5367 O   0  0  0  0  0  0  0  0  0  0  0  0
    1.9117    1.8883    4.1513 C   0  0  0  0  0  0  0  0  0  0  0  0
    0.2649   -0.2459    2.1865 H   0  0  0  0  0  0  0  0  0  0  0  0
    2.7308    0.2825    2.9630 H   0  0  0  0  0  0  0  0  0  0  0  0
    0.9717    2.1718    4.6385 H   0  0  0  0  0  0  0  0  0  0  0  0
    2.6875    1.8560    4.9235 H   0  0  0  0  0  0  0  0  0  0  0  0
    2.1703    2.6812    3.4412 H   0  0  0  0  0  0  0  0  0  0  0  0
    2.4580   -0.9869    5.1815 N   0  0  0  0  0  0  0  0  0  0  0  0
    2.3327   -2.0137    6.1895 C   0  0  0  0  0  0  0  0  0  0  0  0
    3.3830   -0.6059    5.0054 H   0  0  0  0  0  0  0  0  0  0  0  0
    2.1385   -1.5473    7.1666 H   0  0  0  0  0  0  0  0  0  0  0  0
    1.4985   -2.6821    5.9300 H   0  0  0  0  0  0  0  0  0  0  0  0
    3.2658   -2.5941    6.2394 H   0  0  0  0  0  0  0  0  0  0  0  0
  1  3  1  0  0  0  0
  1  7  1  0  0  0  0
  1  2  2  0  0  0  0
 37 38  1  0  0  0  0
 38 46  1  0  0  0  0
 38 39  2  0  0  0  0
  8  9  1  0  0  0  0
  9 17  1  0  0  0  0
  9 10  2  0  0  0  0
 18 19  1  0  0  0  0
 19 36  1  0  0  0  0
 19 20  2  0  0  0  0
 22 24  1  0  0  0  0
 37 40  1  0  0  0  0
  8 11  1  0  0  0  0
 21 23  1  0  0  0  0
 46 47  1  0  0  0  0
 21 22  1  0  0  0  0
 36 37  1  0  0  0  0
  7  8  1  0  0  0  0
 18 21  1  0  0  0  0
 17 18  1  0  0  0  0
  3  4  1  0  0  0  0
  3  5  1  0  0  0  0
  3  6  1  0  0  0  0
 24 33  1  0  0  0  0
 24 34  1  0  0  0  0
 24 35  1  0  0  0  0
 40 43  1  0  0  0  0
 40 44  1  0  0  0  0
 40 45  1  0  0  0  0
 11 14  1  0  0  0  0
 11 15  1  0  0  0  0
 11 16  1  0  0  0  0
 23 30  1  0  0  0  0
 23 31  1  0  0  0  0
 23 32  1  0  0  0  0
 47 49  1  0  0  0  0
 47 50  1  0  0  0  0
 47 51  1  0  0  0  0
 22 28  1  0  0  0  0
 22 29  1  0  0  0  0
 37 42  1  0  0  0  0
  8 13  1  0  0  0  0
 18 26  1  0  0  0  0
 21 27  1  0  0  0  0
 46 48  1  0  0  0  0
  7 12  1  0  0  0  0
 36 41  1  0  0  0  0
 17 25  1  0  0  0  0
M  END
$$$$

  -OEChem-05262214473D

 51 50  0     1  0  0  0  0  0999 V2000
    1.3524   -3.0009    1.4091 C   0  0  0  0  0  0  0  0  0  0  0  0
    1.8758   -1.9880    0.9598 O   0  0  0  0  0  0  0  0  0  0  0  0
    2.2030   -4.1782    1.7536 C   0  0  0  0  0  0  0  0  0  0  0  0
    2.3264   -4.8705    0.9053 H   0  0  0  0  0  0  0  0  0  0  0  0
    3.2257   -3.8876    2.0432 H   0  0  0  0  0  0  0  0  0  0  0  0
    1.8327   -4.8004    2.5839 H   0  0  0  0  0  0  0  0  0  0  0  0
    0.0005   -3.1873    1.6465 N   0  0  0  0  0  0  0  0  0  0  0  0
   -0.9949   -2.1807    1.3864 C   0  0  2  0  0  0  0  0  0  0  0  0
   -0.3083   -0.8216    1.4164 C   0  0  0  0  0  0  0  0  0  0  0  0
    0.7533   -0.6191    2.0022 O   0  0  0  0  0  0  0  0  0  0  0  0
   -2.1232   -2.2423    2.4042 C   0  0  0  0  0  0  0  0  0  0  0  0
   -0.3048   -4.0823    2.0245 H   0  0  0  0  0  0  0  0  0  0  0  0
   -1.3830   -2.3724    0.3801 H   0  0  0  0  0  0  0  0  0  0  0  0
   -1.7534   -2.0527    3.4185 H   0  0  0  0  0  0  0  0  0  0  0  0
   -2.8936   -1.4947    2.1882 H   0  0  0  0  0  0  0  0  0  0  0  0
   -2.5964   -3.2301    2.4022 H   0  0  0  0  0  0  0  0  0  0  0  0
   -1.0412    0.1517    0.7482 N   0  0  0  0  0  0  0  0  0  0  0  0
   -0.6079    1.5223    0.6467 C   0  0  2  0  0  0  0  0  0  0  0  0
    0.5044    1.7471    1.6702 C   0  0  0  0  0  0  0  0  0  0  0  0
    0.8677    2.8663    2.0265 O   0  0  0  0  0  0  0  0  0  0  0  0
   -1.7676    2.5358    0.8002 C   0  0  2  0  0  0  0  0  0  0  0  0
   -2.8183    2.3965   -0.3237 C   0  0  0  0  0  0  0  0  0  0  0  0
   -1.2133    3.9643    0.8829 C   0  0  0  0  0  0  0  0  0  0  0  0
   -4.0946    3.1861   -0.0627 C   0  0  0  0  0  0  0  0  0  0  0  0
   -1.9022   -0.1128    0.2753 H   0  0  0  0  0  0  0  0  0  0  0  0
   -0.1596    1.6222   -0.3500 H   0  0  0  0  0  0  0  0  0  0  0  0
   -2.2713    2.3317    1.7545 H   0  0  0  0  0  0  0  0  0  0  0  0
   -2.3944    2.7537   -1.2692 H   0  0  0  0  0  0  0  0  0  0  0  0
   -3.0817    1.3425   -0.4723 H   0  0  0  0  0  0  0  0  0  0  0  0
   -0.6946    4.2348   -0.0431 H   0  0  0  0  0  0  0  0  0  0  0  0
   -2.0169    4.6935    1.0243 H   0  0  0  0  0  0  0  0  0  0  0  0
   -0.5073    4.0738    1.7125 H   0  0  0  0  0  0  0  0  0  0  0  0
   -4.5741    2.8797    0.8713 H   0  0  0  0  0  0  0  0  0  0  0  0
   -4.8122    3.0153   -0.8719 H   0  0  0  0  0  0  0  0  0  0  0  0
   -3.8898    4.2601   -0.0139 H   0  0  0  0  0  0  0  0  0  0  0  0
    1.0157    0.5533    2.1587 N   0  0  0  0  0  0  0  0  0  0  0  0
    2.0627    0.4868    3.1527 C   0  0  2  0  0  0  0  0  0  0  0  0
    1.9087   -0.8250    3.9110 C   0  0  0  0  0  0  0  0  0  0  0  0
    0.8489   -1.4450    3.9704 O   0  0  0  0  0  0  0  0  0  0  0  0
    2.0009    1.6736    4.1016 C   0  0  0  0  0  0  0  0  0  0  0  0
    0.6352   -0.3174    1.7998 H   0  0  0  0  0  0  0  0  0  0  0  0
    3.0143    0.4861    2.6101 H   0  0  0  0  0  0  0  0  0  0  0  0
    1.0544    1.6911    4.6541 H   0  0  0  0  0  0  0  0  0  0  0  0
    2.8120    1.6368    4.8363 H   0  0  0  0  0  0  0  0  0  0  0  0
    2.0819    2.6172    3.5512 H   0  0  0  0  0  0  0  0  0  0  0  0
    3.0827   -1.1997    4.5493 N   0  0  0  0  0  0  0  0  0  0  0  0
    3.1887   -2.4009    5.3442 C   0  0  0  0  0  0  0  0  0  0  0  0
    3.9186   -0.6351    4.4298 H   0  0  0  0  0  0  0  0  0  0  0  0
    2.9719   -2.1653    6.3965 H   0  0  0  0  0  0  0  0  0  0  0  0
    2.4671   -3.1467    4.9794 H   0  0  0  0  0  0  0  0  0  0  0  0
    4.2081   -2.8061    5.2618 H   0  0  0  0  0  0  0  0  0  0  0  0
  1  3  1  0  0  0  0
  1  7  1  0  0  0  0
  1  2  2  0  0  0  0
 37 38  1  0  0  0  0
 38 46  1  0  0  0  0
 38 39  2  0  0  0  0
  8  9  1  0  0  0  0
  9 17  1  0  0  0  0
  9 10  2  0  0  0  0
 18 19  1  0  0  0  0
 19 36  1  0  0  0  0
 19 20  2  0  0  0  0
 22 24  1  0  0  0  0
 37 40  1  0  0  0  0
  8 11  1  0  0  0  0
 21 23  1  0  0  0  0
 46 47  1  0  0  0  0
 21 22  1  0  0  0  0
 36 37  1  0  0  0  0
  7  8  1  0  0  0  0
 18 21  1  0  0  0  0
 17 18  1  0  0  0  0
  3  4  1  0  0  0  0
  3  5  1  0  0  0  0
  3  6  1  0  0  0  0
 24 33  1  0  0  0  0
 24 34  1  0  0  0  0
 24 35  1  0  0  0  0
 40 43  1  0  0  0  0
 40 44  1  0  0  0  0
 40 45  1  0  0  0  0
 11 14  1  0  0  0  0
 11 15  1  0  0  0  0
 11 16  1  0  0  0  0
 23 30  1  0  0  0  0
 23 31  1  0  0  0  0
 23 32  1  0  0  0  0
 47 49  1  0  0  0  0
 47 50  1  0  0  0  0
 47 51  1  0  0  0  0
 22 28  1  0  0  0  0
 22 29  1  0  0  0  0
 37 42  1  0  0  0  0
  8 13  1  0  0  0  0
 18 26  1  0  0  0  0
 21 27  1  0  0  0  0
 46 48  1  0  0  0  0
  7 12  1  0  0  0  0
 36 41  1  0  0  0  0
 17 25  1  0  0  0  0
M  END
$$$$

  -OEChem-05262214473D

 51 50  0     1  0  0  0  0  0999 V2000
    1.3524   -3.0009    1.4091 C   0  0  0  0  0  0  0  0  0  0  0  0
    1.8758   -1.9880    0.9598 O   0  0  0  0  0  0  0  0  0  0  0  0
    2.2030   -4.1782    1.7536 C   0  0  0  0  0  0  0  0  0  0  0  0
    2.3264   -4.8705    0.9053 H   0  0  0  0  0  0  0  0  0  0  0  0
    3.2257   -3.8876    2.0432 H   0  0  0  0  0  0  0  0  0  0  0  0
    1.8327   -4.8004    2.5839 H   0  0  0  0  0  0  0  0  0  0  0  0
    0.0005   -3.1873    1.6465 N   0  0  0  0  0  0  0  0  0  0  0  0
   -0.9949   -2.1807    1.3864 C   0  0  2  0  0  0  0  0  0  0  0  0
   -0.3083   -0.8216    1.4164 C   0  0  0  0  0  0  0  0  0  0  0  0
    0.7533   -0.6191    2.0022 O   0  0  0  0  0  0  0  0  0  0  0  0
   -2.1232   -2.2423    2.4042 C   0  0  0  0  0  0  0  0  0  0  0  0
   -0.3048   -4.0823    2.0245 H   0  0  0  0  0  0  0  0  0  0  0  0
   -1.3830   -2.3724    0.3801 H   0  0  0  0  0  0  0  0  0  0  0  0
   -1.7534   -2.0527    3.4185 H   0  0  0  0  0  0  0  0  0  0  0  0
   -2.8936   -1.4947    2.1882 H   0  0  0  0  0  0  0  0  0  0  0  0
   -2.5964   -3.2301    2.4022 H   0  0  0  0  0  0  0  0  0  0  0  0
   -1.0412    0.1517    0.7482 N   0  0  0  0  0  0  0  0  0  0  0  0
   -0.6079    1.5223    0.6467 C   0  0  2  0  0  0  0  0  0  0  0  0
    0.5044    1.7471    1.6702 C   0  0  0  0  0  0  0  0  0  0  0  0
    0.6915    2.8273    2.2266 O   0  0  0  0  0  0  0  0  0  0  0  0
   -1.7676    2.5358    0.8002 C   0  0  2  0  0  0  0  0  0  0  0  0
   -2.8183    2.3965   -0.3237 C   0  0  0  0  0  0  0  0  0  0  0  0
   -1.2133    3.9643    0.8829 C   0  0  0  0  0  0  0  0  0  0  0  0
   -4.0946    3.1861   -0.0627 C   0  0  0  0  0  0  0  0  0  0  0  0
   -1.9022   -0.1128    0.2753 H   0  0  0  0  0  0  0  0  0  0  0  0
   -0.1596    1.6222   -0.3500 H   0  0  0  0  0  0  0  0  0  0  0  0
   -2.2713    2.3317    1.7545 H   0  0  0  0  0  0  0  0  0  0  0  0
   -2.3944    2.7537   -1.2692 H   0  0  0  0  0  0  0  0  0  0  0  0
   -3.0817    1.3425   -0.4723 H   0  0  0  0  0  0  0  0  0  0  0  0
   -0.6946    4.2348   -0.0431 H   0  0  0  0  0  0  0  0  0  0  0  0
   -2.0169    4.6935    1.0243 H   0  0  0  0  0  0  0  0  0  0  0  0
   -0.5073    4.0738    1.7125 H   0  0  0  0  0  0  0  0  0  0  0  0
   -4.5741    2.8797    0.8713 H   0  0  0  0  0  0  0  0  0  0  0  0
   -4.8122    3.0153   -0.8719 H   0  0  0  0  0  0  0  0  0  0  0  0
   -3.8898    4.2601   -0.0139 H   0  0  0  0  0  0  0  0  0  0  0  0
    1.2368    0.5932    1.9096 N   0  0  0  0  0  0  0  0  0  0  0  0
    2.3327    0.5303    2.8497 C   0  0  2  0  0  0  0  0  0  0  0  0
    2.4452   -0.9053    3.3455 C   0  0  0  0  0  0  0  0  0  0  0  0
    1.5109   -1.7032    3.3077 O   0  0  0  0  0  0  0  0  0  0  0  0
    2.1224    1.4911    4.0097 C   0  0  0  0  0  0  0  0  0  0  0  0
    0.9905   -0.2494    1.3987 H   0  0  0  0  0  0  0  0  0  0  0  0
    3.2395    0.7985    2.2968 H   0  0  0  0  0  0  0  0  0  0  0  0
    1.2183    1.2382    4.5755 H   0  0  0  0  0  0  0  0  0  0  0  0
    2.9669    1.4630    4.7061 H   0  0  0  0  0  0  0  0  0  0  0  0
    2.0119    2.5194    3.6489 H   0  0  0  0  0  0  0  0  0  0  0  0
    3.6989   -1.1779    3.8748 N   0  0  0  0  0  0  0  0  0  0  0  0
    4.0505   -2.4674    4.4221 C   0  0  0  0  0  0  0  0  0  0  0  0
    4.4191   -0.4621    3.8478 H   0  0  0  0  0  0  0  0  0  0  0  0
    3.8547   -2.4726    5.5045 H   0  0  0  0  0  0  0  0  0  0  0  0
    3.4471   -3.2485    3.9367 H   0  0  0  0  0  0  0  0  0  0  0  0
    5.1178   -2.6634    4.2417 H   0  0  0  0  0  0  0  0  0  0  0  0
  1  3  1  0  0  0  0
  1  7  1  0  0  0  0
  1  2  2  0  0  0  0
 37 38  1  0  0  0  0
 38 46  1  0  0  0  0
 38 39  2  0  0  0  0
  8  9  1  0  0  0  0
  9 17  1  0  0  0  0
  9 10  2  0  0  0  0
 18 19  1  0  0  0  0
 19 36  1  0  0  0  0
 19 20  2  0  0  0  0
 22 24  1  0  0  0  0
 37 40  1  0  0  0  0
  8 11  1  0  0  0  0
 21 23  1  0  0  0  0
 46 47  1  0  0  0  0
 21 22  1  0  0  0  0
 36 37  1  0  0  0  0
  7  8  1  0  0  0  0
 18 21  1  0  0  0  0
 17 18  1  0  0  0  0
  3  4  1  0  0  0  0
  3  5  1  0  0  0  0
  3  6  1  0  0  0  0
 24 33  1  0  0  0  0
 24 34  1  0  0  0  0
 24 35  1  0  0  0  0
 40 43  1  0  0  0  0
 40 44  1  0  0  0  0
 40 45  1  0  0  0  0
 11 14  1  0  0  0  0
 11 15  1  0  0  0  0
 11 16  1  0  0  0  0
 23 30  1  0  0  0  0
 23 31  1  0  0  0  0
 23 32  1  0  0  0  0
 47 49  1  0  0  0  0
 47 50  1  0  0  0  0
 47 51  1  0  0  0  0
 22 28  1  0  0  0  0
 22 29  1  0  0  0  0
 37 42  1  0  0  0  0
  8 13  1  0  0  0  0
 18 26  1  0  0  0  0
 21 27  1  0  0  0  0
 46 48  1  0  0  0  0
  7 12  1  0  0  0  0
 36 41  1  0  0  0  0
 17 25  1  0  0  0  0
M  END
$$$$

  -OEChem-05262214473D

 51 50  0     1  0  0  0  0  0999 V2000
    1.3524   -3.0009    1.4091 C   0  0  0  0  0  0  0  0  0  0  0  0
    1.8758   -1.9880    0.9598 O   0  0  0  0  0  0  0  0  0  0  0  0
    2.2030   -4.1782    1.7536 C   0  0  0  0  0  0  0  0  0  0  0  0
    2.3264   -4.8705    0.9053 H   0  0  0  0  0  0  0  0  0  0  0  0
    3.2257   -3.8876    2.0432 H   0  0  0  0  0  0  0  0  0  0  0  0
    1.8327   -4.8004    2.5839 H   0  0  0  0  0  0  0  0  0  0  0  0
    0.0005   -3.1873    1.6465 N   0  0  0  0  0  0  0  0  0  0  0  0
   -0.9949   -2.1807    1.3864 C   0  0  2  0  0  0  0  0  0  0  0  0
   -0.3083   -0.8216    1.4164 C   0  0  0  0  0  0  0  0  0  0  0  0
    0.7533   -0.6191    2.0022 O   0  0  0  0  0  0  0  0  0  0  0  0
   -2.1232   -2.2423    2.4042 C   0  0  0  0  0  0  0  0  0  0  0  0
   -0.3048   -4.0823    2.0245 H   0  0  0  0  0  0  0  0  0  0  0  0
   -1.3830   -2.3724    0.3801 H   0  0  0  0  0  0  0  0  0  0  0  0
   -1.7534   -2.0527    3.4185 H   0  0  0  0  0  0  0  0  0  0  0  0
   -2.8936   -1.4947    2.1882 H   0  0  0  0  0  0  0  0  0  0  0  0
   -2.5964   -3.2301    2.4022 H   0  0  0  0  0  0  0  0  0  0  0  0
   -1.0412    0.1517    0.7482 N   0  0  0  0  0  0  0  0  0  0  0  0
   -0.6079    1.5223    0.6467 C   0  0  2  0  0  0  0  0  0  0  0  0
    0.5044    1.7471    1.6702 C   0  0  0  0  0  0  0  0  0  0  0  0
    0.5356    2.7215    2.4192 O   0  0  0  0  0  0  0  0  0  0  0  0
   -1.7676    2.5358    0.8002 C   0  0  2  0  0  0  0  0  0  0  0  0
   -2.8183    2.3965   -0.3237 C   0  0  0  0  0  0  0  0  0  0  0  0
   -1.2133    3.9643    0.8829 C   0  0  0  0  0  0  0  0  0  0  0  0
   -4.0946    3.1861   -0.0627 C   0  0  0  0  0  0  0  0  0  0  0  0
   -1.9022   -0.1128    0.2753 H   0  0  0  0  0  0  0  0  0  0  0  0
   -0.1596    1.6222   -0.3500 H   0  0  0  0  0  0  0  0  0  0  0  0
   -2.2713    2.3317    1.7545 H   0  0  0  0  0  0  0  0  0  0  0  0
   -2.3944    2.7537   -1.2692 H   0  0  0  0  0  0  0  0  0  0  0  0
   -3.0817    1.3425   -0.4723 H   0  0  0  0  0  0  0  0  0  0  0  0
   -0.6946    4.2348   -0.0431 H   0  0  0  0  0  0  0  0  0  0  0  0
   -2.0169    4.6935    1.0243 H   0  0  0  0  0  0  0  0  0  0  0  0
   -0.5073    4.0738    1.7125 H   0  0  0  0  0  0  0  0  0  0  0  0
   -4.5741    2.8797    0.8713 H   0  0  0  0  0  0  0  0  0  0  0  0
   -4.8122    3.0153   -0.8719 H   0  0  0  0  0  0  0  0  0  0  0  0
   -3.8898    4.2601   -0.0139 H   0  0  0  0  0  0  0  0  0  0  0  0
    1.4340    0.7170    1.6681 N   0  0  0  0  0  0  0  0  0  0  0  0
    2.5744    0.6762    2.5550 C   0  0  2  0  0  0  0  0  0  0  0  0
    2.9558   -0.7834    2.7638 C   0  0  0  0  0  0  0  0  0  0  0  0
    2.1698   -1.7131    2.5937 O   0  0  0  0  0  0  0  0  0  0  0  0
    2.2679    1.3531    3.8819 C   0  0  0  0  0  0  0  0  0  0  0  0
    1.3067   -0.0466    1.0105 H   0  0  0  0  0  0  0  0  0  0  0  0
    3.3909    1.1983    2.0444 H   0  0  0  0  0  0  0  0  0  0  0  0
    1.4521    0.8439    4.4080 H   0  0  0  0  0  0  0  0  0  0  0  0
    3.1417    1.3466    4.5418 H   0  0  0  0  0  0  0  0  0  0  0  0
    1.9649    2.3943    3.7274 H   0  0  0  0  0  0  0  0  0  0  0  0
    4.2646   -0.9229    3.2040 N   0  0  0  0  0  0  0  0  0  0  0  0
    4.8594   -2.2084    3.4862 C   0  0  0  0  0  0  0  0  0  0  0  0
    4.8503   -0.0985    3.2993 H   0  0  0  0  0  0  0  0  0  0  0  0
    4.7268   -2.4485    4.5514 H   0  0  0  0  0  0  0  0  0  0  0  0
    4.3716   -2.9805    2.8730 H   0  0  0  0  0  0  0  0  0  0  0  0
    5.9329   -2.1757    3.2487 H   0  0  0  0  0  0  0  0  0  0  0  0
  1  3  1  0  0  0  0
  1  7  1  0  0  0  0
  1  2  2  0  0  0  0
 37 38  1  0  0  0  0
 38 46  1  0  0  0  0
 38 39  2  0  0  0  0
  8  9  1  0  0  0  0
  9 17  1  0  0  0  0
  9 10  2  0  0  0  0
 18 19  1  0  0  0  0
 19 36  1  0  0  0  0
 19 20  2  0  0  0  0
 22 24  1  0  0  0  0
 37 40  1  0  0  0  0
  8 11  1  0  0  0  0
 21 23  1  0  0  0  0
 46 47  1  0  0  0  0
 21 22  1  0  0  0  0
 36 37  1  0  0  0  0
  7  8  1  0  0  0  0
 18 21  1  0  0  0  0
 17 18  1  0  0  0  0
  3  4  1  0  0  0  0
  3  5  1  0  0  0  0
  3  6  1  0  0  0  0
 24 33  1  0  0  0  0
 24 34  1  0  0  0  0
 24 35  1  0  0  0  0
 40 43  1  0  0  0  0
 40 44  1  0  0  0  0
 40 45  1  0  0  0  0
 11 14  1  0  0  0  0
 11 15  1  0  0  0  0
 11 16  1  0  0  0  0
 23 30  1  0  0  0  0
 23 31  1  0  0  0  0
 23 32  1  0  0  0  0
 47 49  1  0  0  0  0
 47 50  1  0  0  0  0
 47 51  1  0  0  0  0
 22 28  1  0  0  0  0
 22 29  1  0  0  0  0
 37 42  1  0  0  0  0
  8 13  1  0  0  0  0
 18 26  1  0  0  0  0
 21 27  1  0  0  0  0
 46 48  1  0  0  0  0
  7 12  1  0  0  0  0
 36 41  1  0  0  0  0
 17 25  1  0  0  0  0
M  END
$$$$

  -OEChem-05262214473D

 51 50  0     1  0  0  0  0  0999 V2000
    1.3524   -3.0009    1.4091 C   0  0  0  0  0  0  0  0  0  0  0  0
    1.8758   -1.9880    0.9598 O   0  0  0  0  0  0  0  0  0  0  0  0
    2.2030   -4.1782    1.7536 C   0  0  0  0  0  0  0  0  0  0  0  0
    2.3264   -4.8705    0.9053 H   0  0  0  0  0  0  0  0  0  0  0  0
    3.2257   -3.8876    2.0432 H   0  0  0  0  0  0  0  0  0  0  0  0
    1.8327   -4.8004    2.5839 H   0  0  0  0  0  0  0  0  0  0  0  0
    0.0005   -3.1873    1.6465 N   0  0  0  0  0  0  0  0  0  0  0  0
   -0.9949   -2.1807    1.3864 C   0  0  2  0  0  0  0  0  0  0  0  0
   -0.3083   -0.8216    1.4164 C   0  0  0  0  0  0  0  0  0  0  0  0
    0.7533   -0.6191    2.0022 O   0  0  0  0  0  0  0  0  0  0  0  0
   -2.1232   -2.2423    2.4042 C   0  0  0  0  0  0  0  0  0  0  0  0
   -0.3048   -4.0823    2.0245 H   0  0  0  0  0  0  0  0  0  0  0  0
   -1.3830   -2.3724    0.3801 H   0  0  0  0  0  0  0  0  0  0  0  0
   -1.7534   -2.0527    3.4185 H   0  0  0  0  0  0  0  0  0  0  0  0
   -2.8936   -1.4947    2.1882 H   0  0  0  0  0  0  0  0  0  0  0  0
   -2.5964   -3.2301    2.4022 H   0  0  0  0  0  0  0  0  0  0  0  0
   -1.0412    0.1517    0.7482 N   0  0  0  0  0  0  0  0  0  0  0  0
   -0.6079    1.5223    0.6467 C   0  0  2  0  0  0  0  0  0  0  0  0
    0.5044    1.7471    1.6702 C   0  0  0  0  0  0  0  0  0  0  0  0
    0.4108    2.5559    2.5913 O   0  0  0  0  0  0  0  0  0  0  0  0
   -1.7676    2.5358    0.8002 C   0  0  2  0  0  0  0  0  0  0  0  0
   -2.8183    2.3965   -0.3237 C   0  0  0  0  0  0  0  0  0  0  0  0
   -1.2133    3.9643    0.8829 C   0  0  0  0  0  0  0  0  0  0  0  0
   -4.0946    3.1861   -0.0627 C   0  0  0  0  0  0  0  0  0  0  0  0
   -1.9022   -0.1128    0.2753 H   0  0  0  0  0  0  0  0  0  0  0  0
   -0.1596    1.6222   -0.3500 H   0  0  0  0  0  0  0  0  0  0  0  0
   -2.2713    2.3317    1.7545 H   0  0  0  0  0  0  0  0  0  0  0  0
   -2.3944    2.7537   -1.2692 H   0  0  0  0  0  0  0  0  0  0  0  0
   -3.0817    1.3425   -0.4723 H   0  0  0  0  0  0  0  0  0  0  0  0
   -0.6946    4.2348   -0.0431 H   0  0  0  0  0  0  0  0  0  0  0  0
   -2.0169    4.6935    1.0243 H   0  0  0  0  0  0  0  0  0  0  0  0
   -0.5073    4.0738    1.7125 H   0  0  0  0  0  0  0  0  0  0  0  0
   -4.5741    2.8797    0.8713 H   0  0  0  0  0  0  0  0  0  0  0  0
   -4.8122    3.0153   -0.8719 H   0  0  0  0  0  0  0  0  0  0  0  0
   -3.8898    4.2601   -0.0139 H   0  0  0  0  0  0  0  0  0  0  0  0
    1.5938    0.9162    1.4507 N   0  0  0  0  0  0  0  0  0  0  0  0
    2.7713    0.9146    2.2886 C   0  0  2  0  0  0  0  0  0  0  0  0
    3.4058   -0.4675    2.2054 C   0  0  0  0  0  0  0  0  0  0  0  0
    2.7808   -1.4738    1.8771 O   0  0  0  0  0  0  0  0  0  0  0  0
    2.4274    1.2691    3.7269 C   0  0  0  0  0  0  0  0  0  0  0  0
    1.5621    0.2773    0.6617 H   0  0  0  0  0  0  0  0  0  0  0  0
    3.4583    1.6582    1.8701 H   0  0  0  0  0  0  0  0  0  0  0  0
    1.7399    0.5352    4.1630 H   0  0  0  0  0  0  0  0  0  0  0  0
    3.3244    1.2953    4.3544 H   0  0  0  0  0  0  0  0  0  0  0  0
    1.9442    2.2506    3.7815 H   0  0  0  0  0  0  0  0  0  0  0  0
    4.7413   -0.4522    2.5825 N   0  0  0  0  0  0  0  0  0  0  0  0
    5.5601   -1.6418    2.6001 C   0  0  0  0  0  0  0  0  0  0  0  0
    5.1830    0.4308    2.8215 H   0  0  0  0  0  0  0  0  0  0  0  0
    5.5287   -2.0944    3.6021 H   0  0  0  0  0  0  0  0  0  0  0  0
    5.1777   -2.3610    1.8609 H   0  0  0  0  0  0  0  0  0  0  0  0
    6.5980   -1.3762    2.3503 H   0  0  0  0  0  0  0  0  0  0  0  0
  1  3  1  0  0  0  0
  1  7  1  0  0  0  0
  1  2  2  0  0  0  0
 37 38  1  0  0  0  0
 38 46  1  0  0  0  0
 38 39  2  0  0  0  0
  8  9  1  0  0  0  0
  9 17  1  0  0  0  0
  9 10  2  0  0  0  0
 18 19  1  0  0  0  0
 19 36  1  0  0  0  0
 19 20  2  0  0  0  0
 22 24  1  0  0  0  0
 37 40  1  0  0  0  0
  8 11  1  0  0  0  0
 21 23  1  0  0  0  0
 46 47  1  0  0  0  0
 21 22  1  0  0  0  0
 36 37  1  0  0  0  0
  7  8  1  0  0  0  0
 18 21  1  0  0  0  0
 17 18  1  0  0  0  0
  3  4  1  0  0  0  0
  3  5  1  0  0  0  0
  3  6  1  0  0  0  0
 24 33  1  0  0  0  0
 24 34  1  0  0  0  0
 24 35  1  0  0  0  0
 40 43  1  0  0  0  0
 40 44  1  0  0  0  0
 40 45  1  0  0  0  0
 11 14  1  0  0  0  0
 11 15  1  0  0  0  0
 11 16  1  0  0  0  0
 23 30  1  0  0  0  0
 23 31  1  0  0  0  0
 23 32  1  0  0  0  0
 47 49  1  0  0  0  0
 47 50  1  0  0  0  0
 47 51  1  0  0  0  0
 22 28  1  0  0  0  0
 22 29  1  0  0  0  0
 37 42  1  0  0  0  0
  8 13  1  0  0  0  0
 18 26  1  0  0  0  0
 21 27  1  0  0  0  0
 46 48  1  0  0  0  0
  7 12  1  0  0  0  0
 36 41  1  0  0  0  0
 17 25  1  0  0  0  0
M  END
$$$$

  -OEChem-05262214473D

 51 50  0     1  0  0  0  0  0999 V2000
    1.3524   -3.0009    1.4091 C   0  0  0  0  0  0  0  0  0  0  0  0
    1.8758   -1.9880    0.9598 O   0  0  0  0  0  0  0  0  0  0  0  0
    2.2030   -4.1782    1.7536 C   0  0  0  0  0  0  0  0  0  0  0  0
    2.3264   -4.8705    0.9053 H   0  0  0  0  0  0  0  0  0  0  0  0
    3.2257   -3.8876    2.0432 H   0  0  0  0  0  0  0  0  0  0  0  0
    1.8327   -4.8004    2.5839 H   0  0  0  0  0  0  0  0  0  0  0  0
    0.0005   -3.1873    1.6465 N   0  0  0  0  0  0  0  0  0  0  0  0
   -0.9949   -2.1807    1.3864 C   0  0  2  0  0  0  0  0  0  0  0  0
   -0.3083   -0.8216    1.4164 C   0  0  0  0  0  0  0  0  0  0  0  0
    0.7533   -0.6191    2.0022 O   0  0  0  0  0  0  0  0  0  0  0  0
   -2.1232   -2.2423    2.4042 C   0  0  0  0  0  0  0  0  0  0  0  0
   -0.3048   -4.0823    2.0245 H   0  0  0  0  0  0  0  0  0  0  0  0
   -1.3830   -2.3724    0.3801 H   0  0  0  0  0  0  0  0  0  0  0  0
   -1.7534   -2.0527    3.4185 H   0  0  0  0  0  0  0  0  0  0  0  0
   -2.8936   -1.4947    2.1882 H   0  0  0  0  0  0  0  0  0  0  0  0
   -2.5964   -3.2301    2.4022 H   0  0  0  0  0  0  0  0  0  0  0  0
   -1.0412    0.1517    0.7482 N   0  0  0  0  0  0  0  0  0  0  0  0
   -0.6079    1.5223    0.6467 C   0  0  2  0  0  0  0  0  0  0  0  0
    0.5044    1.7471    1.6702 C   0  0  0  0  0  0  0  0  0  0  0  0
    0.3254    2.3420    2.7311 O   0  0  0  0  0  0  0  0  0  0  0  0
   -1.7676    2.5358    0.8002 C   0  0  2  0  0  0  0  0  0  0  0  0
   -2.8183    2.3965   -0.3237 C   0  0  0  0  0  0  0  0  0  0  0  0
   -1.2133    3.9643    0.8829 C   0  0  0  0  0  0  0  0  0  0  0  0
   -4.0946    3.1861   -0.0627 C   0  0  0  0  0  0  0  0  0  0  0  0
   -1.9022   -0.1128    0.2753 H   0  0  0  0  0  0  0  0  0  0  0  0
   -0.1596    1.6222   -0.3500 H   0  0  0  0  0  0  0  0  0  0  0  0
   -2.2713    2.3317    1.7545 H   0  0  0  0  0  0  0  0  0  0  0  0
   -2.3944    2.7537   -1.2692 H   0  0  0  0  0  0  0  0  0  0  0  0
   -3.0817    1.3425   -0.4723 H   0  0  0  0  0  0  0  0  0  0  0  0
   -0.6946    4.2348   -0.0431 H   0  0  0  0  0  0  0  0  0  0  0  0
   -2.0169    4.6935    1.0243 H   0  0  0  0  0  0  0  0  0  0  0  0
   -0.5073    4.0738    1.7125 H   0  0  0  0  0  0  0  0  0  0  0  0
   -4.5741    2.8797    0.8713 H   0  0  0  0  0  0  0  0  0  0  0  0
   -4.8122    3.0153   -0.8719 H   0  0  0  0  0  0  0  0  0  0  0  0
   -3.8898    4.2601   -0.0139 H   0  0  0  0  0  0  0  0  0  0  0  0
    1.7054    1.1773    1.2721 N   0  0  0  0  0  0  0  0  0  0  0  0
    2.9101    1.2291    2.0686 C   0  0  2  0  0  0  0  0  0  0  0  0
    3.7643    0.0208    1.7084 C   0  0  0  0  0  0  0  0  0  0  0  0
    3.3022   -1.0019    1.2067 O   0  0  0  0  0  0  0  0  0  0  0  0
    2.5902    1.2448    3.5553 C   0  0  0  0  0  0  0  0  0  0  0  0
    1.7394    0.7001    0.3761 H   0  0  0  0  0  0  0  0  0  0  0  0
    3.4370    2.1470    1.7859 H   0  0  0  0  0  0  0  0  0  0  0  0
    2.0621    0.3330    3.8573 H   0  0  0  0  0  0  0  0  0  0  0  0
    3.5027    1.3129    4.1568 H   0  0  0  0  0  0  0  0  0  0  0  0
    1.9512    2.0980    3.8074 H   0  0  0  0  0  0  0  0  0  0  0  0
    5.0965    0.2022    2.0527 N   0  0  0  0  0  0  0  0  0  0  0  0
    6.1051   -0.8061    1.8242 C   0  0  0  0  0  0  0  0  0  0  0  0
    5.3944    1.0897    2.4470 H   0  0  0  0  0  0  0  0  0  0  0  0
    6.2057   -1.4346    2.7214 H   0  0  0  0  0  0  0  0  0  0  0  0
    5.8103   -1.4322    0.9692 H   0  0  0  0  0  0  0  0  0  0  0  0
    7.0675   -0.3194    1.6078 H   0  0  0  0  0  0  0  0  0  0  0  0
  1  3  1  0  0  0  0
  1  7  1  0  0  0  0
  1  2  2  0  0  0  0
 37 38  1  0  0  0  0
 38 46  1  0  0  0  0
 38 39  2  0  0  0  0
  8  9  1  0  0  0  0
  9 17  1  0  0  0  0
  9 10  2  0  0  0  0
 18 19  1  0  0  0  0
 19 36  1  0  0  0  0
 19 20  2  0  0  0  0
 22 24  1  0  0  0  0
 37 40  1  0  0  0  0
  8 11  1  0  0  0  0
 21 23  1  0  0  0  0
 46 47  1  0  0  0  0
 21 22  1  0  0  0  0
 36 37  1  0  0  0  0
  7  8  1  0  0  0  0
 18 21  1  0  0  0  0
 17 18  1  0  0  0  0
  3  4  1  0  0  0  0
  3  5  1  0  0  0  0
  3  6  1  0  0  0  0
 24 33  1  0  0  0  0
 24 34  1  0  0  0  0
 24 35  1  0  0  0  0
 40 43  1  0  0  0  0
 40 44  1  0  0  0  0
 40 45  1  0  0  0  0
 11 14  1  0  0  0  0
 11 15  1  0  0  0  0
 11 16  1  0  0  0  0
 23 30  1  0  0  0  0
 23 31  1  0  0  0  0
 23 32  1  0  0  0  0
 47 49  1  0  0  0  0
 47 50  1  0  0  0  0
 47 51  1  0  0  0  0
 22 28  1  0  0  0  0
 22 29  1  0  0  0  0
 37 42  1  0  0  0  0
  8 13  1  0  0  0  0
 18 26  1  0  0  0  0
 21 27  1  0  0  0  0
 46 48  1  0  0  0  0
  7 12  1  0  0  0  0
 36 41  1  0  0  0  0
 17 25  1  0  0  0  0
M  END
$$$$

  -OEChem-05262214473D

 51 50  0     1  0  0  0  0  0999 V2000
    1.3524   -3.0009    1.4091 C   0  0  0  0  0  0  0  0  0  0  0  0
    1.8758   -1.9880    0.9598 O   0  0  0  0  0  0  0  0  0  0  0  0
    2.2030   -4.1782    1.7536 C   0  0  0  0  0  0  0  0  0  0  0  0
    2.3264   -4.8705    0.9053 H   0  0  0  0  0  0  0  0  0  0  0  0
    3.2257   -3.8876    2.0432 H   0  0  0  0  0  0  0  0  0  0  0  0
    1.8327   -4.8004    2.5839 H   0  0  0  0  0  0  0  0  0  0  0  0
    0.0005   -3.1873    1.6465 N   0  0  0  0  0  0  0  0  0  0  0  0
   -0.9949   -2.1807    1.3864 C   0  0  2  0  0  0  0  0  0  0  0  0
   -0.3083   -0.8216    1.4164 C   0  0  0  0  0  0  0  0  0  0  0  0
    0.7533   -0.6191    2.0022 O   0  0  0  0  0  0  0  0  0  0  0  0
   -2.1232   -2.2423    2.4042 C   0  0  0  0  0  0  0  0  0  0  0  0
   -0.3048   -4.0823    2.0245 H   0  0  0  0  0  0  0  0  0  0  0  0
   -1.3830   -2.3724    0.3801 H   0  0  0  0  0  0  0  0  0  0  0  0
   -1.7534   -2.0527    3.4185 H   0  0  0  0  0  0  0  0  0  0  0  0
   -2.8936   -1.4947    2.1882 H   0  0  0  0  0  0  0  0  0  0  0  0
   -2.5964   -3.2301    2.4022 H   0  0  0  0  0  0  0  0  0  0  0  0
   -1.0412    0.1517    0.7482 N   0  0  0  0  0  0  0  0  0  0  0  0
   -0.6079    1.5223    0.6467 C   0  0  2  0  0  0  0  0  0  0  0  0
    0.5044    1.7471    1.6702 C   0  0  0  0  0  0  0  0  0  0  0  0
    0.2853    2.0942    2.8291 O   0  0  0  0  0  0  0  0  0  0  0  0
   -1.7676    2.5358    0.8002 C   0  0  2  0  0  0  0  0  0  0  0  0
   -2.8183    2.3965   -0.3237 C   0  0  0  0  0  0  0  0  0  0  0  0
   -1.2133    3.9643    0.8829 C   0  0  0  0  0  0  0  0  0  0  0  0
   -4.0946    3.1861   -0.0627 C   0  0  0  0  0  0  0  0  0  0  0  0
   -1.9022   -0.1128    0.2753 H   0  0  0  0  0  0  0  0  0  0  0  0
   -0.1596    1.6222   -0.3500 H   0  0  0  0  0  0  0  0  0  0  0  0
   -2.2713    2.3317    1.7545 H   0  0  0  0  0  0  0  0  0  0  0  0
   -2.3944    2.7537   -1.2692 H   0  0  0  0  0  0  0  0  0  0  0  0
   -3.0817    1.3425   -0.4723 H   0  0  0  0  0  0  0  0  0  0  0  0
   -0.6946    4.2348   -0.0431 H   0  0  0  0  0  0  0  0  0  0  0  0
   -2.0169    4.6935    1.0243 H   0  0  0  0  0  0  0  0  0  0  0  0
   -0.5073    4.0738    1.7125 H   0  0  0  0  0  0  0  0  0  0  0  0
   -4.5741    2.8797    0.8713 H   0  0  0  0  0  0  0  0  0  0  0  0
   -4.8122    3.0153   -0.8719 H   0  0  0  0  0  0  0  0  0  0  0  0
   -3.8898    4.2601   -0.0139 H   0  0  0  0  0  0  0  0  0  0  0  0
    1.7610    1.4826    1.1445 N   0  0  0  0  0  0  0  0  0  0  0  0
    2.9812    1.5984    1.9102 C   0  0  2  0  0  0  0  0  0  0  0  0
    4.0072    0.6483    1.3067 C   0  0  0  0  0  0  0  0  0  0  0  0
    3.6985   -0.3293    0.6283 O   0  0  0  0  0  0  0  0  0  0  0  0
    2.7451    1.2819    3.3788 C   0  0  0  0  0  0  0  0  0  0  0  0
    1.8266    1.1930    0.1732 H   0  0  0  0  0  0  0  0  0  0  0  0
    3.3285    2.6313    1.7974 H   0  0  0  0  0  0  0  0  0  0  0  0
    2.3968    0.2512    3.5116 H   0  0  0  0  0  0  0  0  0  0  0  0
    3.6643    1.3979    3.9624 H   0  0  0  0  0  0  0  0  0  0  0  0
    1.9853    1.9469    3.8035 H   0  0  0  0  0  0  0  0  0  0  0  0
    5.3060    0.9957    1.6506 N   0  0  0  0  0  0  0  0  0  0  0  0
    6.4570    0.2418    1.2115 C   0  0  0  0  0  0  0  0  0  0  0  0
    5.4701    1.8333    2.2013 H   0  0  0  0  0  0  0  0  0  0  0  0
    6.7118   -0.5140    1.9691 H   0  0  0  0  0  0  0  0  0  0  0  0
    6.2265   -0.2575    0.2589 H   0  0  0  0  0  0  0  0  0  0  0  0
    7.3096    0.9226    1.0718 H   0  0  0  0  0  0  0  0  0  0  0  0
  1  3  1  0  0  0  0
  1  7  1  0  0  0  0
  1  2  2  0  0  0  0
 37 38  1  0  0  0  0
 38 46  1  0  0  0  0
 38 39  2  0  0  0  0
  8  9  1  0  0  0  0
  9 17  1  0  0  0  0
  9 10  2  0  0  0  0
 18 19  1  0  0  0  0
 19 36  1  0  0  0  0
 19 20  2  0  0  0  0
 22 24  1  0  0  0  0
 37 40  1  0  0  0  0
  8 11  1  0  0  0  0
 21 23  1  0  0  0  0
 46 47  1  0  0  0  0
 21 22  1  0  0  0  0
 36 37  1  0  0  0  0
  7  8  1  0  0  0  0
 18 21  1  0  0  0  0
 17 18  1  0  0  0  0
  3  4  1  0  0  0  0
  3  5  1  0  0  0  0
  3  6  1  0  0  0  0
 24 33  1  0  0  0  0
 24 34  1  0  0  0  0
 24 35  1  0  0  0  0
 40 43  1  0  0  0  0
 40 44  1  0  0  0  0
 40 45  1  0  0  0  0
 11 14  1  0  0  0  0
 11 15  1  0  0  0  0
 11 16  1  0  0  0  0
 23 30  1  0  0  0  0
 23 31  1  0  0  0  0
 23 32  1  0  0  0  0
 47 49  1  0  0  0  0
 47 50  1  0  0  0  0
 47 51  1  0  0  0  0
 22 28  1  0  0  0  0
 22 29  1  0  0  0  0
 37 42  1  0  0  0  0
  8 13  1  0  0  0  0
 18 26  1  0  0  0  0
 21 27  1  0  0  0  0
 46 48  1  0  0  0  0
  7 12  1  0  0  0  0
 36 41  1  0  0  0  0
 17 25  1  0  0  0  0
M  END
$$$$

  -OEChem-05262214473D

 51 50  0     1  0  0  0  0  0999 V2000
    1.3524   -3.0009    1.4091 C   0  0  0  0  0  0  0  0  0  0  0  0
    1.8758   -1.9880    0.9598 O   0  0  0  0  0  0  0  0  0  0  0  0
    2.2030   -4.1782    1.7536 C   0  0  0  0  0  0  0  0  0  0  0  0
    2.3264   -4.8705    0.9053 H   0  0  0  0  0  0  0  0  0  0  0  0
    3.2257   -3.8876    2.0432 H   0  0  0  0  0  0  0  0  0  0  0  0
    1.8327   -4.8004    2.5839 H   0  0  0  0  0  0  0  0  0  0  0  0
    0.0005   -3.1873    1.6465 N   0  0  0  0  0  0  0  0  0  0  0  0
   -0.9949   -2.1807    1.3864 C   0  0  2  0  0  0  0  0  0  0  0  0
   -0.3083   -0.8216    1.4164 C   0  0  0  0  0  0  0  0  0  0  0  0
    0.7533   -0.6191    2.0022 O   0  0  0  0  0  0  0  0  0  0  0  0
   -2.1232   -2.2423    2.4042 C   0  0  0  0  0  0  0  0  0  0  0  0
   -0.3048   -4.0823    2.0245 H   0  0  0  0  0  0  0  0  0  0  0  0
   -1.3830   -2.3724    0.3801 H   0  0  0  0  0  0  0  0  0  0  0  0
   -1.7534   -2.0527    3.4185 H   0  0  0  0  0  0  0  0  0  0  0  0
   -2.8936   -1.4947    2.1882 H   0  0  0  0  0  0  0  0  0  0  0  0
   -2.5964   -3.2301    2.4022 H   0  0  0  0  0  0  0  0  0  0  0  0
   -1.0412    0.1517    0.7482 N   0  0  0  0  0  0  0  0  0  0  0  0
   -0.6079    1.5223    0.6467 C   0  0  2  0  0  0  0  0  0  0  0  0
    0.5044    1.7471    1.6702 C   0  0  0  0  0  0  0  0  0  0  0  0
    0.2933    1.8294    2.8785 O   0  0  0  0  0  0  0  0  0  0  0  0
   -1.7676    2.5358    0.8002 C   0  0  2  0  0  0  0  0  0  0  0  0
   -2.8183    2.3965   -0.3237 C   0  0  0  0  0  0  0  0  0  0  0  0
   -1.2133    3.9643    0.8829 C   0  0  0  0  0  0  0  0  0  0  0  0
   -4.0946    3.1861   -0.0627 C   0  0  0  0  0  0  0  0  0  0  0  0
   -1.9022   -0.1128    0.2753 H   0  0  0  0  0  0  0  0  0  0  0  0
   -0.1596    1.6222   -0.3500 H   0  0  0  0  0  0  0  0  0  0  0  0
   -2.2713    2.3317    1.7545 H   0  0  0  0  0  0  0  0  0  0  0  0
   -2.3944    2.7537   -1.2692 H   0  0  0  0  0  0  0  0  0  0  0  0
   -3.0817    1.3425   -0.4723 H   0  0  0  0  0  0  0  0  0  0  0  0
   -0.6946    4.2348   -0.0431 H   0  0  0  0  0  0  0  0  0  0  0  0
   -2.0169    4.6935    1.0243 H   0  0  0  0  0  0  0  0  0  0  0  0
   -0.5073    4.0738    1.7125 H   0  0  0  0  0  0  0  0  0  0  0  0
   -4.5741    2.8797    0.8713 H   0  0  0  0  0  0  0  0  0  0  0  0
   -4.8122    3.0153   -0.8719 H   0  0  0  0  0  0  0  0  0  0  0  0
   -3.8898    4.2601   -0.0139 H   0  0  0  0  0  0  0  0  0  0  0  0
    1.7571    1.8111    1.0767 N   0  0  0  0  0  0  0  0  0  0  0  0
    2.9799    1.9973    1.8240 C   0  0  2  0  0  0  0  0  0  0  0  0
    4.1176    1.3721    1.0276 C   0  0  0  0  0  0  0  0  0  0  0  0
    3.9427    0.4980    0.1811 O   0  0  0  0  0  0  0  0  0  0  0  0
    2.8816    1.3779    3.2094 C   0  0  0  0  0  0  0  0  0  0  0  0
    1.8175    1.7225    0.0667 H   0  0  0  0  0  0  0  0  0  0  0  0
    3.1402    3.0781    1.9040 H   0  0  0  0  0  0  0  0  0  0  0  0
    2.7210    0.2952    3.1495 H   0  0  0  0  0  0  0  0  0  0  0  0
    3.7983    1.5447    3.7845 H   0  0  0  0  0  0  0  0  0  0  0  0
    2.0444    1.8076    3.7699 H   0  0  0  0  0  0  0  0  0  0  0  0
    5.3556    1.8742    1.4039 N   0  0  0  0  0  0  0  0  0  0  0  0
    6.5920    1.4304    0.8037 C   0  0  0  0  0  0  0  0  0  0  0  0
    5.4049    2.6110    2.1013 H   0  0  0  0  0  0  0  0  0  0  0  0
    7.0124    0.6047    1.3967 H   0  0  0  0  0  0  0  0  0  0  0  0
    6.3978    1.0833   -0.2218 H   0  0  0  0  0  0  0  0  0  0  0  0
    7.3078    2.2653    0.7789 H   0  0  0  0  0  0  0  0  0  0  0  0
  1  3  1  0  0  0  0
  1  7  1  0  0  0  0
  1  2  2  0  0  0  0
 37 38  1  0  0  0  0
 38 46  1  0  0  0  0
 38 39  2  0  0  0  0
  8  9  1  0  0  0  0
  9 17  1  0  0  0  0
  9 10  2  0  0  0  0
 18 19  1  0  0  0  0
 19 36  1  0  0  0  0
 19 20  2  0  0  0  0
 22 24  1  0  0  0  0
 37 40  1  0  0  0  0
  8 11  1  0  0  0  0
 21 23  1  0  0  0  0
 46 47  1  0  0  0  0
 21 22  1  0  0  0  0
 36 37  1  0  0  0  0
  7  8  1  0  0  0  0
 18 21  1  0  0  0  0
 17 18  1  0  0  0  0
  3  4  1  0  0  0  0
  3  5  1  0  0  0  0
  3  6  1  0  0  0  0
 24 33  1  0  0  0  0
 24 34  1  0  0  0  0
 24 35  1  0  0  0  0
 40 43  1  0  0  0  0
 40 44  1  0  0  0  0
 40 45  1  0  0  0  0
 11 14  1  0  0  0  0
 11 15  1  0  0  0  0
 11 16  1  0  0  0  0
 23 30  1  0  0  0  0
 23 31  1  0  0  0  0
 23 32  1  0  0  0  0
 47 49  1  0  0  0  0
 47 50  1  0  0  0  0
 47 51  1  0  0  0  0
 22 28  1  0  0  0  0
 22 29  1  0  0  0  0
 37 42  1  0  0  0  0
  8 13  1  0  0  0  0
 18 26  1  0  0  0  0
 21 27  1  0  0  0  0
 46 48  1  0  0  0  0
  7 12  1  0  0  0  0
 36 41  1  0  0  0  0
 17 25  1  0  0  0  0
M  END
$$$$

  -OEChem-05262214473D

 51 50  0     1  0  0  0  0  0999 V2000
    1.3524   -3.0009    1.4091 C   0  0  0  0  0  0  0  0  0  0  0  0
    1.8758   -1.9880    0.9598 O   0  0  0  0  0  0  0  0  0  0  0  0
    2.2030   -4.1782    1.7536 C   0  0  0  0  0  0  0  0  0  0  0  0
    2.3264   -4.8705    0.9053 H   0  0  0  0  0  0  0  0  0  0  0  0
    3.2257   -3.8876    2.0432 H   0  0  0  0  0  0  0  0  0  0  0  0
    1.8327   -4.8004    2.5839 H   0  0  0  0  0  0  0  0  0  0  0  0
    0.0005   -3.1873    1.6465 N   0  0  0  0  0  0  0  0  0  0  0  0
   -0.9949   -2.1807    1.3864 C   0  0  2  0  0  0  0  0  0  0  0  0
   -0.3083   -0.8216    1.4164 C   0  0  0  0  0  0  0  0  0  0  0  0
    0.7533   -0.6191    2.0022 O   0  0  0  0  0  0  0  0  0  0  0  0
   -2.1232   -2.2423    2.4042 C   0  0  0  0  0  0  0  0  0  0  0  0
   -0.3048   -4.0823    2.0245 H   0  0  0  0  0  0  0  0  0  0  0  0
   -1.3830   -2.3724    0.3801 H   0  0  0  0  0  0  0  0  0  0  0  0
   -1.7534   -2.0527    3.4185 H   0  0  0  0  0  0  0  0  0  0  0  0
   -2.8936   -1.4947    2.1882 H   0  0  0  0  0  0  0  0  0  0  0  0
   -2.5964   -3.2301    2.4022 H   0  0  0  0  0  0  0  0  0  0  0  0
   -1.0412    0.1517    0.7482 N   0  0  0  0  0  0  0  0  0  0  0  0
   -0.6079    1.5223    0.6467 C   0  0  2  0  0  0  0  0  0  0  0  0
    0.5044    1.7471    1.6702 C   0  0  0  0  0  0  0  0  0  0  0  0
    0.3488    1.5657    2.8761 O   0  0  0  0  0  0  0  0  0  0  0  0
   -1.7676    2.5358    0.8002 C   0  0  2  0  0  0  0  0  0  0  0  0
   -2.8183    2.3965   -0.3237 C   0  0  0  0  0  0  0  0  0  0  0  0
   -1.2133    3.9643    0.8829 C   0  0  0  0  0  0  0  0  0  0  0  0
   -4.0946    3.1861   -0.0627 C   0  0  0  0  0  0  0  0  0  0  0  0
   -1.9022   -0.1128    0.2753 H   0  0  0  0  0  0  0  0  0  0  0  0
   -0.1596    1.6222   -0.3500 H   0  0  0  0  0  0  0  0  0  0  0  0
   -2.2713    2.3317    1.7545 H   0  0  0  0  0  0  0  0  0  0  0  0
   -2.3944    2.7537   -1.2692 H   0  0  0  0  0  0  0  0  0  0  0  0
   -3.0817    1.3425   -0.4723 H   0  0  0  0  0  0  0  0  0  0  0  0
   -0.6946    4.2348   -0.0431 H   0  0  0  0  0  0  0  0  0  0  0  0
   -2.0169    4.6935    1.0243 H   0  0  0  0  0  0  0  0  0  0  0  0
   -0.5073    4.0738    1.7125 H   0  0  0  0  0  0  0  0  0  0  0  0
   -4.5741    2.8797    0.8713 H   0  0  0  0  0  0  0  0  0  0  0  0
   -4.8122    3.0153   -0.8719 H   0  0  0  0  0  0  0  0  0  0  0  0
   -3.8898    4.2601   -0.0139 H   0  0  0  0  0  0  0  0  0  0  0  0
    1.6937    2.1405    1.0732 N   0  0  0  0  0  0  0  0  0  0  0  0
    2.9062    2.3987    1.8159 C   0  0  2  0  0  0  0  0  0  0  0  0
    4.0882    2.1430    0.8902 C   0  0  0  0  0  0  0  0  0  0  0  0
    4.0181    1.4237   -0.1042 O   0  0  0  0  0  0  0  0  0  0  0  0
    2.9904    1.5261    3.0586 C   0  0  0  0  0  0  0  0  0  0  0  0
    1.7130    2.2524    0.0639 H   0  0  0  0  0  0  0  0  0  0  0  0
    2.8849    3.4569    2.0982 H   0  0  0  0  0  0  0  0  0  0  0  0
    3.0128    0.4622    2.7957 H   0  0  0  0  0  0  0  0  0  0  0  0
    3.8956    1.7432    3.6353 H   0  0  0  0  0  0  0  0  0  0  0  0
    2.1243    1.6896    3.7090 H   0  0  0  0  0  0  0  0  0  0  0  0
    5.2417    2.7778    1.3291 N   0  0  0  0  0  0  0  0  0  0  0  0
    6.5009    2.6787    0.6286 C   0  0  0  0  0  0  0  0  0  0  0  0
    5.2034    3.3698    2.1536 H   0  0  0  0  0  0  0  0  0  0  0  0
    7.0870    1.8452    1.0431 H   0  0  0  0  0  0  0  0  0  0  0  0
    6.3126    2.4985   -0.4401 H   0  0  0  0  0  0  0  0  0  0  0  0
    7.0621    3.6170    0.7489 H   0  0  0  0  0  0  0  0  0  0  0  0
  1  3  1  0  0  0  0
  1  7  1  0  0  0  0
  1  2  2  0  0  0  0
 37 38  1  0  0  0  0
 38 46  1  0  0  0  0
 38 39  2  0  0  0  0
  8  9  1  0  0  0  0
  9 17  1  0  0  0  0
  9 10  2  0  0  0  0
 18 19  1  0  0  0  0
 19 36  1  0  0  0  0
 19 20  2  0  0  0  0
 22 24  1  0  0  0  0
 37 40  1  0  0  0  0
  8 11  1  0  0  0  0
 21 23  1  0  0  0  0
 46 47  1  0  0  0  0
 21 22  1  0  0  0  0
 36 37  1  0  0  0  0
  7  8  1  0  0  0  0
 18 21  1  0  0  0  0
 17 18  1  0  0  0  0
  3  4  1  0  0  0  0
  3  5  1  0  0  0  0
  3  6  1  0  0  0  0
 24 33  1  0  0  0  0
 24 34  1  0  0  0  0
 24 35  1  0  0  0  0
 40 43  1  0  0  0  0
 40 44  1  0  0  0  0
 40 45  1  0  0  0  0
 11 14  1  0  0  0  0
 11 15  1  0  0  0  0
 11 16  1  0  0  0  0
 23 30  1  0  0  0  0
 23 31  1  0  0  0  0
 23 32  1  0  0  0  0
 47 49  1  0  0  0  0
 47 50  1  0  0  0  0
 47 51  1  0  0  0  0
 22 28  1  0  0  0  0
 22 29  1  0  0  0  0
 37 42  1  0  0  0  0
  8 13  1  0  0  0  0
 18 26  1  0  0  0  0
 21 27  1  0  0  0  0
 46 48  1  0  0  0  0
  7 12  1  0  0  0  0
 36 41  1  0  0  0  0
 17 25  1  0  0  0  0
M  END
$$$$

  -OEChem-05262214473D

 51 50  0     1  0  0  0  0  0999 V2000
    1.3524   -3.0009    1.4091 C   0  0  0  0  0  0  0  0  0  0  0  0
    1.8758   -1.9880    0.9598 O   0  0  0  0  0  0  0  0  0  0  0  0
    2.2030   -4.1782    1.7536 C   0  0  0  0  0  0  0  0  0  0  0  0
    2.3264   -4.8705    0.9053 H   0  0  0  0  0  0  0  0  0  0  0  0
    3.2257   -3.8876    2.0432 H   0  0  0  0  0  0  0  0  0  0  0  0
    1.8327   -4.8004    2.5839 H   0  0  0  0  0  0  0  0  0  0  0  0
    0.0005   -3.1873    1.6465 N   0  0  0  0  0  0  0  0  0  0  0  0
   -0.9949   -2.1807    1.3864 C   0  0  2  0  0  0  0  0  0  0  0  0
   -0.3083   -0.8216    1.4164 C   0  0  0  0  0  0  0  0  0  0  0  0
    0.7533   -0.6191    2.0022 O   0  0  0  0  0  0  0  0  0  0  0  0
   -2.1232   -2.2423    2.4042 C   0  0  0  0  0  0  0  0  0  0  0  0
   -0.3048   -4.0823    2.0245 H   0  0  0  0  0  0  0  0  0  0  0  0
   -1.3830   -2.3724    0.3801 H   0  0  0  0  0  0  0  0  0  0  0  0
   -1.7534   -2.0527    3.4185 H   0  0  0  0  0  0  0  0  0  0  0  0
   -2.8936   -1.4947    2.1882 H   0  0  0  0  0  0  0  0  0  0  0  0
   -2.5964   -3.2301    2.4022 H   0  0  0  0  0  0  0  0  0  0  0  0
   -1.0412    0.1517    0.7482 N   0  0  0  0  0  0  0  0  0  0  0  0
   -0.6079    1.5223    0.6467 C   0  0  2  0  0  0  0  0  0  0  0  0
    0.5044    1.7471    1.6702 C   0  0  0  0  0  0  0  0  0  0  0  0
    0.4481    1.3211    2.8220 O   0  0  0  0  0  0  0  0  0  0  0  0
   -1.7676    2.5358    0.8002 C   0  0  2  0  0  0  0  0  0  0  0  0
   -2.8183    2.3965   -0.3237 C   0  0  0  0  0  0  0  0  0  0  0  0
   -1.2133    3.9643    0.8829 C   0  0  0  0  0  0  0  0  0  0  0  0
   -4.0946    3.1861   -0.0627 C   0  0  0  0  0  0  0  0  0  0  0  0
   -1.9022   -0.1128    0.2753 H   0  0  0  0  0  0  0  0  0  0  0  0
   -0.1596    1.6222   -0.3500 H   0  0  0  0  0  0  0  0  0  0  0  0
   -2.2713    2.3317    1.7545 H   0  0  0  0  0  0  0  0  0  0  0  0
   -2.3944    2.7537   -1.2692 H   0  0  0  0  0  0  0  0  0  0  0  0
   -3.0817    1.3425   -0.4723 H   0  0  0  0  0  0  0  0  0  0  0  0
   -0.6946    4.2348   -0.0431 H   0  0  0  0  0  0  0  0  0  0  0  0
   -2.0169    4.6935    1.0243 H   0  0  0  0  0  0  0  0  0  0  0  0
   -0.5073    4.0738    1.7125 H   0  0  0  0  0  0  0  0  0  0  0  0
   -4.5741    2.8797    0.8713 H   0  0  0  0  0  0  0  0  0  0  0  0
   -4.8122    3.0153   -0.8719 H   0  0  0  0  0  0  0  0  0  0  0  0
   -3.8898    4.2601   -0.0139 H   0  0  0  0  0  0  0  0  0  0  0  0
    1.5752    2.4483    1.1343 N   0  0  0  0  0  0  0  0  0  0  0  0
    2.7651    2.7751    1.8865 C   0  0  2  0  0  0  0  0  0  0  0  0
    3.9210    2.9084    0.9038 C   0  0  0  0  0  0  0  0  0  0  0  0
    3.9197    2.3847   -0.2083 O   0  0  0  0  0  0  0  0  0  0  0  0
    3.0640    1.7166    2.9368 C   0  0  0  0  0  0  0  0  0  0  0  0
    1.5200    2.7467    0.1650 H   0  0  0  0  0  0  0  0  0  0  0  0
    2.5800    3.7421    2.3669 H   0  0  0  0  0  0  0  0  0  0  0  0
    3.2522    0.7408    2.4743 H   0  0  0  0  0  0  0  0  0  0  0  0
    3.9494    1.9799    3.5248 H   0  0  0  0  0  0  0  0  0  0  0  0
    2.2196    1.6010    3.6249 H   0  0  0  0  0  0  0  0  0  0  0  0
    4.9723    3.6450    1.4314 N   0  0  0  0  0  0  0  0  0  0  0  0
    6.1898    3.9017    0.6981 C   0  0  0  0  0  0  0  0  0  0  0  0
    4.8792    4.0579    2.3548 H   0  0  0  0  0  0  0  0  0  0  0  0
    6.9306    3.1230    0.9324 H   0  0  0  0  0  0  0  0  0  0  0  0
    5.9766    3.8919   -0.3810 H   0  0  0  0  0  0  0  0  0  0  0  0
    6.5894    4.8858    0.9840 H   0  0  0  0  0  0  0  0  0  0  0  0
  1  3  1  0  0  0  0
  1  7  1  0  0  0  0
  1  2  2  0  0  0  0
 37 38  1  0  0  0  0
 38 46  1  0  0  0  0
 38 39  2  0  0  0  0
  8  9  1  0  0  0  0
  9 17  1  0  0  0  0
  9 10  2  0  0  0  0
 18 19  1  0  0  0  0
 19 36  1  0  0  0  0
 19 20  2  0  0  0  0
 22 24  1  0  0  0  0
 37 40  1  0  0  0  0
  8 11  1  0  0  0  0
 21 23  1  0  0  0  0
 46 47  1  0  0  0  0
 21 22  1  0  0  0  0
 36 37  1  0  0  0  0
  7  8  1  0  0  0  0
 18 21  1  0  0  0  0
 17 18  1  0  0  0  0
  3  4  1  0  0  0  0
  3  5  1  0  0  0  0
  3  6  1  0  0  0  0
 24 33  1  0  0  0  0
 24 34  1  0  0  0  0
 24 35  1  0  0  0  0
 40 43  1  0  0  0  0
 40 44  1  0  0  0  0
 40 45  1  0  0  0  0
 11 14  1  0  0  0  0
 11 15  1  0  0  0  0
 11 16  1  0  0  0  0
 23 30  1  0  0  0  0
 23 31  1  0  0  0  0
 23 32  1  0  0  0  0
 47 49  1  0  0  0  0
 47 50  1  0  0  0  0
 47 51  1  0  0  0  0
 22 28  1  0  0  0  0
 22 29  1  0  0  0  0
 37 42  1  0  0  0  0
  8 13  1  0  0  0  0
 18 26  1  0  0  0  0
 21 27  1  0  0  0  0
 46 48  1  0  0  0  0
  7 12  1  0  0  0  0
 36 41  1  0  0  0  0
 17 25  1  0  0  0  0
M  END
$$$$

  -OEChem-05262214473D

 51 50  0     1  0  0  0  0  0999 V2000
    1.3524   -3.0009    1.4091 C   0  0  0  0  0  0  0  0  0  0  0  0
    1.8758   -1.9880    0.9598 O   0  0  0  0  0  0  0  0  0  0  0  0
    2.2030   -4.1782    1.7536 C   0  0  0  0  0  0  0  0  0  0  0  0
    2.3264   -4.8705    0.9053 H   0  0  0  0  0  0  0  0  0  0  0  0
    3.2257   -3.8876    2.0432 H   0  0  0  0  0  0  0  0  0  0  0  0
    1.8327   -4.8004    2.5839 H   0  0  0  0  0  0  0  0  0  0  0  0
    0.0005   -3.1873    1.6465 N   0  0  0  0  0  0  0  0  0  0  0  0
   -0.9949   -2.1807    1.3864 C   0  0  2  0  0  0  0  0  0  0  0  0
   -0.3083   -0.8216    1.4164 C   0  0  0  0  0  0  0  0  0  0  0  0
    0.7533   -0.6191    2.0022 O   0  0  0  0  0  0  0  0  0  0  0  0
   -2.1232   -2.2423    2.4042 C   0  0  0  0  0  0  0  0  0  0  0  0
   -0.3048   -4.0823    2.0245 H   0  0  0  0  0  0  0  0  0  0  0  0
   -1.3830   -2.3724    0.3801 H   0  0  0  0  0  0  0  0  0  0  0  0
   -1.7534   -2.0527    3.4185 H   0  0  0  0  0  0  0  0  0  0  0  0
   -2.8936   -1.4947    2.1882 H   0  0  0  0  0  0  0  0  0  0  0  0
   -2.5964   -3.2301    2.4022 H   0  0  0  0  0  0  0  0  0  0  0  0
   -1.0412    0.1517    0.7482 N   0  0  0  0  0  0  0  0  0  0  0  0
   -0.6079    1.5223    0.6467 C   0  0  2  0  0  0  0  0  0  0  0  0
    0.5044    1.7471    1.6702 C   0  0  0  0  0  0  0  0  0  0  0  0
    0.5843    1.1122    2.7199 O   0  0  0  0  0  0  0  0  0  0  0  0
   -1.7676    2.5358    0.8002 C   0  0  2  0  0  0  0  0  0  0  0  0
   -2.8183    2.3965   -0.3237 C   0  0  0  0  0  0  0  0  0  0  0  0
   -1.2133    3.9643    0.8829 C   0  0  0  0  0  0  0  0  0  0  0  0
   -4.0946    3.1861   -0.0627 C   0  0  0  0  0  0  0  0  0  0  0  0
   -1.9022   -0.1128    0.2753 H   0  0  0  0  0  0  0  0  0  0  0  0
   -0.1596    1.6222   -0.3500 H   0  0  0  0  0  0  0  0  0  0  0  0
   -2.2713    2.3317    1.7545 H   0  0  0  0  0  0  0  0  0  0  0  0
   -2.3944    2.7537   -1.2692 H   0  0  0  0  0  0  0  0  0  0  0  0
   -3.0817    1.3425   -0.4723 H   0  0  0  0  0  0  0  0  0  0  0  0
   -0.6946    4.2348   -0.0431 H   0  0  0  0  0  0  0  0  0  0  0  0
   -2.0169    4.6935    1.0243 H   0  0  0  0  0  0  0  0  0  0  0  0
   -0.5073    4.0738    1.7125 H   0  0  0  0  0  0  0  0  0  0  0  0
   -4.5741    2.8797    0.8713 H   0  0  0  0  0  0  0  0  0  0  0  0
   -4.8122    3.0153   -0.8719 H   0  0  0  0  0  0  0  0  0  0  0  0
   -3.8898    4.2601   -0.0139 H   0  0  0  0  0  0  0  0  0  0  0  0
    1.4098    2.7136    1.2558 N   0  0  0  0  0  0  0  0  0  0  0  0
    2.5663    3.1009    2.0311 C   0  0  2  0  0  0  0  0  0  0  0  0
    3.6273    3.6162    1.0676 C   0  0  0  0  0  0  0  0  0  0  0  0
    3.6541    3.3155   -0.1241 O   0  0  0  0  0  0  0  0  0  0  0  0
    3.0974    1.9362    2.8522 C   0  0  0  0  0  0  0  0  0  0  0  0
    1.2518    3.1717    0.3632 H   0  0  0  0  0  0  0  0  0  0  0  0
    2.2464    3.9140    2.6918 H   0  0  0  0  0  0  0  0  0  0  0  0
    3.4229    1.1118    2.2073 H   0  0  0  0  0  0  0  0  0  0  0  0
    3.9561    2.2387    3.4606 H   0  0  0  0  0  0  0  0  0  0  0  0
    2.3238    1.5477    3.5233 H   0  0  0  0  0  0  0  0  0  0  0  0
    4.5656    4.4167    1.7039 N   0  0  0  0  0  0  0  0  0  0  0  0
    5.6799    5.0160    1.0074 C   0  0  0  0  0  0  0  0  0  0  0  0
    4.4545    4.6285    2.6911 H   0  0  0  0  0  0  0  0  0  0  0  0
    6.5538    4.3511    1.0721 H   0  0  0  0  0  0  0  0  0  0  0  0
    5.4128    5.1685   -0.0487 H   0  0  0  0  0  0  0  0  0  0  0  0
    5.9218    5.9851    1.4681 H   0  0  0  0  0  0  0  0  0  0  0  0
  1  3  1  0  0  0  0
  1  7  1  0  0  0  0
  1  2  2  0  0  0  0
 37 38  1  0  0  0  0
 38 46  1  0  0  0  0
 38 39  2  0  0  0  0
  8  9  1  0  0  0  0
  9 17  1  0  0  0  0
  9 10  2  0  0  0  0
 18 19  1  0  0  0  0
 19 36  1  0  0  0  0
 19 20  2  0  0  0  0
 22 24  1  0  0  0  0
 37 40  1  0  0  0  0
  8 11  1  0  0  0  0
 21 23  1  0  0  0  0
 46 47  1  0  0  0  0
 21 22  1  0  0  0  0
 36 37  1  0  0  0  0
  7  8  1  0  0  0  0
 18 21  1  0  0  0  0
 17 18  1  0  0  0  0
  3  4  1  0  0  0  0
  3  5  1  0  0  0  0
  3  6  1  0  0  0  0
 24 33  1  0  0  0  0
 24 34  1  0  0  0  0
 24 35  1  0  0  0  0
 40 43  1  0  0  0  0
 40 44  1  0  0  0  0
 40 45  1  0  0  0  0
 11 14  1  0  0  0  0
 11 15  1  0  0  0  0
 11 16  1  0  0  0  0
 23 30  1  0  0  0  0
 23 31  1  0  0  0  0
 23 32  1  0  0  0  0
 47 49  1  0  0  0  0
 47 50  1  0  0  0  0
 47 51  1  0  0  0  0
 22 28  1  0  0  0  0
 22 29  1  0  0  0  0
 37 42  1  0  0  0  0
  8 13  1  0  0  0  0
 18 26  1  0  0  0  0
 21 27  1  0  0  0  0
 46 48  1  0  0  0  0
  7 12  1  0  0  0  0
 36 41  1  0  0  0  0
 17 25  1  0  0  0  0
M  END
$$$$

  -OEChem-05262214473D

 51 50  0     1  0  0  0  0  0999 V2000
    1.3524   -3.0009    1.4091 C   0  0  0  0  0  0  0  0  0  0  0  0
    1.8758   -1.9880    0.9598 O   0  0  0  0  0  0  0  0  0  0  0  0
    2.2030   -4.1782    1.7536 C   0  0  0  0  0  0  0  0  0  0  0  0
    2.3264   -4.8705    0.9053 H   0  0  0  0  0  0  0  0  0  0  0  0
    3.2257   -3.8876    2.0432 H   0  0  0  0  0  0  0  0  0  0  0  0
    1.8327   -4.8004    2.5839 H   0  0  0  0  0  0  0  0  0  0  0  0
    0.0005   -3.1873    1.6465 N   0  0  0  0  0  0  0  0  0  0  0  0
   -0.9949   -2.1807    1.3864 C   0  0  2  0  0  0  0  0  0  0  0  0
   -0.3083   -0.8216    1.4164 C   0  0  0  0  0  0  0  0  0  0  0  0
    0.7533   -0.6191    2.0022 O   0  0  0  0  0  0  0  0  0  0  0  0
   -2.1232   -2.2423    2.4042 C   0  0  0  0  0  0  0  0  0  0  0  0
   -0.3048   -4.0823    2.0245 H   0  0  0  0  0  0  0  0  0  0  0  0
   -1.3830   -2.3724    0.3801 H   0  0  0  0  0  0  0  0  0  0  0  0
   -1.7534   -2.0527    3.4185 H   0  0  0  0  0  0  0  0  0  0  0  0
   -2.8936   -1.4947    2.1882 H   0  0  0  0  0  0  0  0  0  0  0  0
   -2.5964   -3.2301    2.4022 H   0  0  0  0  0  0  0  0  0  0  0  0
   -1.0412    0.1517    0.7482 N   0  0  0  0  0  0  0  0  0  0  0  0
   -0.6079    1.5223    0.6467 C   0  0  2  0  0  0  0  0  0  0  0  0
    0.5044    1.7471    1.6702 C   0  0  0  0  0  0  0  0  0  0  0  0
    0.7481    0.9533    2.5767 O   0  0  0  0  0  0  0  0  0  0  0  0
   -1.7676    2.5358    0.8002 C   0  0  2  0  0  0  0  0  0  0  0  0
   -2.8183    2.3965   -0.3237 C   0  0  0  0  0  0  0  0  0  0  0  0
   -1.2133    3.9643    0.8829 C   0  0  0  0  0  0  0  0  0  0  0  0
   -4.0946    3.1861   -0.0627 C   0  0  0  0  0  0  0  0  0  0  0  0
   -1.9022   -0.1128    0.2753 H   0  0  0  0  0  0  0  0  0  0  0  0
   -0.1596    1.6222   -0.3500 H   0  0  0  0  0  0  0  0  0  0  0  0
   -2.2713    2.3317    1.7545 H   0  0  0  0  0  0  0  0  0  0  0  0
   -2.3944    2.7537   -1.2692 H   0  0  0  0  0  0  0  0  0  0  0  0
   -3.0817    1.3425   -0.4723 H   0  0  0  0  0  0  0  0  0  0  0  0
   -0.6946    4.2348   -0.0431 H   0  0  0  0  0  0  0  0  0  0  0  0
   -2.0169    4.6935    1.0243 H   0  0  0  0  0  0  0  0  0  0  0  0
   -0.5073    4.0738    1.7125 H   0  0  0  0  0  0  0  0  0  0  0  0
   -4.5741    2.8797    0.8713 H   0  0  0  0  0  0  0  0  0  0  0  0
   -4.8122    3.0153   -0.8719 H   0  0  0  0  0  0  0  0  0  0  0  0
   -3.8898    4.2601   -0.0139 H   0  0  0  0  0  0  0  0  0  0  0  0
    1.2086    2.9183    1.4295 N   0  0  0  0  0  0  0  0  0  0  0  0
    2.3233    3.3539    2.2396 C   0  0  2  0  0  0  0  0  0  0  0  0
    3.2271    4.2181    1.3702 C   0  0  0  0  0  0  0  0  0  0  0  0
    3.2393    4.1527    0.1428 O   0  0  0  0  0  0  0  0  0  0  0  0
    3.0884    2.1702    2.8105 C   0  0  0  0  0  0  0  0  0  0  0  0
    0.9266    3.4983    0.6448 H   0  0  0  0  0  0  0  0  0  0  0  0
    1.9066    3.9611    3.0507 H   0  0  0  0  0  0  0  0  0  0  0  0
    3.5133    1.5502    2.0127 H   0  0  0  0  0  0  0  0  0  0  0  0
    3.9153    2.5019    3.4471 H   0  0  0  0  0  0  0  0  0  0  0  0
    2.4299    1.5335    3.4112 H   0  0  0  0  0  0  0  0  0  0  0  0
    4.0494    5.0403    2.1280 N   0  0  0  0  0  0  0  0  0  0  0  0
    5.0061    5.9456    1.5355 C   0  0  0  0  0  0  0  0  0  0  0  0
    3.9581    5.0426    3.1396 H   0  0  0  0  0  0  0  0  0  0  0  0
    5.9823    5.4456    1.4528 H   0  0  0  0  0  0  0  0  0  0  0  0
    4.6596    6.2412    0.5343 H   0  0  0  0  0  0  0  0  0  0  0  0
    5.1048    6.8400    2.1682 H   0  0  0  0  0  0  0  0  0  0  0  0
  1  3  1  0  0  0  0
  1  7  1  0  0  0  0
  1  2  2  0  0  0  0
 37 38  1  0  0  0  0
 38 46  1  0  0  0  0
 38 39  2  0  0  0  0
  8  9  1  0  0  0  0
  9 17  1  0  0  0  0
  9 10  2  0  0  0  0
 18 19  1  0  0  0  0
 19 36  1  0  0  0  0
 19 20  2  0  0  0  0
 22 24  1  0  0  0  0
 37 40  1  0  0  0  0
  8 11  1  0  0  0  0
 21 23  1  0  0  0  0
 46 47  1  0  0  0  0
 21 22  1  0  0  0  0
 36 37  1  0  0  0  0
  7  8  1  0  0  0  0
 18 21  1  0  0  0  0
 17 18  1  0  0  0  0
  3  4  1  0  0  0  0
  3  5  1  0  0  0  0
  3  6  1  0  0  0  0
 24 33  1  0  0  0  0
 24 34  1  0  0  0  0
 24 35  1  0  0  0  0
 40 43  1  0  0  0  0
 40 44  1  0  0  0  0
 40 45  1  0  0  0  0
 11 14  1  0  0  0  0
 11 15  1  0  0  0  0
 11 16  1  0  0  0  0
 23 30  1  0  0  0  0
 23 31  1  0  0  0  0
 23 32  1  0  0  0  0
 47 49  1  0  0  0  0
 47 50  1  0  0  0  0
 47 51  1  0  0  0  0
 22 28  1  0  0  0  0
 22 29  1  0  0  0  0
 37 42  1  0  0  0  0
  8 13  1  0  0  0  0
 18 26  1  0  0  0  0
 21 27  1  0  0  0  0
 46 48  1  0  0  0  0
  7 12  1  0  0  0  0
 36 41  1  0  0  0  0
 17 25  1  0  0  0  0
M  END
$$$$

  -OEChem-05262214473D

 51 50  0     1  0  0  0  0  0999 V2000
    1.3524   -3.0009    1.4091 C   0  0  0  0  0  0  0  0  0  0  0  0
    1.8758   -1.9880    0.9598 O   0  0  0  0  0  0  0  0  0  0  0  0
    2.2030   -4.1782    1.7536 C   0  0  0  0  0  0  0  0  0  0  0  0
    2.3264   -4.8705    0.9053 H   0  0  0  0  0  0  0  0  0  0  0  0
    3.2257   -3.8876    2.0432 H   0  0  0  0  0  0  0  0  0  0  0  0
    1.8327   -4.8004    2.5839 H   0  0  0  0  0  0  0  0  0  0  0  0
    0.0005   -3.1873    1.6465 N   0  0  0  0  0  0  0  0  0  0  0  0
   -0.9949   -2.1807    1.3864 C   0  0  2  0  0  0  0  0  0  0  0  0
   -0.3083   -0.8216    1.4164 C   0  0  0  0  0  0  0  0  0  0  0  0
    0.7533   -0.6191    2.0022 O   0  0  0  0  0  0  0  0  0  0  0  0
   -2.1232   -2.2423    2.4042 C   0  0  0  0  0  0  0  0  0  0  0  0
   -0.3048   -4.0823    2.0245 H   0  0  0  0  0  0  0  0  0  0  0  0
   -1.3830   -2.3724    0.3801 H   0  0  0  0  0  0  0  0  0  0  0  0
   -1.7534   -2.0527    3.4185 H   0  0  0  0  0  0  0  0  0  0  0  0
   -2.8936   -1.4947    2.1882 H   0  0  0  0  0  0  0  0  0  0  0  0
   -2.5964   -3.2301    2.4022 H   0  0  0  0  0  0  0  0  0  0  0  0
   -1.0412    0.1517    0.7482 N   0  0  0  0  0  0  0  0  0  0  0  0
   -0.6079    1.5223    0.6467 C   0  0  2  0  0  0  0  0  0  0  0  0
    0.7274    1.6550    1.3778 C   0  0  0  0  0  0  0  0  0  0  0  0
    1.2931    0.7037    1.9129 O   0  0  0  0  0  0  0  0  0  0  0  0
   -1.6656    2.5301    1.1579 C   0  0  2  0  0  0  0  0  0  0  0  0
   -2.9635    2.4901    0.3210 C   0  0  0  0  0  0  0  0  0  0  0  0
   -1.0683    3.9426    1.2088 C   0  0  0  0  0  0  0  0  0  0  0  0
   -4.1142    3.2671    0.9479 C   0  0  0  0  0  0  0  0  0  0  0  0
   -1.9022   -0.1128    0.2753 H   0  0  0  0  0  0  0  0  0  0  0  0
   -0.4153    1.6979   -0.4194 H   0  0  0  0  0  0  0  0  0  0  0  0
   -1.9253    2.2544    2.1888 H   0  0  0  0  0  0  0  0  0  0  0  0
   -2.7748    2.9183   -0.6701 H   0  0  0  0  0  0  0  0  0  0  0  0
   -3.2847    1.4537    0.1628 H   0  0  0  0  0  0  0  0  0  0  0  0
   -0.7854    4.2820    0.2066 H   0  0  0  0  0  0  0  0  0  0  0  0
   -1.7919    4.6649    1.5989 H   0  0  0  0  0  0  0  0  0  0  0  0
   -0.1775    3.9793    1.8443 H   0  0  0  0  0  0  0  0  0  0  0  0
   -4.3581    2.8909    1.9455 H   0  0  0  0  0  0  0  0  0  0  0  0
   -5.0129    3.1677    0.3304 H   0  0  0  0  0  0  0  0  0  0  0  0
   -3.8737    4.3319    1.0256 H   0  0  0  0  0  0  0  0  0  0  0  0
    1.2234    2.9501    1.3316 N   0  0  0  0  0  0  0  0  0  0  0  0
    2.4803    3.3396    1.9290 C   0  0  2  0  0  0  0  0  0  0  0  0
    3.0128    4.5428    1.1619 C   0  0  0  0  0  0  0  0  0  0  0  0
    2.6761    4.8061    0.0094 O   0  0  0  0  0  0  0  0  0  0  0  0
    3.4814    2.1950    1.9077 C   0  0  0  0  0  0  0  0  0  0  0  0
    0.6757    3.6598    0.8540 H   0  0  0  0  0  0  0  0  0  0  0  0
    2.2625    3.6317    2.9621 H   0  0  0  0  0  0  0  0  0  0  0  0
    3.7121    1.8886    0.8809 H   0  0  0  0  0  0  0  0  0  0  0  0
    4.4233    2.4827    2.3863 H   0  0  0  0  0  0  0  0  0  0  0  0
    3.0845    1.3203    2.4343 H   0  0  0  0  0  0  0  0  0  0  0  0
    3.9410    5.2634    1.9004 N   0  0  0  0  0  0  0  0  0  0  0  0
    4.6001    6.4417    1.3874 C   0  0  0  0  0  0  0  0  0  0  0  0
    4.1458    4.9836    2.8551 H   0  0  0  0  0  0  0  0  0  0  0  0
    5.5519    6.1544    0.9167 H   0  0  0  0  0  0  0  0  0  0  0  0
    3.9542    6.9274    0.6412 H   0  0  0  0  0  0  0  0  0  0  0  0
    4.7961    7.1411    2.2135 H   0  0  0  0  0  0  0  0  0  0  0  0
  1  3  1  0  0  0  0
  1  7  1  0  0  0  0
  1  2  2  0  0  0  0
 37 38  1  0  0  0  0
 38 46  1  0  0  0  0
 38 39  2  0  0  0  0
  8  9  1  0  0  0  0
  9 17  1  0  0  0  0
  9 10  2  0  0  0  0
 18 19  1  0  0  0  0
 19 36  1  0  0  0  0
 19 20  2  0  0  0  0
 22 24  1  0  0  0  0
 37 40  1  0  0  0  0
  8 11  1  0  0  0  0
 21 23  1  0  0  0  0
 46 47  1  0  0  0  0
 21 22  1  0  0  0  0
 36 37  1  0  0  0  0
  7  8  1  0  0  0  0
 18 21  1  0  0  0  0
 17 18  1  0  0  0  0
  3  4  1  0  0  0  0
  3  5  1  0  0  0  0
  3  6  1  0  0  0  0
 24 33  1  0  0  0  0
 24 34  1  0  0  0  0
 24 35  1  0  0  0  0
 40 43  1  0  0  0  0
 40 44  1  0  0  0  0
 40 45  1  0  0  0  0
 11 14  1  0  0  0  0
 11 15  1  0  0  0  0
 11 16  1  0  0  0  0
 23 30  1  0  0  0  0
 23 31  1  0  0  0  0
 23 32  1  0  0  0  0
 47 49  1  0  0  0  0
 47 50  1  0  0  0  0
 47 51  1  0  0  0  0
 22 28  1  0  0  0  0
 22 29  1  0  0  0  0
 37 42  1  0  0  0  0
  8 13  1  0  0  0  0
 18 26  1  0  0  0  0
 21 27  1  0  0  0  0
 46 48  1  0  0  0  0
  7 12  1  0  0  0  0
 36 41  1  0  0  0  0
 17 25  1  0  0  0  0
M  END
$$$$

  -OEChem-05262214473D

 51 50  0     1  0  0  0  0  0999 V2000
    1.3524   -3.0009    1.4091 C   0  0  0  0  0  0  0  0  0  0  0  0
    1.8758   -1.9880    0.9598 O   0  0  0  0  0  0  0  0  0  0  0  0
    2.2030   -4.1782    1.7536 C   0  0  0  0  0  0  0  0  0  0  0  0
    2.3264   -4.8705    0.9053 H   0  0  0  0  0  0  0  0  0  0  0  0
    3.2257   -3.8876    2.0432 H   0  0  0  0  0  0  0  0  0  0  0  0
    1.8327   -4.8004    2.5839 H   0  0  0  0  0  0  0  0  0  0  0  0
    0.0005   -3.1873    1.6465 N   0  0  0  0  0  0  0  0  0  0  0  0
   -0.9949   -2.1807    1.3864 C   0  0  2  0  0  0  0  0  0  0  0  0
   -0.3083   -0.8216    1.4164 C   0  0  0  0  0  0  0  0  0  0  0  0
    0.7533   -0.6191    2.0022 O   0  0  0  0  0  0  0  0  0  0  0  0
   -2.1232   -2.2423    2.4042 C   0  0  0  0  0  0  0  0  0  0  0  0
   -0.3048   -4.0823    2.0245 H   0  0  0  0  0  0  0  0  0  0  0  0
   -1.3830   -2.3724    0.3801 H   0  0  0  0  0  0  0  0  0  0  0  0
   -1.7534   -2.0527    3.4185 H   0  0  0  0  0  0  0  0  0  0  0  0
   -2.8936   -1.4947    2.1882 H   0  0  0  0  0  0  0  0  0  0  0  0
   -2.5964   -3.2301    2.4022 H   0  0  0  0  0  0  0  0  0  0  0  0
   -1.0412    0.1517    0.7482 N   0  0  0  0  0  0  0  0  0  0  0  0
   -0.6079    1.5223    0.6467 C   0  0  2  0  0  0  0  0  0  0  0  0
    0.7274    1.6550    1.3778 C   0  0  0  0  0  0  0  0  0  0  0  0
    1.4236    0.6871    1.6777 O   0  0  0  0  0  0  0  0  0  0  0  0
   -1.6656    2.5301    1.1579 C   0  0  2  0  0  0  0  0  0  0  0  0
   -2.9635    2.4901    0.3210 C   0  0  0  0  0  0  0  0  0  0  0  0
   -1.0683    3.9426    1.2088 C   0  0  0  0  0  0  0  0  0  0  0  0
   -4.1142    3.2671    0.9479 C   0  0  0  0  0  0  0  0  0  0  0  0
   -1.9022   -0.1128    0.2753 H   0  0  0  0  0  0  0  0  0  0  0  0
   -0.4153    1.6979   -0.4194 H   0  0  0  0  0  0  0  0  0  0  0  0
   -1.9253    2.2544    2.1888 H   0  0  0  0  0  0  0  0  0  0  0  0
   -2.7748    2.9183   -0.6701 H   0  0  0  0  0  0  0  0  0  0  0  0
   -3.2847    1.4537    0.1628 H   0  0  0  0  0  0  0  0  0  0  0  0
   -0.7854    4.2820    0.2066 H   0  0  0  0  0  0  0  0  0  0  0  0
   -1.7919    4.6649    1.5989 H   0  0  0  0  0  0  0  0  0  0  0  0
   -0.1775    3.9793    1.8443 H   0  0  0  0  0  0  0  0  0  0  0  0
   -4.3581    2.8909    1.9455 H   0  0  0  0  0  0  0  0  0  0  0  0
   -5.0129    3.1677    0.3304 H   0  0  0  0  0  0  0  0  0  0  0  0
   -3.8737    4.3319    1.0256 H   0  0  0  0  0  0  0  0  0  0  0  0
    1.0607    2.9794    1.6234 N   0  0  0  0  0  0  0  0  0  0  0  0
    2.2822    3.3804    2.2835 C   0  0  2  0  0  0  0  0  0  0  0  0
    2.6364    4.7825    1.8060 C   0  0  0  0  0  0  0  0  0  0  0  0
    2.2281    5.2535    0.7465 O   0  0  0  0  0  0  0  0  0  0  0  0
    3.4132    2.4058    1.9940 C   0  0  0  0  0  0  0  0  0  0  0  0
    0.4138    3.7032    1.3244 H   0  0  0  0  0  0  0  0  0  0  0  0
    2.0686    3.4028    3.3577 H   0  0  0  0  0  0  0  0  0  0  0  0
    3.6414    2.3697    0.9225 H   0  0  0  0  0  0  0  0  0  0  0  0
    4.3302    2.6952    2.5177 H   0  0  0  0  0  0  0  0  0  0  0  0
    3.1449    1.3922    2.3110 H   0  0  0  0  0  0  0  0  0  0  0  0
    3.4968    5.4302    2.6814 N   0  0  0  0  0  0  0  0  0  0  0  0
    3.9889    6.7672    2.4446 C   0  0  0  0  0  0  0  0  0  0  0  0
    3.7689    4.9712    3.5457 H   0  0  0  0  0  0  0  0  0  0  0  0
    4.9506    6.7158    1.9131 H   0  0  0  0  0  0  0  0  0  0  0  0
    3.2619    7.3226    1.8339 H   0  0  0  0  0  0  0  0  0  0  0  0
    4.1288    7.2821    3.4066 H   0  0  0  0  0  0  0  0  0  0  0  0
  1  3  1  0  0  0  0
  1  7  1  0  0  0  0
  1  2  2  0  0  0  0
 37 38  1  0  0  0  0
 38 46  1  0  0  0  0
 38 39  2  0  0  0  0
  8  9  1  0  0  0  0
  9 17  1  0  0  0  0
  9 10  2  0  0  0  0
 18 19  1  0  0  0  0
 19 36  1  0  0  0  0
 19 20  2  0  0  0  0
 22 24  1  0  0  0  0
 37 40  1  0  0  0  0
  8 11  1  0  0  0  0
 21 23  1  0  0  0  0
 46 47  1  0  0  0  0
 21 22  1  0  0  0  0
 36 37  1  0  0  0  0
  7  8  1  0  0  0  0
 18 21  1  0  0  0  0
 17 18  1  0  0  0  0
  3  4  1  0  0  0  0
  3  5  1  0  0  0  0
  3  6  1  0  0  0  0
 24 33  1  0  0  0  0
 24 34  1  0  0  0  0
 24 35  1  0  0  0  0
 40 43  1  0  0  0  0
 40 44  1  0  0  0  0
 40 45  1  0  0  0  0
 11 14  1  0  0  0  0
 11 15  1  0  0  0  0
 11 16  1  0  0  0  0
 23 30  1  0  0  0  0
 23 31  1  0  0  0  0
 23 32  1  0  0  0  0
 47 49  1  0  0  0  0
 47 50  1  0  0  0  0
 47 51  1  0  0  0  0
 22 28  1  0  0  0  0
 22 29  1  0  0  0  0
 37 42  1  0  0  0  0
  8 13  1  0  0  0  0
 18 26  1  0  0  0  0
 21 27  1  0  0  0  0
 46 48  1  0  0  0  0
  7 12  1  0  0  0  0
 36 41  1  0  0  0  0
 17 25  1  0  0  0  0
M  END
$$$$

  -OEChem-05262214473D

 51 50  0     1  0  0  0  0  0999 V2000
    1.3524   -3.0009    1.4091 C   0  0  0  0  0  0  0  0  0  0  0  0
    1.8758   -1.9880    0.9598 O   0  0  0  0  0  0  0  0  0  0  0  0
    2.2030   -4.1782    1.7536 C   0  0  0  0  0  0  0  0  0  0  0  0
    2.3264   -4.8705    0.9053 H   0  0  0  0  0  0  0  0  0  0  0  0
    3.2257   -3.8876    2.0432 H   0  0  0  0  0  0  0  0  0  0  0  0
    1.8327   -4.8004    2.5839 H   0  0  0  0  0  0  0  0  0  0  0  0
    0.0005   -3.1873    1.6465 N   0  0  0  0  0  0  0  0  0  0  0  0
   -0.9949   -2.1807    1.3864 C   0  0  2  0  0  0  0  0  0  0  0  0
   -0.3083   -0.8216    1.4164 C   0  0  0  0  0  0  0  0  0  0  0  0
    0.7533   -0.6191    2.0022 O   0  0  0  0  0  0  0  0  0  0  0  0
   -2.1232   -2.2423    2.4042 C   0  0  0  0  0  0  0  0  0  0  0  0
   -0.3048   -4.0823    2.0245 H   0  0  0  0  0  0  0  0  0  0  0  0
   -1.3830   -2.3724    0.3801 H   0  0  0  0  0  0  0  0  0  0  0  0
   -1.7534   -2.0527    3.4185 H   0  0  0  0  0  0  0  0  0  0  0  0
   -2.8936   -1.4947    2.1882 H   0  0  0  0  0  0  0  0  0  0  0  0
   -2.5964   -3.2301    2.4022 H   0  0  0  0  0  0  0  0  0  0  0  0
   -1.0412    0.1517    0.7482 N   0  0  0  0  0  0  0  0  0  0  0  0
   -0.6079    1.5223    0.6467 C   0  0  2  0  0  0  0  0  0  0  0  0
    0.7274    1.6550    1.3778 C   0  0  0  0  0  0  0  0  0  0  0  0
    1.5463    0.7404    1.4438 O   0  0  0  0  0  0  0  0  0  0  0  0
   -1.6656    2.5301    1.1579 C   0  0  2  0  0  0  0  0  0  0  0  0
   -2.9635    2.4901    0.3210 C   0  0  0  0  0  0  0  0  0  0  0  0
   -1.0683    3.9426    1.2088 C   0  0  0  0  0  0  0  0  0  0  0  0
   -4.1142    3.2671    0.9479 C   0  0  0  0  0  0  0  0  0  0  0  0
   -1.9022   -0.1128    0.2753 H   0  0  0  0  0  0  0  0  0  0  0  0
   -0.4153    1.6979   -0.4194 H   0  0  0  0  0  0  0  0  0  0  0  0
   -1.9253    2.2544    2.1888 H   0  0  0  0  0  0  0  0  0  0  0  0
   -2.7748    2.9183   -0.6701 H   0  0  0  0  0  0  0  0  0  0  0  0
   -3.2847    1.4537    0.1628 H   0  0  0  0  0  0  0  0  0  0  0  0
   -0.7854    4.2820    0.2066 H   0  0  0  0  0  0  0  0  0  0  0  0
   -1.7919    4.6649    1.5989 H   0  0  0  0  0  0  0  0  0  0  0  0
   -0.1775    3.9793    1.8443 H   0  0  0  0  0  0  0  0  0  0  0  0
   -4.3581    2.8909    1.9455 H   0  0  0  0  0  0  0  0  0  0  0  0
   -5.0129    3.1677    0.3304 H   0  0  0  0  0  0  0  0  0  0  0  0
   -3.8737    4.3319    1.0256 H   0  0  0  0  0  0  0  0  0  0  0  0
    0.9064    2.9216    1.9157 N   0  0  0  0  0  0  0  0  0  0  0  0
    2.0938    3.3150    2.6395 C   0  0  2  0  0  0  0  0  0  0  0  0
    2.2575    4.8219    2.4908 C   0  0  0  0  0  0  0  0  0  0  0  0
    1.7565    5.4634    1.5697 O   0  0  0  0  0  0  0  0  0  0  0  0
    3.3231    2.5814    2.1266 C   0  0  0  0  0  0  0  0  0  0  0  0
    0.1661    3.6063    1.7945 H   0  0  0  0  0  0  0  0  0  0  0  0
    1.9186    3.0683    3.6924 H   0  0  0  0  0  0  0  0  0  0  0  0
    3.5146    2.8162    1.0732 H   0  0  0  0  0  0  0  0  0  0  0  0
    4.2169    2.8593    2.6949 H   0  0  0  0  0  0  0  0  0  0  0  0
    3.1915    1.4970    2.2068 H   0  0  0  0  0  0  0  0  0  0  0  0
    3.0647    5.3596    3.4835 N   0  0  0  0  0  0  0  0  0  0  0  0
    3.3820    6.7669    3.5532 C   0  0  0  0  0  0  0  0  0  0  0  0
    3.4220    4.7563    4.2184 H   0  0  0  0  0  0  0  0  0  0  0  0
    4.3227    6.9582    3.0161 H   0  0  0  0  0  0  0  0  0  0  0  0
    2.5711    7.3488    3.0909 H   0  0  0  0  0  0  0  0  0  0  0  0
    3.4937    7.0658    4.6059 H   0  0  0  0  0  0  0  0  0  0  0  0
  1  3  1  0  0  0  0
  1  7  1  0  0  0  0
  1  2  2  0  0  0  0
 37 38  1  0  0  0  0
 38 46  1  0  0  0  0
 38 39  2  0  0  0  0
  8  9  1  0  0  0  0
  9 17  1  0  0  0  0
  9 10  2  0  0  0  0
 18 19  1  0  0  0  0
 19 36  1  0  0  0  0
 19 20  2  0  0  0  0
 22 24  1  0  0  0  0
 37 40  1  0  0  0  0
  8 11  1  0  0  0  0
 21 23  1  0  0  0  0
 46 47  1  0  0  0  0
 21 22  1  0  0  0  0
 36 37  1  0  0  0  0
  7  8  1  0  0  0  0
 18 21  1  0  0  0  0
 17 18  1  0  0  0  0
  3  4  1  0  0  0  0
  3  5  1  0  0  0  0
  3  6  1  0  0  0  0
 24 33  1  0  0  0  0
 24 34  1  0  0  0  0
 24 35  1  0  0  0  0
 40 43  1  0  0  0  0
 40 44  1  0  0  0  0
 40 45  1  0  0  0  0
 11 14  1  0  0  0  0
 11 15  1  0  0  0  0
 11 16  1  0  0  0  0
 23 30  1  0  0  0  0
 23 31  1  0  0  0  0
 23 32  1  0  0  0  0
 47 49  1  0  0  0  0
 47 50  1  0  0  0  0
 47 51  1  0  0  0  0
 22 28  1  0  0  0  0
 22 29  1  0  0  0  0
 37 42  1  0  0  0  0
  8 13  1  0  0  0  0
 18 26  1  0  0  0  0
 21 27  1  0  0  0  0
 46 48  1  0  0  0  0
  7 12  1  0  0  0  0
 36 41  1  0  0  0  0
 17 25  1  0  0  0  0
M  END
$$$$

  -OEChem-05262214473D

 51 50  0     1  0  0  0  0  0999 V2000
    1.3524   -3.0009    1.4091 C   0  0  0  0  0  0  0  0  0  0  0  0
    1.8758   -1.9880    0.9598 O   0  0  0  0  0  0  0  0  0  0  0  0
    2.2030   -4.1782    1.7536 C   0  0  0  0  0  0  0  0  0  0  0  0
    2.3264   -4.8705    0.9053 H   0  0  0  0  0  0  0  0  0  0  0  0
    3.2257   -3.8876    2.0432 H   0  0  0  0  0  0  0  0  0  0  0  0
    1.8327   -4.8004    2.5839 H   0  0  0  0  0  0  0  0  0  0  0  0
    0.0005   -3.1873    1.6465 N   0  0  0  0  0  0  0  0  0  0  0  0
   -0.9949   -2.1807    1.3864 C   0  0  2  0  0  0  0  0  0  0  0  0
   -0.3083   -0.8216    1.4164 C   0  0  0  0  0  0  0  0  0  0  0  0
    0.7533   -0.6191    2.0022 O   0  0  0  0  0  0  0  0  0  0  0  0
   -2.1232   -2.2423    2.4042 C   0  0  0  0  0  0  0  0  0  0  0  0
   -0.3048   -4.0823    2.0245 H   0  0  0  0  0  0  0  0  0  0  0  0
   -1.3830   -2.3724    0.3801 H   0  0  0  0  0  0  0  0  0  0  0  0
   -1.7534   -2.0527    3.4185 H   0  0  0  0  0  0  0  0  0  0  0  0
   -2.8936   -1.4947    2.1882 H   0  0  0  0  0  0  0  0  0  0  0  0
   -2.5964   -3.2301    2.4022 H   0  0  0  0  0  0  0  0  0  0  0  0
   -1.0412    0.1517    0.7482 N   0  0  0  0  0  0  0  0  0  0  0  0
   -0.6079    1.5223    0.6467 C   0  0  2  0  0  0  0  0  0  0  0  0
    0.7274    1.6550    1.3778 C   0  0  0  0  0  0  0  0  0  0  0  0
    1.6530    0.8600    1.2272 O   0  0  0  0  0  0  0  0  0  0  0  0
   -1.6656    2.5301    1.1579 C   0  0  2  0  0  0  0  0  0  0  0  0
   -2.9635    2.4901    0.3210 C   0  0  0  0  0  0  0  0  0  0  0  0
   -1.0683    3.9426    1.2088 C   0  0  0  0  0  0  0  0  0  0  0  0
   -4.1142    3.2671    0.9479 C   0  0  0  0  0  0  0  0  0  0  0  0
   -1.9022   -0.1128    0.2753 H   0  0  0  0  0  0  0  0  0  0  0  0
   -0.4153    1.6979   -0.4194 H   0  0  0  0  0  0  0  0  0  0  0  0
   -1.9253    2.2544    2.1888 H   0  0  0  0  0  0  0  0  0  0  0  0
   -2.7748    2.9183   -0.6701 H   0  0  0  0  0  0  0  0  0  0  0  0
   -3.2847    1.4537    0.1628 H   0  0  0  0  0  0  0  0  0  0  0  0
   -0.7854    4.2820    0.2066 H   0  0  0  0  0  0  0  0  0  0  0  0
   -1.7919    4.6649    1.5989 H   0  0  0  0  0  0  0  0  0  0  0  0
   -0.1775    3.9793    1.8443 H   0  0  0  0  0  0  0  0  0  0  0  0
   -4.3581    2.8909    1.9455 H   0  0  0  0  0  0  0  0  0  0  0  0
   -5.0129    3.1677    0.3304 H   0  0  0  0  0  0  0  0  0  0  0  0
   -3.8737    4.3319    1.0256 H   0  0  0  0  0  0  0  0  0  0  0  0
    0.7712    2.7805    2.1883 N   0  0  0  0  0  0  0  0  0  0  0  0
    1.9278    3.1481    2.9729 C   0  0  2  0  0  0  0  0  0  0  0  0
    1.9021    4.6581    3.1697 C   0  0  0  0  0  0  0  0  0  0  0  0
    1.2935    5.4216    2.4228 O   0  0  0  0  0  0  0  0  0  0  0  0
    3.2174    2.7099    2.2964 C   0  0  0  0  0  0  0  0  0  0  0  0
   -0.0507    3.3757    2.2322 H   0  0  0  0  0  0  0  0  0  0  0  0
    1.8226    2.6509    3.9434 H   0  0  0  0  0  0  0  0  0  0  0  0
    3.3402    3.1978    1.3225 H   0  0  0  0  0  0  0  0  0  0  0  0
    4.0911    2.9637    2.9056 H   0  0  0  0  0  0  0  0  0  0  0  0
    3.2213    1.6275    2.1287 H   0  0  0  0  0  0  0  0  0  0  0  0
    2.6740    5.0565    4.2521 N   0  0  0  0  0  0  0  0  0  0  0  0
    2.8207    6.4407    4.6375 C   0  0  0  0  0  0  0  0  0  0  0  0
    3.1286    4.3536    4.8274 H   0  0  0  0  0  0  0  0  0  0  0  0
    3.7109    6.8652    4.1503 H   0  0  0  0  0  0  0  0  0  0  0  0
    1.9288    7.0043    4.3265 H   0  0  0  0  0  0  0  0  0  0  0  0
    2.9339    6.5070    5.7297 H   0  0  0  0  0  0  0  0  0  0  0  0
  1  3  1  0  0  0  0
  1  7  1  0  0  0  0
  1  2  2  0  0  0  0
 37 38  1  0  0  0  0
 38 46  1  0  0  0  0
 38 39  2  0  0  0  0
  8  9  1  0  0  0  0
  9 17  1  0  0  0  0
  9 10  2  0  0  0  0
 18 19  1  0  0  0  0
 19 36  1  0  0  0  0
 19 20  2  0  0  0  0
 22 24  1  0  0  0  0
 37 40  1  0  0  0  0
  8 11  1  0  0  0  0
 21 23  1  0  0  0  0
 46 47  1  0  0  0  0
 21 22  1  0  0  0  0
 36 37  1  0  0  0  0
  7  8  1  0  0  0  0
 18 21  1  0  0  0  0
 17 18  1  0  0  0  0
  3  4  1  0  0  0  0
  3  5  1  0  0  0  0
  3  6  1  0  0  0  0
 24 33  1  0  0  0  0
 24 34  1  0  0  0  0
 24 35  1  0  0  0  0
 40 43  1  0  0  0  0
 40 44  1  0  0  0  0
 40 45  1  0  0  0  0
 11 14  1  0  0  0  0
 11 15  1  0  0  0  0
 11 16  1  0  0  0  0
 23 30  1  0  0  0  0
 23 31  1  0  0  0  0
 23 32  1  0  0  0  0
 47 49  1  0  0  0  0
 47 50  1  0  0  0  0
 47 51  1  0  0  0  0
 22 28  1  0  0  0  0
 22 29  1  0  0  0  0
 37 42  1  0  0  0  0
  8 13  1  0  0  0  0
 18 26  1  0  0  0  0
 21 27  1  0  0  0  0
 46 48  1  0  0  0  0
  7 12  1  0  0  0  0
 36 41  1  0  0  0  0
 17 25  1  0  0  0  0
M  END
$$$$

  -OEChem-05262214473D

 51 50  0     1  0  0  0  0  0999 V2000
    1.3524   -3.0009    1.4091 C   0  0  0  0  0  0  0  0  0  0  0  0
    1.8758   -1.9880    0.9598 O   0  0  0  0  0  0  0  0  0  0  0  0
    2.2030   -4.1782    1.7536 C   0  0  0  0  0  0  0  0  0  0  0  0
    2.3264   -4.8705    0.9053 H   0  0  0  0  0  0  0  0  0  0  0  0
    3.2257   -3.8876    2.0432 H   0  0  0  0  0  0  0  0  0  0  0  0
    1.8327   -4.8004    2.5839 H   0  0  0  0  0  0  0  0  0  0  0  0
    0.0005   -3.1873    1.6465 N   0  0  0  0  0  0  0  0  0  0  0  0
   -0.9949   -2.1807    1.3864 C   0  0  2  0  0  0  0  0  0  0  0  0
   -0.3083   -0.8216    1.4164 C   0  0  0  0  0  0  0  0  0  0  0  0
    0.7533   -0.6191    2.0022 O   0  0  0  0  0  0  0  0  0  0  0  0
   -2.1232   -2.2423    2.4042 C   0  0  0  0  0  0  0  0  0  0  0  0
   -0.3048   -4.0823    2.0245 H   0  0  0  0  0  0  0  0  0  0  0  0
   -1.3830   -2.3724    0.3801 H   0  0  0  0  0  0  0  0  0  0  0  0
   -1.7534   -2.0527    3.4185 H   0  0  0  0  0  0  0  0  0  0  0  0
   -2.8936   -1.4947    2.1882 H   0  0  0  0  0  0  0  0  0  0  0  0
   -2.5964   -3.2301    2.4022 H   0  0  0  0  0  0  0  0  0  0  0  0
   -1.0412    0.1517    0.7482 N   0  0  0  0  0  0  0  0  0  0  0  0
   -0.6079    1.5223    0.6467 C   0  0  2  0  0  0  0  0  0  0  0  0
    0.7274    1.6550    1.3778 C   0  0  0  0  0  0  0  0  0  0  0  0
    1.7364    1.0378    1.0427 O   0  0  0  0  0  0  0  0  0  0  0  0
   -1.6656    2.5301    1.1579 C   0  0  2  0  0  0  0  0  0  0  0  0
   -2.9635    2.4901    0.3210 C   0  0  0  0  0  0  0  0  0  0  0  0
   -1.0683    3.9426    1.2088 C   0  0  0  0  0  0  0  0  0  0  0  0
   -4.1142    3.2671    0.9479 C   0  0  0  0  0  0  0  0  0  0  0  0
   -1.9022   -0.1128    0.2753 H   0  0  0  0  0  0  0  0  0  0  0  0
   -0.4153    1.6979   -0.4194 H   0  0  0  0  0  0  0  0  0  0  0  0
   -1.9253    2.2544    2.1888 H   0  0  0  0  0  0  0  0  0  0  0  0
   -2.7748    2.9183   -0.6701 H   0  0  0  0  0  0  0  0  0  0  0  0
   -3.2847    1.4537    0.1628 H   0  0  0  0  0  0  0  0  0  0  0  0
   -0.7854    4.2820    0.2066 H   0  0  0  0  0  0  0  0  0  0  0  0
   -1.7919    4.6649    1.5989 H   0  0  0  0  0  0  0  0  0  0  0  0
   -0.1775    3.9793    1.8443 H   0  0  0  0  0  0  0  0  0  0  0  0
   -4.3581    2.8909    1.9455 H   0  0  0  0  0  0  0  0  0  0  0  0
   -5.0129    3.1677    0.3304 H   0  0  0  0  0  0  0  0  0  0  0  0
   -3.8737    4.3319    1.0256 H   0  0  0  0  0  0  0  0  0  0  0  0
    0.6641    2.5658    2.4228 N   0  0  0  0  0  0  0  0  0  0  0  0
    1.7957    2.8908    3.2609 C   0  0  2  0  0  0  0  0  0  0  0  0
    1.5943    4.3023    3.7964 C   0  0  0  0  0  0  0  0  0  0  0  0
    0.8707    5.1309    3.2479 O   0  0  0  0  0  0  0  0  0  0  0  0
    3.1032    2.7826    2.4918 C   0  0  0  0  0  0  0  0  0  0  0  0
   -0.2217    3.0271    2.6078 H   0  0  0  0  0  0  0  0  0  0  0  0
    1.7872    2.1791    4.0936 H   0  0  0  0  0  0  0  0  0  0  0  0
    3.1301    3.4883    1.6536 H   0  0  0  0  0  0  0  0  0  0  0  0
    3.9615    3.0013    3.1356 H   0  0  0  0  0  0  0  0  0  0  0  0
    3.2321    1.7749    2.0822 H   0  0  0  0  0  0  0  0  0  0  0  0
    2.3514    4.5416    4.9347 N   0  0  0  0  0  0  0  0  0  0  0  0
    2.3433    5.8109    5.6238 C   0  0  0  0  0  0  0  0  0  0  0  0
    2.9087    3.7906    5.3312 H   0  0  0  0  0  0  0  0  0  0  0  0
    3.1570    6.4430    5.2387 H   0  0  0  0  0  0  0  0  0  0  0  0
    1.3788    6.3126    5.4565 H   0  0  0  0  0  0  0  0  0  0  0  0
    2.4876    5.6438    6.7014 H   0  0  0  0  0  0  0  0  0  0  0  0
  1  3  1  0  0  0  0
  1  7  1  0  0  0  0
  1  2  2  0  0  0  0
 37 38  1  0  0  0  0
 38 46  1  0  0  0  0
 38 39  2  0  0  0  0
  8  9  1  0  0  0  0
  9 17  1  0  0  0  0
  9 10  2  0  0  0  0
 18 19  1  0  0  0  0
 19 36  1  0  0  0  0
 19 20  2  0  0  0  0
 22 24  1  0  0  0  0
 37 40  1  0  0  0  0
  8 11  1  0  0  0  0
 21 23  1  0  0  0  0
 46 47  1  0  0  0  0
 21 22  1  0  0  0  0
 36 37  1  0  0  0  0
  7  8  1  0  0  0  0
 18 21  1  0  0  0  0
 17 18  1  0  0  0  0
  3  4  1  0  0  0  0
  3  5  1  0  0  0  0
  3  6  1  0  0  0  0
 24 33  1  0  0  0  0
 24 34  1  0  0  0  0
 24 35  1  0  0  0  0
 40 43  1  0  0  0  0
 40 44  1  0  0  0  0
 40 45  1  0  0  0  0
 11 14  1  0  0  0  0
 11 15  1  0  0  0  0
 11 16  1  0  0  0  0
 23 30  1  0  0  0  0
 23 31  1  0  0  0  0
 23 32  1  0  0  0  0
 47 49  1  0  0  0  0
 47 50  1  0  0  0  0
 47 51  1  0  0  0  0
 22 28  1  0  0  0  0
 22 29  1  0  0  0  0
 37 42  1  0  0  0  0
  8 13  1  0  0  0  0
 18 26  1  0  0  0  0
 21 27  1  0  0  0  0
 46 48  1  0  0  0  0
  7 12  1  0  0  0  0
 36 41  1  0  0  0  0
 17 25  1  0  0  0  0
M  END
$$$$

  -OEChem-05262214473D

 51 50  0     1  0  0  0  0  0999 V2000
    1.3524   -3.0009    1.4091 C   0  0  0  0  0  0  0  0  0  0  0  0
    1.8758   -1.9880    0.9598 O   0  0  0  0  0  0  0  0  0  0  0  0
    2.2030   -4.1782    1.7536 C   0  0  0  0  0  0  0  0  0  0  0  0
    2.3264   -4.8705    0.9053 H   0  0  0  0  0  0  0  0  0  0  0  0
    3.2257   -3.8876    2.0432 H   0  0  0  0  0  0  0  0  0  0  0  0
    1.8327   -4.8004    2.5839 H   0  0  0  0  0  0  0  0  0  0  0  0
    0.0005   -3.1873    1.6465 N   0  0  0  0  0  0  0  0  0  0  0  0
   -0.9949   -2.1807    1.3864 C   0  0  2  0  0  0  0  0  0  0  0  0
   -0.3083   -0.8216    1.4164 C   0  0  0  0  0  0  0  0  0  0  0  0
    0.7533   -0.6191    2.0022 O   0  0  0  0  0  0  0  0  0  0  0  0
   -2.1232   -2.2423    2.4042 C   0  0  0  0  0  0  0  0  0  0  0  0
   -0.3048   -4.0823    2.0245 H   0  0  0  0  0  0  0  0  0  0  0  0
   -1.3830   -2.3724    0.3801 H   0  0  0  0  0  0  0  0  0  0  0  0
   -1.7534   -2.0527    3.4185 H   0  0  0  0  0  0  0  0  0  0  0  0
   -2.8936   -1.4947    2.1882 H   0  0  0  0  0  0  0  0  0  0  0  0
   -2.5964   -3.2301    2.4022 H   0  0  0  0  0  0  0  0  0  0  0  0
   -1.0412    0.1517    0.7482 N   0  0  0  0  0  0  0  0  0  0  0  0
   -0.6079    1.5223    0.6467 C   0  0  2  0  0  0  0  0  0  0  0  0
    0.7274    1.6550    1.3778 C   0  0  0  0  0  0  0  0  0  0  0  0
    1.7908    1.2615    0.9027 O   0  0  0  0  0  0  0  0  0  0  0  0
   -1.6656    2.5301    1.1579 C   0  0  2  0  0  0  0  0  0  0  0  0
   -2.9635    2.4901    0.3210 C   0  0  0  0  0  0  0  0  0  0  0  0
   -1.0683    3.9426    1.2088 C   0  0  0  0  0  0  0  0  0  0  0  0
   -4.1142    3.2671    0.9479 C   0  0  0  0  0  0  0  0  0  0  0  0
   -1.9022   -0.1128    0.2753 H   0  0  0  0  0  0  0  0  0  0  0  0
   -0.4153    1.6979   -0.4194 H   0  0  0  0  0  0  0  0  0  0  0  0
   -1.9253    2.2544    2.1888 H   0  0  0  0  0  0  0  0  0  0  0  0
   -2.7748    2.9183   -0.6701 H   0  0  0  0  0  0  0  0  0  0  0  0
   -3.2847    1.4537    0.1628 H   0  0  0  0  0  0  0  0  0  0  0  0
   -0.7854    4.2820    0.2066 H   0  0  0  0  0  0  0  0  0  0  0  0
   -1.7919    4.6649    1.5989 H   0  0  0  0  0  0  0  0  0  0  0  0
   -0.1775    3.9793    1.8443 H   0  0  0  0  0  0  0  0  0  0  0  0
   -4.3581    2.8909    1.9455 H   0  0  0  0  0  0  0  0  0  0  0  0
   -5.0129    3.1677    0.3304 H   0  0  0  0  0  0  0  0  0  0  0  0
   -3.8737    4.3319    1.0256 H   0  0  0  0  0  0  0  0  0  0  0  0
    0.5926    2.2922    2.6031 N   0  0  0  0  0  0  0  0  0  0  0  0
    1.7064    2.5608    3.4839 C   0  0  2  0  0  0  0  0  0  0  0  0
    1.3552    3.7788    4.3282 C   0  0  0  0  0  0  0  0  0  0  0  0
    0.5168    4.6112    3.9886 O   0  0  0  0  0  0  0  0  0  0  0  0
    2.9882    2.7944    2.6996 C   0  0  0  0  0  0  0  0  0  0  0  0
   -0.3352    2.5843    2.8955 H   0  0  0  0  0  0  0  0  0  0  0  0
    1.8149    1.6849    4.1328 H   0  0  0  0  0  0  0  0  0  0  0  0
    2.8986    3.6681    2.0438 H   0  0  0  0  0  0  0  0  0  0  0  0
    3.8367    2.9695    3.3692 H   0  0  0  0  0  0  0  0  0  0  0  0
    3.2233    1.9292    2.0704 H   0  0  0  0  0  0  0  0  0  0  0  0
    2.1190    3.8499    5.4848 N   0  0  0  0  0  0  0  0  0  0  0  0
    1.9823    4.9203    6.4447 C   0  0  0  0  0  0  0  0  0  0  0  0
    2.7773    3.1056    5.6954 H   0  0  0  0  0  0  0  0  0  0  0  0
    2.6986    5.7205    6.2069 H   0  0  0  0  0  0  0  0  0  0  0  0
    0.9586    5.3208    6.4039 H   0  0  0  0  0  0  0  0  0  0  0  0
    2.1853    4.5350    7.4548 H   0  0  0  0  0  0  0  0  0  0  0  0
  1  3  1  0  0  0  0
  1  7  1  0  0  0  0
  1  2  2  0  0  0  0
 37 38  1  0  0  0  0
 38 46  1  0  0  0  0
 38 39  2  0  0  0  0
  8  9  1  0  0  0  0
  9 17  1  0  0  0  0
  9 10  2  0  0  0  0
 18 19  1  0  0  0  0
 19 36  1  0  0  0  0
 19 20  2  0  0  0  0
 22 24  1  0  0  0  0
 37 40  1  0  0  0  0
  8 11  1  0  0  0  0
 21 23  1  0  0  0  0
 46 47  1  0  0  0  0
 21 22  1  0  0  0  0
 36 37  1  0  0  0  0
  7  8  1  0  0  0  0
 18 21  1  0  0  0  0
 17 18  1  0  0  0  0
  3  4  1  0  0  0  0
  3  5  1  0  0  0  0
  3  6  1  0  0  0  0
 24 33  1  0  0  0  0
 24 34  1  0  0  0  0
 24 35  1  0  0  0  0
 40 43  1  0  0  0  0
 40 44  1  0  0  0  0
 40 45  1  0  0  0  0
 11 14  1  0  0  0  0
 11 15  1  0  0  0  0
 11 16  1  0  0  0  0
 23 30  1  0  0  0  0
 23 31  1  0  0  0  0
 23 32  1  0  0  0  0
 47 49  1  0  0  0  0
 47 50  1  0  0  0  0
 47 51  1  0  0  0  0
 22 28  1  0  0  0  0
 22 29  1  0  0  0  0
 37 42  1  0  0  0  0
  8 13  1  0  0  0  0
 18 26  1  0  0  0  0
 21 27  1  0  0  0  0
 46 48  1  0  0  0  0
  7 12  1  0  0  0  0
 36 41  1  0  0  0  0
 17 25  1  0  0  0  0
M  END
$$$$

  -OEChem-05262214473D

 51 50  0     1  0  0  0  0  0999 V2000
    1.3524   -3.0009    1.4091 C   0  0  0  0  0  0  0  0  0  0  0  0
    1.8758   -1.9880    0.9598 O   0  0  0  0  0  0  0  0  0  0  0  0
    2.2030   -4.1782    1.7536 C   0  0  0  0  0  0  0  0  0  0  0  0
    2.3264   -4.8705    0.9053 H   0  0  0  0  0  0  0  0  0  0  0  0
    3.2257   -3.8876    2.0432 H   0  0  0  0  0  0  0  0  0  0  0  0
    1.8327   -4.8004    2.5839 H   0  0  0  0  0  0  0  0  0  0  0  0
    0.0005   -3.1873    1.6465 N   0  0  0  0  0  0  0  0  0  0  0  0
   -0.9949   -2.1807    1.3864 C   0  0  2  0  0  0  0  0  0  0  0  0
   -0.3083   -0.8216    1.4164 C   0  0  0  0  0  0  0  0  0  0  0  0
    0.7533   -0.6191    2.0022 O   0  0  0  0  0  0  0  0  0  0  0  0
   -2.1232   -2.2423    2.4042 C   0  0  0  0  0  0  0  0  0  0  0  0
   -0.3048   -4.0823    2.0245 H   0  0  0  0  0  0  0  0  0  0  0  0
   -1.3830   -2.3724    0.3801 H   0  0  0  0  0  0  0  0  0  0  0  0
   -1.7534   -2.0527    3.4185 H   0  0  0  0  0  0  0  0  0  0  0  0
   -2.8936   -1.4947    2.1882 H   0  0  0  0  0  0  0  0  0  0  0  0
   -2.5964   -3.2301    2.4022 H   0  0  0  0  0  0  0  0  0  0  0  0
   -1.0412    0.1517    0.7482 N   0  0  0  0  0  0  0  0  0  0  0  0
   -0.6079    1.5223    0.6467 C   0  0  2  0  0  0  0  0  0  0  0  0
    0.7274    1.6550    1.3778 C   0  0  0  0  0  0  0  0  0  0  0  0
    1.8125    1.5161    0.8169 O   0  0  0  0  0  0  0  0  0  0  0  0
   -1.6656    2.5301    1.1579 C   0  0  2  0  0  0  0  0  0  0  0  0
   -2.9635    2.4901    0.3210 C   0  0  0  0  0  0  0  0  0  0  0  0
   -1.0683    3.9426    1.2088 C   0  0  0  0  0  0  0  0  0  0  0  0
   -4.1142    3.2671    0.9479 C   0  0  0  0  0  0  0  0  0  0  0  0
   -1.9022   -0.1128    0.2753 H   0  0  0  0  0  0  0  0  0  0  0  0
   -0.4153    1.6979   -0.4194 H   0  0  0  0  0  0  0  0  0  0  0  0
   -1.9253    2.2544    2.1888 H   0  0  0  0  0  0  0  0  0  0  0  0
   -2.7748    2.9183   -0.6701 H   0  0  0  0  0  0  0  0  0  0  0  0
   -3.2847    1.4537    0.1628 H   0  0  0  0  0  0  0  0  0  0  0  0
   -0.7854    4.2820    0.2066 H   0  0  0  0  0  0  0  0  0  0  0  0
   -1.7919    4.6649    1.5989 H   0  0  0  0  0  0  0  0  0  0  0  0
   -0.1775    3.9793    1.8443 H   0  0  0  0  0  0  0  0  0  0  0  0
   -4.3581    2.8909    1.9455 H   0  0  0  0  0  0  0  0  0  0  0  0
   -5.0129    3.1677    0.3304 H   0  0  0  0  0  0  0  0  0  0  0  0
   -3.8737    4.3319    1.0256 H   0  0  0  0  0  0  0  0  0  0  0  0
    0.5614    1.9782    2.7170 N   0  0  0  0  0  0  0  0  0  0  0  0
    1.6660    2.1806    3.6267 C   0  0  2  0  0  0  0  0  0  0  0  0
    1.2010    3.1233    4.7288 C   0  0  0  0  0  0  0  0  0  0  0  0
    0.2559    3.8978    4.5945 O   0  0  0  0  0  0  0  0  0  0  0  0
    2.8804    2.7446    2.9056 C   0  0  0  0  0  0  0  0  0  0  0  0
   -0.3836    2.0775    3.0759 H   0  0  0  0  0  0  0  0  0  0  0  0
    1.9036    1.2022    4.0583 H   0  0  0  0  0  0  0  0  0  0  0  0
    2.6614    3.7248    2.4665 H   0  0  0  0  0  0  0  0  0  0  0  0
    3.7254    2.8706    3.5905 H   0  0  0  0  0  0  0  0  0  0  0  0
    3.1953    2.0798    2.0941 H   0  0  0  0  0  0  0  0  0  0  0  0
    1.9924    3.0286    5.8649 N   0  0  0  0  0  0  0  0  0  0  0  0
    1.7623    3.8298    7.0444 C   0  0  0  0  0  0  0  0  0  0  0  0
    2.7435    2.3454    5.8952 H   0  0  0  0  0  0  0  0  0  0  0  0
    2.3672    4.7469    6.9890 H   0  0  0  0  0  0  0  0  0  0  0  0
    0.6968    4.0964    7.1042 H   0  0  0  0  0  0  0  0  0  0  0  0
    2.0475    3.2561    7.9386 H   0  0  0  0  0  0  0  0  0  0  0  0
  1  3  1  0  0  0  0
  1  7  1  0  0  0  0
  1  2  2  0  0  0  0
 37 38  1  0  0  0  0
 38 46  1  0  0  0  0
 38 39  2  0  0  0  0
  8  9  1  0  0  0  0
  9 17  1  0  0  0  0
  9 10  2  0  0  0  0
 18 19  1  0  0  0  0
 19 36  1  0  0  0  0
 19 20  2  0  0  0  0
 22 24  1  0  0  0  0
 37 40  1  0  0  0  0
  8 11  1  0  0  0  0
 21 23  1  0  0  0  0
 46 47  1  0  0  0  0
 21 22  1  0  0  0  0
 36 37  1  0  0  0  0
  7  8  1  0  0  0  0
 18 21  1  0  0  0  0
 17 18  1  0  0  0  0
  3  4  1  0  0  0  0
  3  5  1  0  0  0  0
  3  6  1  0  0  0  0
 24 33  1  0  0  0  0
 24 34  1  0  0  0  0
 24 35  1  0  0  0  0
 40 43  1  0  0  0  0
 40 44  1  0  0  0  0
 40 45  1  0  0  0  0
 11 14  1  0  0  0  0
 11 15  1  0  0  0  0
 11 16  1  0  0  0  0
 23 30  1  0  0  0  0
 23 31  1  0  0  0  0
 23 32  1  0  0  0  0
 47 49  1  0  0  0  0
 47 50  1  0  0  0  0
 47 51  1  0  0  0  0
 22 28  1  0  0  0  0
 22 29  1  0  0  0  0
 37 42  1  0  0  0  0
  8 13  1  0  0  0  0
 18 26  1  0  0  0  0
 21 27  1  0  0  0  0
 46 48  1  0  0  0  0
  7 12  1  0  0  0  0
 36 41  1  0  0  0  0
 17 25  1  0  0  0  0
M  END
$$$$

  -OEChem-05262214473D

 51 50  0     1  0  0  0  0  0999 V2000
    1.3524   -3.0009    1.4091 C   0  0  0  0  0  0  0  0  0  0  0  0
    1.8758   -1.9880    0.9598 O   0  0  0  0  0  0  0  0  0  0  0  0
    2.2030   -4.1782    1.7536 C   0  0  0  0  0  0  0  0  0  0  0  0
    2.3264   -4.8705    0.9053 H   0  0  0  0  0  0  0  0  0  0  0  0
    3.2257   -3.8876    2.0432 H   0  0  0  0  0  0  0  0  0  0  0  0
    1.8327   -4.8004    2.5839 H   0  0  0  0  0  0  0  0  0  0  0  0
    0.0005   -3.1873    1.6465 N   0  0  0  0  0  0  0  0  0  0  0  0
   -0.9949   -2.1807    1.3864 C   0  0  2  0  0  0  0  0  0  0  0  0
   -0.3083   -0.8216    1.4164 C   0  0  0  0  0  0  0  0  0  0  0  0
    0.7533   -0.6191    2.0022 O   0  0  0  0  0  0  0  0  0  0  0  0
   -2.1232   -2.2423    2.4042 C   0  0  0  0  0  0  0  0  0  0  0  0
   -0.3048   -4.0823    2.0245 H   0  0  0  0  0  0  0  0  0  0  0  0
   -1.3830   -2.3724    0.3801 H   0  0  0  0  0  0  0  0  0  0  0  0
   -1.7534   -2.0527    3.4185 H   0  0  0  0  0  0  0  0  0  0  0  0
   -2.8936   -1.4947    2.1882 H   0  0  0  0  0  0  0  0  0  0  0  0
   -2.5964   -3.2301    2.4022 H   0  0  0  0  0  0  0  0  0  0  0  0
   -1.0412    0.1517    0.7482 N   0  0  0  0  0  0  0  0  0  0  0  0
   -0.6079    1.5223    0.6467 C   0  0  2  0  0  0  0  0  0  0  0  0
    0.7274    1.6550    1.3778 C   0  0  0  0  0  0  0  0  0  0  0  0
    1.8000    1.7840    0.7911 O   0  0  0  0  0  0  0  0  0  0  0  0
   -1.6656    2.5301    1.1579 C   0  0  2  0  0  0  0  0  0  0  0  0
   -2.9635    2.4901    0.3210 C   0  0  0  0  0  0  0  0  0  0  0  0
   -1.0683    3.9426    1.2088 C   0  0  0  0  0  0  0  0  0  0  0  0
   -4.1142    3.2671    0.9479 C   0  0  0  0  0  0  0  0  0  0  0  0
   -1.9022   -0.1128    0.2753 H   0  0  0  0  0  0  0  0  0  0  0  0
   -0.4153    1.6979   -0.4194 H   0  0  0  0  0  0  0  0  0  0  0  0
   -1.9253    2.2544    2.1888 H   0  0  0  0  0  0  0  0  0  0  0  0
   -2.7748    2.9183   -0.6701 H   0  0  0  0  0  0  0  0  0  0  0  0
   -3.2847    1.4537    0.1628 H   0  0  0  0  0  0  0  0  0  0  0  0
   -0.7854    4.2820    0.2066 H   0  0  0  0  0  0  0  0  0  0  0  0
   -1.7919    4.6649    1.5989 H   0  0  0  0  0  0  0  0  0  0  0  0
   -0.1775    3.9793    1.8443 H   0  0  0  0  0  0  0  0  0  0  0  0
   -4.3581    2.8909    1.9455 H   0  0  0  0  0  0  0  0  0  0  0  0
   -5.0129    3.1677    0.3304 H   0  0  0  0  0  0  0  0  0  0  0  0
   -3.8737    4.3319    1.0256 H   0  0  0  0  0  0  0  0  0  0  0  0
    0.5727    1.6453    2.7568 N   0  0  0  0  0  0  0  0  0  0  0  0
    1.6773    1.7761    3.6795 C   0  0  2  0  0  0  0  0  0  0  0  0
    1.1422    2.3804    4.9710 C   0  0  0  0  0  0  0  0  0  0  0  0
    0.1059    3.0394    5.0243 O   0  0  0  0  0  0  0  0  0  0  0  0
    2.7870    2.6366    3.0957 C   0  0  0  0  0  0  0  0  0  0  0  0
   -0.3635    1.5411    3.1366 H   0  0  0  0  0  0  0  0  0  0  0  0
    2.0475    0.7638    3.8752 H   0  0  0  0  0  0  0  0  0  0  0  0
    2.4349    3.6546    2.8931 H   0  0  0  0  0  0  0  0  0  0  0  0
    3.6351    2.7112    3.7843 H   0  0  0  0  0  0  0  0  0  0  0  0
    3.1503    2.2164    2.1516 H   0  0  0  0  0  0  0  0  0  0  0  0
    1.9805    2.1336    6.0492 N   0  0  0  0  0  0  0  0  0  0  0  0
    1.6984    2.6135    7.3819 C   0  0  0  0  0  0  0  0  0  0  0  0
    2.8094    1.5616    5.9170 H   0  0  0  0  0  0  0  0  0  0  0  0
    2.1851    3.5885    7.5317 H   0  0  0  0  0  0  0  0  0  0  0  0
    0.6113    2.7230    7.5096 H   0  0  0  0  0  0  0  0  0  0  0  0
    2.0837    1.8943    8.1197 H   0  0  0  0  0  0  0  0  0  0  0  0
  1  3  1  0  0  0  0
  1  7  1  0  0  0  0
  1  2  2  0  0  0  0
 37 38  1  0  0  0  0
 38 46  1  0  0  0  0
 38 39  2  0  0  0  0
  8  9  1  0  0  0  0
  9 17  1  0  0  0  0
  9 10  2  0  0  0  0
 18 19  1  0  0  0  0
 19 36  1  0  0  0  0
 19 20  2  0  0  0  0
 22 24  1  0  0  0  0
 37 40  1  0  0  0  0
  8 11  1  0  0  0  0
 21 23  1  0  0  0  0
 46 47  1  0  0  0  0
 21 22  1  0  0  0  0
 36 37  1  0  0  0  0
  7  8  1  0  0  0  0
 18 21  1  0  0  0  0
 17 18  1  0  0  0  0
  3  4  1  0  0  0  0
  3  5  1  0  0  0  0
  3  6  1  0  0  0  0
 24 33  1  0  0  0  0
 24 34  1  0  0  0  0
 24 35  1  0  0  0  0
 40 43  1  0  0  0  0
 40 44  1  0  0  0  0
 40 45  1  0  0  0  0
 11 14  1  0  0  0  0
 11 15  1  0  0  0  0
 11 16  1  0  0  0  0
 23 30  1  0  0  0  0
 23 31  1  0  0  0  0
 23 32  1  0  0  0  0
 47 49  1  0  0  0  0
 47 50  1  0  0  0  0
 47 51  1  0  0  0  0
 22 28  1  0  0  0  0
 22 29  1  0  0  0  0
 37 42  1  0  0  0  0
  8 13  1  0  0  0  0
 18 26  1  0  0  0  0
 21 27  1  0  0  0  0
 46 48  1  0  0  0  0
  7 12  1  0  0  0  0
 36 41  1  0  0  0  0
 17 25  1  0  0  0  0
M  END
$$$$

  -OEChem-05262214473D

 51 50  0     1  0  0  0  0  0999 V2000
    1.3524   -3.0009    1.4091 C   0  0  0  0  0  0  0  0  0  0  0  0
    1.8758   -1.9880    0.9598 O   0  0  0  0  0  0  0  0  0  0  0  0
    2.2030   -4.1782    1.7536 C   0  0  0  0  0  0  0  0  0  0  0  0
    2.3264   -4.8705    0.9053 H   0  0  0  0  0  0  0  0  0  0  0  0
    3.2257   -3.8876    2.0432 H   0  0  0  0  0  0  0  0  0  0  0  0
    1.8327   -4.8004    2.5839 H   0  0  0  0  0  0  0  0  0  0  0  0
    0.0005   -3.1873    1.6465 N   0  0  0  0  0  0  0  0  0  0  0  0
   -0.9949   -2.1807    1.3864 C   0  0  2  0  0  0  0  0  0  0  0  0
   -0.3083   -0.8216    1.4164 C   0  0  0  0  0  0  0  0  0  0  0  0
    0.7533   -0.6191    2.0022 O   0  0  0  0  0  0  0  0  0  0  0  0
   -2.1232   -2.2423    2.4042 C   0  0  0  0  0  0  0  0  0  0  0  0
   -0.3048   -4.0823    2.0245 H   0  0  0  0  0  0  0  0  0  0  0  0
   -1.3830   -2.3724    0.3801 H   0  0  0  0  0  0  0  0  0  0  0  0
   -1.7534   -2.0527    3.4185 H   0  0  0  0  0  0  0  0  0  0  0  0
   -2.8936   -1.4947    2.1882 H   0  0  0  0  0  0  0  0  0  0  0  0
   -2.5964   -3.2301    2.4022 H   0  0  0  0  0  0  0  0  0  0  0  0
   -1.0412    0.1517    0.7482 N   0  0  0  0  0  0  0  0  0  0  0  0
   -0.6079    1.5223    0.6467 C   0  0  2  0  0  0  0  0  0  0  0  0
    0.7274    1.6550    1.3778 C   0  0  0  0  0  0  0  0  0  0  0  0
    1.7542    2.0471    0.8270 O   0  0  0  0  0  0  0  0  0  0  0  0
   -1.6656    2.5301    1.1579 C   0  0  2  0  0  0  0  0  0  0  0  0
   -2.9635    2.4901    0.3210 C   0  0  0  0  0  0  0  0  0  0  0  0
   -1.0683    3.9426    1.2088 C   0  0  0  0  0  0  0  0  0  0  0  0
   -4.1142    3.2671    0.9479 C   0  0  0  0  0  0  0  0  0  0  0  0
   -1.9022   -0.1128    0.2753 H   0  0  0  0  0  0  0  0  0  0  0  0
   -0.4153    1.6979   -0.4194 H   0  0  0  0  0  0  0  0  0  0  0  0
   -1.9253    2.2544    2.1888 H   0  0  0  0  0  0  0  0  0  0  0  0
   -2.7748    2.9183   -0.6701 H   0  0  0  0  0  0  0  0  0  0  0  0
   -3.2847    1.4537    0.1628 H   0  0  0  0  0  0  0  0  0  0  0  0
   -0.7854    4.2820    0.2066 H   0  0  0  0  0  0  0  0  0  0  0  0
   -1.7919    4.6649    1.5989 H   0  0  0  0  0  0  0  0  0  0  0  0
   -0.1775    3.9793    1.8443 H   0  0  0  0  0  0  0  0  0  0  0  0
   -4.3581    2.8909    1.9455 H   0  0  0  0  0  0  0  0  0  0  0  0
   -5.0129    3.1677    0.3304 H   0  0  0  0  0  0  0  0  0  0  0  0
   -3.8737    4.3319    1.0256 H   0  0  0  0  0  0  0  0  0  0  0  0
    0.6258    1.3162    2.7196 N   0  0  0  0  0  0  0  0  0  0  0  0
    1.7395    1.3748    3.6388 C   0  0  2  0  0  0  0  0  0  0  0  0
    1.1828    1.6007    5.0383 C   0  0  0  0  0  0  0  0  0  0  0  0
    0.0769    2.0945    5.2487 O   0  0  0  0  0  0  0  0  0  0  0  0
    2.7145    2.4776    3.2570 C   0  0  0  0  0  0  0  0  0  0  0  0
   -0.2763    1.0118    3.0734 H   0  0  0  0  0  0  0  0  0  0  0  0
    2.2366    0.3996    3.5959 H   0  0  0  0  0  0  0  0  0  0  0  0
    2.2343    3.4623    3.2943 H   0  0  0  0  0  0  0  0  0  0  0  0
    3.5720    2.5022    3.9376 H   0  0  0  0  0  0  0  0  0  0  0  0
    3.0911    2.3298    2.2391 H   0  0  0  0  0  0  0  0  0  0  0  0
    2.0839    1.2259    6.0251 N   0  0  0  0  0  0  0  0  0  0  0  0
    1.7948    1.3545    7.4343 C   0  0  0  0  0  0  0  0  0  0  0  0
    2.9706    0.8078    5.7594 H   0  0  0  0  0  0  0  0  0  0  0  0
    2.1649    2.3244    7.7981 H   0  0  0  0  0  0  0  0  0  0  0  0
    0.7079    1.2941    7.5925 H   0  0  0  0  0  0  0  0  0  0  0  0
    2.2913    0.5425    7.9859 H   0  0  0  0  0  0  0  0  0  0  0  0
  1  3  1  0  0  0  0
  1  7  1  0  0  0  0
  1  2  2  0  0  0  0
 37 38  1  0  0  0  0
 38 46  1  0  0  0  0
 38 39  2  0  0  0  0
  8  9  1  0  0  0  0
  9 17  1  0  0  0  0
  9 10  2  0  0  0  0
 18 19  1  0  0  0  0
 19 36  1  0  0  0  0
 19 20  2  0  0  0  0
 22 24  1  0  0  0  0
 37 40  1  0  0  0  0
  8 11  1  0  0  0  0
 21 23  1  0  0  0  0
 46 47  1  0  0  0  0
 21 22  1  0  0  0  0
 36 37  1  0  0  0  0
  7  8  1  0  0  0  0
 18 21  1  0  0  0  0
 17 18  1  0  0  0  0
  3  4  1  0  0  0  0
  3  5  1  0  0  0  0
  3  6  1  0  0  0  0
 24 33  1  0  0  0  0
 24 34  1  0  0  0  0
 24 35  1  0  0  0  0
 40 43  1  0  0  0  0
 40 44  1  0  0  0  0
 40 45  1  0  0  0  0
 11 14  1  0  0  0  0
 11 15  1  0  0  0  0
 11 16  1  0  0  0  0
 23 30  1  0  0  0  0
 23 31  1  0  0  0  0
 23 32  1  0  0  0  0
 47 49  1  0  0  0  0
 47 50  1  0  0  0  0
 47 51  1  0  0  0  0
 22 28  1  0  0  0  0
 22 29  1  0  0  0  0
 37 42  1  0  0  0  0
  8 13  1  0  0  0  0
 18 26  1  0  0  0  0
 21 27  1  0  0  0  0
 46 48  1  0  0  0  0
  7 12  1  0  0  0  0
 36 41  1  0  0  0  0
 17 25  1  0  0  0  0
M  END
$$$$

  -OEChem-05262214473D

 51 50  0     1  0  0  0  0  0999 V2000
    1.3524   -3.0009    1.4091 C   0  0  0  0  0  0  0  0  0  0  0  0
    1.8758   -1.9880    0.9598 O   0  0  0  0  0  0  0  0  0  0  0  0
    2.2030   -4.1782    1.7536 C   0  0  0  0  0  0  0  0  0  0  0  0
    2.3264   -4.8705    0.9053 H   0  0  0  0  0  0  0  0  0  0  0  0
    3.2257   -3.8876    2.0432 H   0  0  0  0  0  0  0  0  0  0  0  0
    1.8327   -4.8004    2.5839 H   0  0  0  0  0  0  0  0  0  0  0  0
    0.0005   -3.1873    1.6465 N   0  0  0  0  0  0  0  0  0  0  0  0
   -0.9949   -2.1807    1.3864 C   0  0  2  0  0  0  0  0  0  0  0  0
   -0.3083   -0.8216    1.4164 C   0  0  0  0  0  0  0  0  0  0  0  0
    0.7533   -0.6191    2.0022 O   0  0  0  0  0  0  0  0  0  0  0  0
   -2.1232   -2.2423    2.4042 C   0  0  0  0  0  0  0  0  0  0  0  0
   -0.3048   -4.0823    2.0245 H   0  0  0  0  0  0  0  0  0  0  0  0
   -1.3830   -2.3724    0.3801 H   0  0  0  0  0  0  0  0  0  0  0  0
   -1.7534   -2.0527    3.4185 H   0  0  0  0  0  0  0  0  0  0  0  0
   -2.8936   -1.4947    2.1882 H   0  0  0  0  0  0  0  0  0  0  0  0
   -2.5964   -3.2301    2.4022 H   0  0  0  0  0  0  0  0  0  0  0  0
   -1.0412    0.1517    0.7482 N   0  0  0  0  0  0  0  0  0  0  0  0
   -0.6079    1.5223    0.6467 C   0  0  2  0  0  0  0  0  0  0  0  0
    0.7274    1.6550    1.3778 C   0  0  0  0  0  0  0  0  0  0  0  0
    1.6782    2.2874    0.9223 O   0  0  0  0  0  0  0  0  0  0  0  0
   -1.6656    2.5301    1.1579 C   0  0  2  0  0  0  0  0  0  0  0  0
   -2.9635    2.4901    0.3210 C   0  0  0  0  0  0  0  0  0  0  0  0
   -1.0683    3.9426    1.2088 C   0  0  0  0  0  0  0  0  0  0  0  0
   -4.1142    3.2671    0.9479 C   0  0  0  0  0  0  0  0  0  0  0  0
   -1.9022   -0.1128    0.2753 H   0  0  0  0  0  0  0  0  0  0  0  0
   -0.4153    1.6979   -0.4194 H   0  0  0  0  0  0  0  0  0  0  0  0
   -1.9253    2.2544    2.1888 H   0  0  0  0  0  0  0  0  0  0  0  0
   -2.7748    2.9183   -0.6701 H   0  0  0  0  0  0  0  0  0  0  0  0
   -3.2847    1.4537    0.1628 H   0  0  0  0  0  0  0  0  0  0  0  0
   -0.7854    4.2820    0.2066 H   0  0  0  0  0  0  0  0  0  0  0  0
   -1.7919    4.6649    1.5989 H   0  0  0  0  0  0  0  0  0  0  0  0
   -0.1775    3.9793    1.8443 H   0  0  0  0  0  0  0  0  0  0  0  0
   -4.3581    2.8909    1.9455 H   0  0  0  0  0  0  0  0  0  0  0  0
   -5.0129    3.1677    0.3304 H   0  0  0  0  0  0  0  0  0  0  0  0
   -3.8737    4.3319    1.0256 H   0  0  0  0  0  0  0  0  0  0  0  0
    0.7169    1.0132    2.6081 N   0  0  0  0  0  0  0  0  0  0  0  0
    1.8483    1.0041    3.5073 C   0  0  2  0  0  0  0  0  0  0  0  0
    1.3201    0.8374    4.9260 C   0  0  0  0  0  0  0  0  0  0  0  0
    0.1710    1.1275    5.2523 O   0  0  0  0  0  0  0  0  0  0  0  0
    2.6678    2.2787    3.3785 C   0  0  0  0  0  0  0  0  0  0  0  0
   -0.1280    0.5256    2.8907 H   0  0  0  0  0  0  0  0  0  0  0  0
    2.4581    0.1343    3.2395 H   0  0  0  0  0  0  0  0  0  0  0  0
    2.0734    3.1609    3.6428 H   0  0  0  0  0  0  0  0  0  0  0  0
    3.5404    2.2578    4.0397 H   0  0  0  0  0  0  0  0  0  0  0  0
    3.0218    2.4122    2.3506 H   0  0  0  0  0  0  0  0  0  0  0  0
    2.2956    0.3675    5.7942 N   0  0  0  0  0  0  0  0  0  0  0  0
    2.0450    0.1384    7.1980 C   0  0  0  0  0  0  0  0  0  0  0  0
    3.2161    0.1353    5.4330 H   0  0  0  0  0  0  0  0  0  0  0  0
    2.3079    1.0405    7.7699 H   0  0  0  0  0  0  0  0  0  0  0  0
    0.9800   -0.0928    7.3473 H   0  0  0  0  0  0  0  0  0  0  0  0
    2.6562   -0.7073    7.5462 H   0  0  0  0  0  0  0  0  0  0  0  0
  1  3  1  0  0  0  0
  1  7  1  0  0  0  0
  1  2  2  0  0  0  0
 37 38  1  0  0  0  0
 38 46  1  0  0  0  0
 38 39  2  0  0  0  0
  8  9  1  0  0  0  0
  9 17  1  0  0  0  0
  9 10  2  0  0  0  0
 18 19  1  0  0  0  0
 19 36  1  0  0  0  0
 19 20  2  0  0  0  0
 22 24  1  0  0  0  0
 37 40  1  0  0  0  0
  8 11  1  0  0  0  0
 21 23  1  0  0  0  0
 46 47  1  0  0  0  0
 21 22  1  0  0  0  0
 36 37  1  0  0  0  0
  7  8  1  0  0  0  0
 18 21  1  0  0  0  0
 17 18  1  0  0  0  0
  3  4  1  0  0  0  0
  3  5  1  0  0  0  0
  3  6  1  0  0  0  0
 24 33  1  0  0  0  0
 24 34  1  0  0  0  0
 24 35  1  0  0  0  0
 40 43  1  0  0  0  0
 40 44  1  0  0  0  0
 40 45  1  0  0  0  0
 11 14  1  0  0  0  0
 11 15  1  0  0  0  0
 11 16  1  0  0  0  0
 23 30  1  0  0  0  0
 23 31  1  0  0  0  0
 23 32  1  0  0  0  0
 47 49  1  0  0  0  0
 47 50  1  0  0  0  0
 47 51  1  0  0  0  0
 22 28  1  0  0  0  0
 22 29  1  0  0  0  0
 37 42  1  0  0  0  0
  8 13  1  0  0  0  0
 18 26  1  0  0  0  0
 21 27  1  0  0  0  0
 46 48  1  0  0  0  0
  7 12  1  0  0  0  0
 36 41  1  0  0  0  0
 17 25  1  0  0  0  0
M  END
$$$$

  -OEChem-05262214473D

 51 50  0     1  0  0  0  0  0999 V2000
    1.3524   -3.0009    1.4091 C   0  0  0  0  0  0  0  0  0  0  0  0
    1.8758   -1.9880    0.9598 O   0  0  0  0  0  0  0  0  0  0  0  0
    2.2030   -4.1782    1.7536 C   0  0  0  0  0  0  0  0  0  0  0  0
    2.3264   -4.8705    0.9053 H   0  0  0  0  0  0  0  0  0  0  0  0
    3.2257   -3.8876    2.0432 H   0  0  0  0  0  0  0  0  0  0  0  0
    1.8327   -4.8004    2.5839 H   0  0  0  0  0  0  0  0  0  0  0  0
    0.0005   -3.1873    1.6465 N   0  0  0  0  0  0  0  0  0  0  0  0
   -0.9949   -2.1807    1.3864 C   0  0  2  0  0  0  0  0  0  0  0  0
   -0.3083   -0.8216    1.4164 C   0  0  0  0  0  0  0  0  0  0  0  0
    0.7533   -0.6191    2.0022 O   0  0  0  0  0  0  0  0  0  0  0  0
   -2.1232   -2.2423    2.4042 C   0  0  0  0  0  0  0  0  0  0  0  0
   -0.3048   -4.0823    2.0245 H   0  0  0  0  0  0  0  0  0  0  0  0
   -1.3830   -2.3724    0.3801 H   0  0  0  0  0  0  0  0  0  0  0  0
   -1.7534   -2.0527    3.4185 H   0  0  0  0  0  0  0  0  0  0  0  0
   -2.8936   -1.4947    2.1882 H   0  0  0  0  0  0  0  0  0  0  0  0
   -2.5964   -3.2301    2.4022 H   0  0  0  0  0  0  0  0  0  0  0  0
   -1.0412    0.1517    0.7482 N   0  0  0  0  0  0  0  0  0  0  0  0
   -0.6079    1.5223    0.6467 C   0  0  2  0  0  0  0  0  0  0  0  0
    0.7274    1.6550    1.3778 C   0  0  0  0  0  0  0  0  0  0  0  0
    1.5771    2.4886    1.0704 O   0  0  0  0  0  0  0  0  0  0  0  0
   -1.6656    2.5301    1.1579 C   0  0  2  0  0  0  0  0  0  0  0  0
   -2.9635    2.4901    0.3210 C   0  0  0  0  0  0  0  0  0  0  0  0
   -1.0683    3.9426    1.2088 C   0  0  0  0  0  0  0  0  0  0  0  0
   -4.1142    3.2671    0.9479 C   0  0  0  0  0  0  0  0  0  0  0  0
   -1.9022   -0.1128    0.2753 H   0  0  0  0  0  0  0  0  0  0  0  0
   -0.4153    1.6979   -0.4194 H   0  0  0  0  0  0  0  0  0  0  0  0
   -1.9253    2.2544    2.1888 H   0  0  0  0  0  0  0  0  0  0  0  0
   -2.7748    2.9183   -0.6701 H   0  0  0  0  0  0  0  0  0  0  0  0
   -3.2847    1.4537    0.1628 H   0  0  0  0  0  0  0  0  0  0  0  0
   -0.7854    4.2820    0.2066 H   0  0  0  0  0  0  0  0  0  0  0  0
   -1.7919    4.6649    1.5989 H   0  0  0  0  0  0  0  0  0  0  0  0
   -0.1775    3.9793    1.8443 H   0  0  0  0  0  0  0  0  0  0  0  0
   -4.3581    2.8909    1.9455 H   0  0  0  0  0  0  0  0  0  0  0  0
   -5.0129    3.1677    0.3304 H   0  0  0  0  0  0  0  0  0  0  0  0
   -3.8737    4.3319    1.0256 H   0  0  0  0  0  0  0  0  0  0  0  0
    0.8400    0.7571    2.4298 N   0  0  0  0  0  0  0  0  0  0  0  0
    1.9964    0.6892    3.2939 C   0  0  2  0  0  0  0  0  0  0  0  0
    1.5448    0.1426    4.6418 C   0  0  0  0  0  0  0  0  0  0  0  0
    0.3817    0.2042    5.0350 O   0  0  0  0  0  0  0  0  0  0  0  0
    2.6500    2.0532    3.4519 C   0  0  0  0  0  0  0  0  0  0  0  0
    0.0714    0.1156    2.6010 H   0  0  0  0  0  0  0  0  0  0  0  0
    2.6969   -0.0139    2.8302 H   0  0  0  0  0  0  0  0  0  0  0  0
    1.9632    2.7711    3.9149 H   0  0  0  0  0  0  0  0  0  0  0  0
    3.5424    1.9948    4.0838 H   0  0  0  0  0  0  0  0  0  0  0  0
    2.9473    2.4580    2.4785 H   0  0  0  0  0  0  0  0  0  0  0  0
    2.6012   -0.3833    5.3722 N   0  0  0  0  0  0  0  0  0  0  0  0
    2.4320   -0.9518    6.6891 C   0  0  0  0  0  0  0  0  0  0  0  0
    3.5292   -0.4101    4.9601 H   0  0  0  0  0  0  0  0  0  0  0  0
    2.6043   -0.1755    7.4491 H   0  0  0  0  0  0  0  0  0  0  0  0
    1.4091   -1.3434    6.7906 H   0  0  0  0  0  0  0  0  0  0  0  0
    3.1535   -1.7700    6.8306 H   0  0  0  0  0  0  0  0  0  0  0  0
  1  3  1  0  0  0  0
  1  7  1  0  0  0  0
  1  2  2  0  0  0  0
 37 38  1  0  0  0  0
 38 46  1  0  0  0  0
 38 39  2  0  0  0  0
  8  9  1  0  0  0  0
  9 17  1  0  0  0  0
  9 10  2  0  0  0  0
 18 19  1  0  0  0  0
 19 36  1  0  0  0  0
 19 20  2  0  0  0  0
 22 24  1  0  0  0  0
 37 40  1  0  0  0  0
  8 11  1  0  0  0  0
 21 23  1  0  0  0  0
 46 47  1  0  0  0  0
 21 22  1  0  0  0  0
 36 37  1  0  0  0  0
  7  8  1  0  0  0  0
 18 21  1  0  0  0  0
 17 18  1  0  0  0  0
  3  4  1  0  0  0  0
  3  5  1  0  0  0  0
  3  6  1  0  0  0  0
 24 33  1  0  0  0  0
 24 34  1  0  0  0  0
 24 35  1  0  0  0  0
 40 43  1  0  0  0  0
 40 44  1  0  0  0  0
 40 45  1  0  0  0  0
 11 14  1  0  0  0  0
 11 15  1  0  0  0  0
 11 16  1  0  0  0  0
 23 30  1  0  0  0  0
 23 31  1  0  0  0  0
 23 32  1  0  0  0  0
 47 49  1  0  0  0  0
 47 50  1  0  0  0  0
 47 51  1  0  0  0  0
 22 28  1  0  0  0  0
 22 29  1  0  0  0  0
 37 42  1  0  0  0  0
  8 13  1  0  0  0  0
 18 26  1  0  0  0  0
 21 27  1  0  0  0  0
 46 48  1  0  0  0  0
  7 12  1  0  0  0  0
 36 41  1  0  0  0  0
 17 25  1  0  0  0  0
M  END
$$$$

  -OEChem-05262214473D

 51 50  0     1  0  0  0  0  0999 V2000
    1.3524   -3.0009    1.4091 C   0  0  0  0  0  0  0  0  0  0  0  0
    1.8758   -1.9880    0.9598 O   0  0  0  0  0  0  0  0  0  0  0  0
    2.2030   -4.1782    1.7536 C   0  0  0  0  0  0  0  0  0  0  0  0
    2.3264   -4.8705    0.9053 H   0  0  0  0  0  0  0  0  0  0  0  0
    3.2257   -3.8876    2.0432 H   0  0  0  0  0  0  0  0  0  0  0  0
    1.8327   -4.8004    2.5839 H   0  0  0  0  0  0  0  0  0  0  0  0
    0.0005   -3.1873    1.6465 N   0  0  0  0  0  0  0  0  0  0  0  0
   -0.9949   -2.1807    1.3864 C   0  0  2  0  0  0  0  0  0  0  0  0
   -0.3083   -0.8216    1.4164 C   0  0  0  0  0  0  0  0  0  0  0  0
    0.7533   -0.6191    2.0022 O   0  0  0  0  0  0  0  0  0  0  0  0
   -2.1232   -2.2423    2.4042 C   0  0  0  0  0  0  0  0  0  0  0  0
   -0.3048   -4.0823    2.0245 H   0  0  0  0  0  0  0  0  0  0  0  0
   -1.3830   -2.3724    0.3801 H   0  0  0  0  0  0  0  0  0  0  0  0
   -1.7534   -2.0527    3.4185 H   0  0  0  0  0  0  0  0  0  0  0  0
   -2.8936   -1.4947    2.1882 H   0  0  0  0  0  0  0  0  0  0  0  0
   -2.5964   -3.2301    2.4022 H   0  0  0  0  0  0  0  0  0  0  0  0
   -1.0412    0.1517    0.7482 N   0  0  0  0  0  0  0  0  0  0  0  0
   -0.6079    1.5223    0.6467 C   0  0  2  0  0  0  0  0  0  0  0  0
    0.7274    1.6550    1.3778 C   0  0  0  0  0  0  0  0  0  0  0  0
    1.4579    2.6369    1.2612 O   0  0  0  0  0  0  0  0  0  0  0  0
   -1.6656    2.5301    1.1579 C   0  0  2  0  0  0  0  0  0  0  0  0
   -2.9635    2.4901    0.3210 C   0  0  0  0  0  0  0  0  0  0  0  0
   -1.0683    3.9426    1.2088 C   0  0  0  0  0  0  0  0  0  0  0  0
   -4.1142    3.2671    0.9479 C   0  0  0  0  0  0  0  0  0  0  0  0
   -1.9022   -0.1128    0.2753 H   0  0  0  0  0  0  0  0  0  0  0  0
   -0.4153    1.6979   -0.4194 H   0  0  0  0  0  0  0  0  0  0  0  0
   -1.9253    2.2544    2.1888 H   0  0  0  0  0  0  0  0  0  0  0  0
   -2.7748    2.9183   -0.6701 H   0  0  0  0  0  0  0  0  0  0  0  0
   -3.2847    1.4537    0.1628 H   0  0  0  0  0  0  0  0  0  0  0  0
   -0.7854    4.2820    0.2066 H   0  0  0  0  0  0  0  0  0  0  0  0
   -1.7919    4.6649    1.5989 H   0  0  0  0  0  0  0  0  0  0  0  0
   -0.1775    3.9793    1.8443 H   0  0  0  0  0  0  0  0  0  0  0  0
   -4.3581    2.8909    1.9455 H   0  0  0  0  0  0  0  0  0  0  0  0
   -5.0129    3.1677    0.3304 H   0  0  0  0  0  0  0  0  0  0  0  0
   -3.8737    4.3319    1.0256 H   0  0  0  0  0  0  0  0  0  0  0  0
    0.9866    0.5653    2.1969 N   0  0  0  0  0  0  0  0  0  0  0  0
    2.1736    0.4516    3.0134 C   0  0  2  0  0  0  0  0  0  0  0  0
    1.8414   -0.4365    4.2051 C   0  0  0  0  0  0  0  0  0  0  0  0
    0.6947   -0.6124    4.6116 O   0  0  0  0  0  0  0  0  0  0  0  0
    2.6624    1.8166    3.4722 C   0  0  0  0  0  0  0  0  0  0  0  0
    0.3082   -0.1901    2.2239 H   0  0  0  0  0  0  0  0  0  0  0  0
    2.9367   -0.0349    2.3961 H   0  0  0  0  0  0  0  0  0  0  0  0
    1.9111    2.3194    4.0921 H   0  0  0  0  0  0  0  0  0  0  0  0
    3.5778    1.7310    4.0669 H   0  0  0  0  0  0  0  0  0  0  0  0
    2.8725    2.4641    2.6141 H   0  0  0  0  0  0  0  0  0  0  0  0
    2.9799   -0.9752    4.7880 N   0  0  0  0  0  0  0  0  0  0  0  0
    2.9293   -1.8419    5.9423 C   0  0  0  0  0  0  0  0  0  0  0  0
    3.8886   -0.7912    4.3730 H   0  0  0  0  0  0  0  0  0  0  0  0
    3.0341   -1.2408    6.8576 H   0  0  0  0  0  0  0  0  0  0  0  0
    1.9658   -2.3723    5.9604 H   0  0  0  0  0  0  0  0  0  0  0  0
    3.7494   -2.5729    5.8880 H   0  0  0  0  0  0  0  0  0  0  0  0
  1  3  1  0  0  0  0
  1  7  1  0  0  0  0
  1  2  2  0  0  0  0
 37 38  1  0  0  0  0
 38 46  1  0  0  0  0
 38 39  2  0  0  0  0
  8  9  1  0  0  0  0
  9 17  1  0  0  0  0
  9 10  2  0  0  0  0
 18 19  1  0  0  0  0
 19 36  1  0  0  0  0
 19 20  2  0  0  0  0
 22 24  1  0  0  0  0
 37 40  1  0  0  0  0
  8 11  1  0  0  0  0
 21 23  1  0  0  0  0
 46 47  1  0  0  0  0
 21 22  1  0  0  0  0
 36 37  1  0  0  0  0
  7  8  1  0  0  0  0
 18 21  1  0  0  0  0
 17 18  1  0  0  0  0
  3  4  1  0  0  0  0
  3  5  1  0  0  0  0
  3  6  1  0  0  0  0
 24 33  1  0  0  0  0
 24 34  1  0  0  0  0
 24 35  1  0  0  0  0
 40 43  1  0  0  0  0
 40 44  1  0  0  0  0
 40 45  1  0  0  0  0
 11 14  1  0  0  0  0
 11 15  1  0  0  0  0
 11 16  1  0  0  0  0
 23 30  1  0  0  0  0
 23 31  1  0  0  0  0
 23 32  1  0  0  0  0
 47 49  1  0  0  0  0
 47 50  1  0  0  0  0
 47 51  1  0  0  0  0
 22 28  1  0  0  0  0
 22 29  1  0  0  0  0
 37 42  1  0  0  0  0
  8 13  1  0  0  0  0
 18 26  1  0  0  0  0
 21 27  1  0  0  0  0
 46 48  1  0  0  0  0
  7 12  1  0  0  0  0
 36 41  1  0  0  0  0
 17 25  1  0  0  0  0
M  END
$$$$

  -OEChem-05262214473D

 51 50  0     1  0  0  0  0  0999 V2000
    1.3524   -3.0009    1.4091 C   0  0  0  0  0  0  0  0  0  0  0  0
    1.8758   -1.9880    0.9598 O   0  0  0  0  0  0  0  0  0  0  0  0
    2.2030   -4.1782    1.7536 C   0  0  0  0  0  0  0  0  0  0  0  0
    2.3264   -4.8705    0.9053 H   0  0  0  0  0  0  0  0  0  0  0  0
    3.2257   -3.8876    2.0432 H   0  0  0  0  0  0  0  0  0  0  0  0
    1.8327   -4.8004    2.5839 H   0  0  0  0  0  0  0  0  0  0  0  0
    0.0005   -3.1873    1.6465 N   0  0  0  0  0  0  0  0  0  0  0  0
   -0.9949   -2.1807    1.3864 C   0  0  2  0  0  0  0  0  0  0  0  0
   -0.3083   -0.8216    1.4164 C   0  0  0  0  0  0  0  0  0  0  0  0
    0.7533   -0.6191    2.0022 O   0  0  0  0  0  0  0  0  0  0  0  0
   -2.1232   -2.2423    2.4042 C   0  0  0  0  0  0  0  0  0  0  0  0
   -0.3048   -4.0823    2.0245 H   0  0  0  0  0  0  0  0  0  0  0  0
   -1.3830   -2.3724    0.3801 H   0  0  0  0  0  0  0  0  0  0  0  0
   -1.7534   -2.0527    3.4185 H   0  0  0  0  0  0  0  0  0  0  0  0
   -2.8936   -1.4947    2.1882 H   0  0  0  0  0  0  0  0  0  0  0  0
   -2.5964   -3.2301    2.4022 H   0  0  0  0  0  0  0  0  0  0  0  0
   -1.0412    0.1517    0.7482 N   0  0  0  0  0  0  0  0  0  0  0  0
   -0.6079    1.5223    0.6467 C   0  0  2  0  0  0  0  0  0  0  0  0
    0.7274    1.6550    1.3778 C   0  0  0  0  0  0  0  0  0  0  0  0
    1.3287    2.7223    1.4817 O   0  0  0  0  0  0  0  0  0  0  0  0
   -1.6656    2.5301    1.1579 C   0  0  2  0  0  0  0  0  0  0  0  0
   -2.9635    2.4901    0.3210 C   0  0  0  0  0  0  0  0  0  0  0  0
   -1.0683    3.9426    1.2088 C   0  0  0  0  0  0  0  0  0  0  0  0
   -4.1142    3.2671    0.9479 C   0  0  0  0  0  0  0  0  0  0  0  0
   -1.9022   -0.1128    0.2753 H   0  0  0  0  0  0  0  0  0  0  0  0
   -0.4153    1.6979   -0.4194 H   0  0  0  0  0  0  0  0  0  0  0  0
   -1.9253    2.2544    2.1888 H   0  0  0  0  0  0  0  0  0  0  0  0
   -2.7748    2.9183   -0.6701 H   0  0  0  0  0  0  0  0  0  0  0  0
   -3.2847    1.4537    0.1628 H   0  0  0  0  0  0  0  0  0  0  0  0
   -0.7854    4.2820    0.2066 H   0  0  0  0  0  0  0  0  0  0  0  0
   -1.7919    4.6649    1.5989 H   0  0  0  0  0  0  0  0  0  0  0  0
   -0.1775    3.9793    1.8443 H   0  0  0  0  0  0  0  0  0  0  0  0
   -4.3581    2.8909    1.9455 H   0  0  0  0  0  0  0  0  0  0  0  0
   -5.0129    3.1677    0.3304 H   0  0  0  0  0  0  0  0  0  0  0  0
   -3.8737    4.3319    1.0256 H   0  0  0  0  0  0  0  0  0  0  0  0
    1.1467    0.4508    1.9252 N   0  0  0  0  0  0  0  0  0  0  0  0
    2.3679    0.3076    2.6846 C   0  0  2  0  0  0  0  0  0  0  0  0
    2.1898   -0.8604    3.6457 C   0  0  0  0  0  0  0  0  0  0  0  0
    1.0886   -1.2666    4.0109 O   0  0  0  0  0  0  0  0  0  0  0  0
    2.7041    1.5851    3.4381 C   0  0  0  0  0  0  0  0  0  0  0  0
    0.5663   -0.3709    1.7852 H   0  0  0  0  0  0  0  0  0  0  0  0
    3.1611    0.0727    1.9666 H   0  0  0  0  0  0  0  0  0  0  0  0
    1.9206    1.8365    4.1623 H   0  0  0  0  0  0  0  0  0  0  0  0
    3.6444    1.4844    3.9901 H   0  0  0  0  0  0  0  0  0  0  0  0
    2.8025    2.4301    2.7481 H   0  0  0  0  0  0  0  0  0  0  0  0
    3.4059   -1.3680    4.0813 N   0  0  0  0  0  0  0  0  0  0  0  0
    3.5031   -2.4711    5.0084 C   0  0  0  0  0  0  0  0  0  0  0  0
    4.2696   -0.9820    3.7116 H   0  0  0  0  0  0  0  0  0  0  0  0
    3.5678   -2.0829    6.0356 H   0  0  0  0  0  0  0  0  0  0  0  0
    2.6124   -3.1095    4.9133 H   0  0  0  0  0  0  0  0  0  0  0  0
    4.4033   -3.0616    4.7824 H   0  0  0  0  0  0  0  0  0  0  0  0
  1  3  1  0  0  0  0
  1  7  1  0  0  0  0
  1  2  2  0  0  0  0
 37 38  1  0  0  0  0
 38 46  1  0  0  0  0
 38 39  2  0  0  0  0
  8  9  1  0  0  0  0
  9 17  1  0  0  0  0
  9 10  2  0  0  0  0
 18 19  1  0  0  0  0
 19 36  1  0  0  0  0
 19 20  2  0  0  0  0
 22 24  1  0  0  0  0
 37 40  1  0  0  0  0
  8 11  1  0  0  0  0
 21 23  1  0  0  0  0
 46 47  1  0  0  0  0
 21 22  1  0  0  0  0
 36 37  1  0  0  0  0
  7  8  1  0  0  0  0
 18 21  1  0  0  0  0
 17 18  1  0  0  0  0
  3  4  1  0  0  0  0
  3  5  1  0  0  0  0
  3  6  1  0  0  0  0
 24 33  1  0  0  0  0
 24 34  1  0  0  0  0
 24 35  1  0  0  0  0
 40 43  1  0  0  0  0
 40 44  1  0  0  0  0
 40 45  1  0  0  0  0
 11 14  1  0  0  0  0
 11 15  1  0  0  0  0
 11 16  1  0  0  0  0
 23 30  1  0  0  0  0
 23 31  1  0  0  0  0
 23 32  1  0  0  0  0
 47 49  1  0  0  0  0
 47 50  1  0  0  0  0
 47 51  1  0  0  0  0
 22 28  1  0  0  0  0
 22 29  1  0  0  0  0
 37 42  1  0  0  0  0
  8 13  1  0  0  0  0
 18 26  1  0  0  0  0
 21 27  1  0  0  0  0
 46 48  1  0  0  0  0
  7 12  1  0  0  0  0
 36 41  1  0  0  0  0
 17 25  1  0  0  0  0
M  END
$$$$

  -OEChem-05262214473D

 51 50  0     1  0  0  0  0  0999 V2000
    1.3524   -3.0009    1.4091 C   0  0  0  0  0  0  0  0  0  0  0  0
    1.8758   -1.9880    0.9598 O   0  0  0  0  0  0  0  0  0  0  0  0
    2.2030   -4.1782    1.7536 C   0  0  0  0  0  0  0  0  0  0  0  0
    2.3264   -4.8705    0.9053 H   0  0  0  0  0  0  0  0  0  0  0  0
    3.2257   -3.8876    2.0432 H   0  0  0  0  0  0  0  0  0  0  0  0
    1.8327   -4.8004    2.5839 H   0  0  0  0  0  0  0  0  0  0  0  0
    0.0005   -3.1873    1.6465 N   0  0  0  0  0  0  0  0  0  0  0  0
   -0.9949   -2.1807    1.3864 C   0  0  2  0  0  0  0  0  0  0  0  0
   -0.3083   -0.8216    1.4164 C   0  0  0  0  0  0  0  0  0  0  0  0
    0.7533   -0.6191    2.0022 O   0  0  0  0  0  0  0  0  0  0  0  0
   -2.1232   -2.2423    2.4042 C   0  0  0  0  0  0  0  0  0  0  0  0
   -0.3048   -4.0823    2.0245 H   0  0  0  0  0  0  0  0  0  0  0  0
   -1.3830   -2.3724    0.3801 H   0  0  0  0  0  0  0  0  0  0  0  0
   -1.7534   -2.0527    3.4185 H   0  0  0  0  0  0  0  0  0  0  0  0
   -2.8936   -1.4947    2.1882 H   0  0  0  0  0  0  0  0  0  0  0  0
   -2.5964   -3.2301    2.4022 H   0  0  0  0  0  0  0  0  0  0  0  0
   -1.0412    0.1517    0.7482 N   0  0  0  0  0  0  0  0  0  0  0  0
   -0.6079    1.5223    0.6467 C   0  0  2  0  0  0  0  0  0  0  0  0
    0.7274    1.6550    1.3778 C   0  0  0  0  0  0  0  0  0  0  0  0
    1.1982    2.7389    1.7169 O   0  0  0  0  0  0  0  0  0  0  0  0
   -1.6656    2.5301    1.1579 C   0  0  2  0  0  0  0  0  0  0  0  0
   -2.9635    2.4901    0.3210 C   0  0  0  0  0  0  0  0  0  0  0  0
   -1.0683    3.9426    1.2088 C   0  0  0  0  0  0  0  0  0  0  0  0
   -4.1142    3.2671    0.9479 C   0  0  0  0  0  0  0  0  0  0  0  0
   -1.9022   -0.1128    0.2753 H   0  0  0  0  0  0  0  0  0  0  0  0
   -0.4153    1.6979   -0.4194 H   0  0  0  0  0  0  0  0  0  0  0  0
   -1.9253    2.2544    2.1888 H   0  0  0  0  0  0  0  0  0  0  0  0
   -2.7748    2.9183   -0.6701 H   0  0  0  0  0  0  0  0  0  0  0  0
   -3.2847    1.4537    0.1628 H   0  0  0  0  0  0  0  0  0  0  0  0
   -0.7854    4.2820    0.2066 H   0  0  0  0  0  0  0  0  0  0  0  0
   -1.7919    4.6649    1.5989 H   0  0  0  0  0  0  0  0  0  0  0  0
   -0.1775    3.9793    1.8443 H   0  0  0  0  0  0  0  0  0  0  0  0
   -4.3581    2.8909    1.9455 H   0  0  0  0  0  0  0  0  0  0  0  0
   -5.0129    3.1677    0.3304 H   0  0  0  0  0  0  0  0  0  0  0  0
   -3.8737    4.3319    1.0256 H   0  0  0  0  0  0  0  0  0  0  0  0
    1.3094    0.4215    1.6334 N   0  0  0  0  0  0  0  0  0  0  0  0
    2.5660    0.2668    2.3301 C   0  0  2  0  0  0  0  0  0  0  0  0
    2.5663   -1.1002    3.0016 C   0  0  0  0  0  0  0  0  0  0  0  0
    1.5366   -1.7139    3.2739 O   0  0  0  0  0  0  0  0  0  0  0  0
    2.7723    1.3743    3.3518 C   0  0  0  0  0  0  0  0  0  0  0  0
    0.8282   -0.4143    1.3148 H   0  0  0  0  0  0  0  0  0  0  0  0
    3.3550    0.3015    1.5710 H   0  0  0  0  0  0  0  0  0  0  0  0
    1.9912    1.3554    4.1206 H   0  0  0  0  0  0  0  0  0  0  0  0
    3.7375    1.2718    3.8586 H   0  0  0  0  0  0  0  0  0  0  0  0
    2.7421    2.3582    2.8714 H   0  0  0  0  0  0  0  0  0  0  0  0
    3.8501   -1.5347    3.3002 N   0  0  0  0  0  0  0  0  0  0  0  0
    4.1143   -2.7966    3.9512 C   0  0  0  0  0  0  0  0  0  0  0  0
    4.6465   -0.9695    3.0210 H   0  0  0  0  0  0  0  0  0  0  0  0
    4.1691   -2.6442    5.0392 H   0  0  0  0  0  0  0  0  0  0  0  0
    3.3047   -3.5047    3.7206 H   0  0  0  0  0  0  0  0  0  0  0  0
    5.0705   -3.2026    3.5893 H   0  0  0  0  0  0  0  0  0  0  0  0
  1  3  1  0  0  0  0
  1  7  1  0  0  0  0
  1  2  2  0  0  0  0
 37 38  1  0  0  0  0
 38 46  1  0  0  0  0
 38 39  2  0  0  0  0
  8  9  1  0  0  0  0
  9 17  1  0  0  0  0
  9 10  2  0  0  0  0
 18 19  1  0  0  0  0
 19 36  1  0  0  0  0
 19 20  2  0  0  0  0
 22 24  1  0  0  0  0
 37 40  1  0  0  0  0
  8 11  1  0  0  0  0
 21 23  1  0  0  0  0
 46 47  1  0  0  0  0
 21 22  1  0  0  0  0
 36 37  1  0  0  0  0
  7  8  1  0  0  0  0
 18 21  1  0  0  0  0
 17 18  1  0  0  0  0
  3  4  1  0  0  0  0
  3  5  1  0  0  0  0
  3  6  1  0  0  0  0
 24 33  1  0  0  0  0
 24 34  1  0  0  0  0
 24 35  1  0  0  0  0
 40 43  1  0  0  0  0
 40 44  1  0  0  0  0
 40 45  1  0  0  0  0
 11 14  1  0  0  0  0
 11 15  1  0  0  0  0
 11 16  1  0  0  0  0
 23 30  1  0  0  0  0
 23 31  1  0  0  0  0
 23 32  1  0  0  0  0
 47 49  1  0  0  0  0
 47 50  1  0  0  0  0
 47 51  1  0  0  0  0
 22 28  1  0  0  0  0
 22 29  1  0  0  0  0
 37 42  1  0  0  0  0
  8 13  1  0  0  0  0
 18 26  1  0  0  0  0
 21 27  1  0  0  0  0
 46 48  1  0  0  0  0
  7 12  1  0  0  0  0
 36 41  1  0  0  0  0
 17 25  1  0  0  0  0
M  END
$$$$

  -OEChem-05262214473D

 51 50  0     1  0  0  0  0  0999 V2000
    1.3524   -3.0009    1.4091 C   0  0  0  0  0  0  0  0  0  0  0  0
    1.8758   -1.9880    0.9598 O   0  0  0  0  0  0  0  0  0  0  0  0
    2.2030   -4.1782    1.7536 C   0  0  0  0  0  0  0  0  0  0  0  0
    2.3264   -4.8705    0.9053 H   0  0  0  0  0  0  0  0  0  0  0  0
    3.2257   -3.8876    2.0432 H   0  0  0  0  0  0  0  0  0  0  0  0
    1.8327   -4.8004    2.5839 H   0  0  0  0  0  0  0  0  0  0  0  0
    0.0005   -3.1873    1.6465 N   0  0  0  0  0  0  0  0  0  0  0  0
   -0.9949   -2.1807    1.3864 C   0  0  2  0  0  0  0  0  0  0  0  0
   -0.3083   -0.8216    1.4164 C   0  0  0  0  0  0  0  0  0  0  0  0
    0.7533   -0.6191    2.0022 O   0  0  0  0  0  0  0  0  0  0  0  0
   -2.1232   -2.2423    2.4042 C   0  0  0  0  0  0  0  0  0  0  0  0
   -0.3048   -4.0823    2.0245 H   0  0  0  0  0  0  0  0  0  0  0  0
   -1.3830   -2.3724    0.3801 H   0  0  0  0  0  0  0  0  0  0  0  0
   -1.7534   -2.0527    3.4185 H   0  0  0  0  0  0  0  0  0  0  0  0
   -2.8936   -1.4947    2.1882 H   0  0  0  0  0  0  0  0  0  0  0  0
   -2.5964   -3.2301    2.4022 H   0  0  0  0  0  0  0  0  0  0  0  0
   -1.0412    0.1517    0.7482 N   0  0  0  0  0  0  0  0  0  0  0  0
   -0.6079    1.5223    0.6467 C   0  0  2  0  0  0  0  0  0  0  0  0
    0.7274    1.6550    1.3778 C   0  0  0  0  0  0  0  0  0  0  0  0
    1.0755    2.6855    1.9508 O   0  0  0  0  0  0  0  0  0  0  0  0
   -1.6656    2.5301    1.1579 C   0  0  2  0  0  0  0  0  0  0  0  0
   -2.9635    2.4901    0.3210 C   0  0  0  0  0  0  0  0  0  0  0  0
   -1.0683    3.9426    1.2088 C   0  0  0  0  0  0  0  0  0  0  0  0
   -4.1142    3.2671    0.9479 C   0  0  0  0  0  0  0  0  0  0  0  0
   -1.9022   -0.1128    0.2753 H   0  0  0  0  0  0  0  0  0  0  0  0
   -0.4153    1.6979   -0.4194 H   0  0  0  0  0  0  0  0  0  0  0  0
   -1.9253    2.2544    2.1888 H   0  0  0  0  0  0  0  0  0  0  0  0
   -2.7748    2.9183   -0.6701 H   0  0  0  0  0  0  0  0  0  0  0  0
   -3.2847    1.4537    0.1628 H   0  0  0  0  0  0  0  0  0  0  0  0
   -0.7854    4.2820    0.2066 H   0  0  0  0  0  0  0  0  0  0  0  0
   -1.7919    4.6649    1.5989 H   0  0  0  0  0  0  0  0  0  0  0  0
   -0.1775    3.9793    1.8443 H   0  0  0  0  0  0  0  0  0  0  0  0
   -4.3581    2.8909    1.9455 H   0  0  0  0  0  0  0  0  0  0  0  0
   -5.0129    3.1677    0.3304 H   0  0  0  0  0  0  0  0  0  0  0  0
   -3.8737    4.3319    1.0256 H   0  0  0  0  0  0  0  0  0  0  0  0
    1.4636    0.4794    1.3411 N   0  0  0  0  0  0  0  0  0  0  0  0
    2.7545    0.3321    1.9741 C   0  0  2  0  0  0  0  0  0  0  0  0
    2.9451   -1.1395    2.3168 C   0  0  0  0  0  0  0  0  0  0  0  0
    2.0081   -1.9239    2.4507 O   0  0  0  0  0  0  0  0  0  0  0  0
    2.8623    1.1986    3.2192 C   0  0  0  0  0  0  0  0  0  0  0  0
    1.0760   -0.3174    0.8447 H   0  0  0  0  0  0  0  0  0  0  0  0
    3.5050    0.6361    1.2363 H   0  0  0  0  0  0  0  0  0  0  0  0
    2.1181    0.9089    3.9700 H   0  0  0  0  0  0  0  0  0  0  0  0
    3.8508    1.1077    3.6815 H   0  0  0  0  0  0  0  0  0  0  0  0
    2.6954    2.2534    2.9756 H   0  0  0  0  0  0  0  0  0  0  0  0
    4.2822   -1.4642    2.4981 N   0  0  0  0  0  0  0  0  0  0  0  0
    4.7212   -2.7963    2.8426 C   0  0  0  0  0  0  0  0  0  0  0  0
    4.9935   -0.7547    2.3483 H   0  0  0  0  0  0  0  0  0  0  0  0
    4.7970   -2.8866    3.9363 H   0  0  0  0  0  0  0  0  0  0  0  0
    3.9955   -3.5309    2.4636 H   0  0  0  0  0  0  0  0  0  0  0  0
    5.7057   -2.9863    2.3900 H   0  0  0  0  0  0  0  0  0  0  0  0
  1  3  1  0  0  0  0
  1  7  1  0  0  0  0
  1  2  2  0  0  0  0
 37 38  1  0  0  0  0
 38 46  1  0  0  0  0
 38 39  2  0  0  0  0
  8  9  1  0  0  0  0
  9 17  1  0  0  0  0
  9 10  2  0  0  0  0
 18 19  1  0  0  0  0
 19 36  1  0  0  0  0
 19 20  2  0  0  0  0
 22 24  1  0  0  0  0
 37 40  1  0  0  0  0
  8 11  1  0  0  0  0
 21 23  1  0  0  0  0
 46 47  1  0  0  0  0
 21 22  1  0  0  0  0
 36 37  1  0  0  0  0
  7  8  1  0  0  0  0
 18 21  1  0  0  0  0
 17 18  1  0  0  0  0
  3  4  1  0  0  0  0
  3  5  1  0  0  0  0
  3  6  1  0  0  0  0
 24 33  1  0  0  0  0
 24 34  1  0  0  0  0
 24 35  1  0  0  0  0
 40 43  1  0  0  0  0
 40 44  1  0  0  0  0
 40 45  1  0  0  0  0
 11 14  1  0  0  0  0
 11 15  1  0  0  0  0
 11 16  1  0  0  0  0
 23 30  1  0  0  0  0
 23 31  1  0  0  0  0
 23 32  1  0  0  0  0
 47 49  1  0  0  0  0
 47 50  1  0  0  0  0
 47 51  1  0  0  0  0
 22 28  1  0  0  0  0
 22 29  1  0  0  0  0
 37 42  1  0  0  0  0
  8 13  1  0  0  0  0
 18 26  1  0  0  0  0
 21 27  1  0  0  0  0
 46 48  1  0  0  0  0
  7 12  1  0  0  0  0
 36 41  1  0  0  0  0
 17 25  1  0  0  0  0
M  END
$$$$

  -OEChem-05262214473D

 51 50  0     1  0  0  0  0  0999 V2000
    1.3524   -3.0009    1.4091 C   0  0  0  0  0  0  0  0  0  0  0  0
    1.8758   -1.9880    0.9598 O   0  0  0  0  0  0  0  0  0  0  0  0
    2.2030   -4.1782    1.7536 C   0  0  0  0  0  0  0  0  0  0  0  0
    2.3264   -4.8705    0.9053 H   0  0  0  0  0  0  0  0  0  0  0  0
    3.2257   -3.8876    2.0432 H   0  0  0  0  0  0  0  0  0  0  0  0
    1.8327   -4.8004    2.5839 H   0  0  0  0  0  0  0  0  0  0  0  0
    0.0005   -3.1873    1.6465 N   0  0  0  0  0  0  0  0  0  0  0  0
   -0.9949   -2.1807    1.3864 C   0  0  2  0  0  0  0  0  0  0  0  0
   -0.3083   -0.8216    1.4164 C   0  0  0  0  0  0  0  0  0  0  0  0
    0.7533   -0.6191    2.0022 O   0  0  0  0  0  0  0  0  0  0  0  0
   -2.1232   -2.2423    2.4042 C   0  0  0  0  0  0  0  0  0  0  0  0
   -0.3048   -4.0823    2.0245 H   0  0  0  0  0  0  0  0  0  0  0  0
   -1.3830   -2.3724    0.3801 H   0  0  0  0  0  0  0  0  0  0  0  0
   -1.7534   -2.0527    3.4185 H   0  0  0  0  0  0  0  0  0  0  0  0
   -2.8936   -1.4947    2.1882 H   0  0  0  0  0  0  0  0  0  0  0  0
   -2.5964   -3.2301    2.4022 H   0  0  0  0  0  0  0  0  0  0  0  0
   -1.0412    0.1517    0.7482 N   0  0  0  0  0  0  0  0  0  0  0  0
   -0.6079    1.5223    0.6467 C   0  0  2  0  0  0  0  0  0  0  0  0
    0.7274    1.6550    1.3778 C   0  0  0  0  0  0  0  0  0  0  0  0
    0.9688    2.5659    2.1674 O   0  0  0  0  0  0  0  0  0  0  0  0
   -1.6656    2.5301    1.1579 C   0  0  2  0  0  0  0  0  0  0  0  0
   -2.9635    2.4901    0.3210 C   0  0  0  0  0  0  0  0  0  0  0  0
   -1.0683    3.9426    1.2088 C   0  0  0  0  0  0  0  0  0  0  0  0
   -4.1142    3.2671    0.9479 C   0  0  0  0  0  0  0  0  0  0  0  0
   -1.9022   -0.1128    0.2753 H   0  0  0  0  0  0  0  0  0  0  0  0
   -0.4153    1.6979   -0.4194 H   0  0  0  0  0  0  0  0  0  0  0  0
   -1.9253    2.2544    2.1888 H   0  0  0  0  0  0  0  0  0  0  0  0
   -2.7748    2.9183   -0.6701 H   0  0  0  0  0  0  0  0  0  0  0  0
   -3.2847    1.4537    0.1628 H   0  0  0  0  0  0  0  0  0  0  0  0
   -0.7854    4.2820    0.2066 H   0  0  0  0  0  0  0  0  0  0  0  0
   -1.7919    4.6649    1.5989 H   0  0  0  0  0  0  0  0  0  0  0  0
   -0.1775    3.9793    1.8443 H   0  0  0  0  0  0  0  0  0  0  0  0
   -4.3581    2.8909    1.9455 H   0  0  0  0  0  0  0  0  0  0  0  0
   -5.0129    3.1677    0.3304 H   0  0  0  0  0  0  0  0  0  0  0  0
   -3.8737    4.3319    1.0256 H   0  0  0  0  0  0  0  0  0  0  0  0
    1.5989    0.6205    1.0685 N   0  0  0  0  0  0  0  0  0  0  0  0
    2.9204    0.4991    1.6407 C   0  0  2  0  0  0  0  0  0  0  0  0
    3.3005   -0.9757    1.6380 C   0  0  0  0  0  0  0  0  0  0  0  0
    2.4711   -1.8820    1.5975 O   0  0  0  0  0  0  0  0  0  0  0  0
    2.9680    1.0701    3.0494 C   0  0  0  0  0  0  0  0  0  0  0  0
    1.2927   -0.0868    0.4070 H   0  0  0  0  0  0  0  0  0  0  0  0
    3.6010    1.0535    0.9852 H   0  0  0  0  0  0  0  0  0  0  0  0
    2.2925    0.5274    3.7206 H   0  0  0  0  0  0  0  0  0  0  0  0
    3.9765    1.0034    3.4707 H   0  0  0  0  0  0  0  0  0  0  0  0
    2.6657    2.1229    3.0536 H   0  0  0  0  0  0  0  0  0  0  0  0
    4.6729   -1.1611    1.7296 N   0  0  0  0  0  0  0  0  0  0  0  0
    5.2825   -2.4701    1.7582 C   0  0  0  0  0  0  0  0  0  0  0  0
    5.2869   -0.3520    1.7393 H   0  0  0  0  0  0  0  0  0  0  0  0
    5.4088   -2.7936    2.8020 H   0  0  0  0  0  0  0  0  0  0  0  0
    4.6378   -3.1864    1.2280 H   0  0  0  0  0  0  0  0  0  0  0  0
    6.2654   -2.4275    1.2662 H   0  0  0  0  0  0  0  0  0  0  0  0
  1  3  1  0  0  0  0
  1  7  1  0  0  0  0
  1  2  2  0  0  0  0
 37 38  1  0  0  0  0
 38 46  1  0  0  0  0
 38 39  2  0  0  0  0
  8  9  1  0  0  0  0
  9 17  1  0  0  0  0
  9 10  2  0  0  0  0
 18 19  1  0  0  0  0
 19 36  1  0  0  0  0
 19 20  2  0  0  0  0
 22 24  1  0  0  0  0
 37 40  1  0  0  0  0
  8 11  1  0  0  0  0
 21 23  1  0  0  0  0
 46 47  1  0  0  0  0
 21 22  1  0  0  0  0
 36 37  1  0  0  0  0
  7  8  1  0  0  0  0
 18 21  1  0  0  0  0
 17 18  1  0  0  0  0
  3  4  1  0  0  0  0
  3  5  1  0  0  0  0
  3  6  1  0  0  0  0
 24 33  1  0  0  0  0
 24 34  1  0  0  0  0
 24 35  1  0  0  0  0
 40 43  1  0  0  0  0
 40 44  1  0  0  0  0
 40 45  1  0  0  0  0
 11 14  1  0  0  0  0
 11 15  1  0  0  0  0
 11 16  1  0  0  0  0
 23 30  1  0  0  0  0
 23 31  1  0  0  0  0
 23 32  1  0  0  0  0
 47 49  1  0  0  0  0
 47 50  1  0  0  0  0
 47 51  1  0  0  0  0
 22 28  1  0  0  0  0
 22 29  1  0  0  0  0
 37 42  1  0  0  0  0
  8 13  1  0  0  0  0
 18 26  1  0  0  0  0
 21 27  1  0  0  0  0
 46 48  1  0  0  0  0
  7 12  1  0  0  0  0
 36 41  1  0  0  0  0
 17 25  1  0  0  0  0
M  END
$$$$

  -OEChem-05262214473D

 51 50  0     1  0  0  0  0  0999 V2000
    1.3524   -3.0009    1.4091 C   0  0  0  0  0  0  0  0  0  0  0  0
    1.8758   -1.9880    0.9598 O   0  0  0  0  0  0  0  0  0  0  0  0
    2.2030   -4.1782    1.7536 C   0  0  0  0  0  0  0  0  0  0  0  0
    2.3264   -4.8705    0.9053 H   0  0  0  0  0  0  0  0  0  0  0  0
    3.2257   -3.8876    2.0432 H   0  0  0  0  0  0  0  0  0  0  0  0
    1.8327   -4.8004    2.5839 H   0  0  0  0  0  0  0  0  0  0  0  0
    0.0005   -3.1873    1.6465 N   0  0  0  0  0  0  0  0  0  0  0  0
   -0.9949   -2.1807    1.3864 C   0  0  2  0  0  0  0  0  0  0  0  0
   -0.3083   -0.8216    1.4164 C   0  0  0  0  0  0  0  0  0  0  0  0
    0.7533   -0.6191    2.0022 O   0  0  0  0  0  0  0  0  0  0  0  0
   -2.1232   -2.2423    2.4042 C   0  0  0  0  0  0  0  0  0  0  0  0
   -0.3048   -4.0823    2.0245 H   0  0  0  0  0  0  0  0  0  0  0  0
   -1.3830   -2.3724    0.3801 H   0  0  0  0  0  0  0  0  0  0  0  0
   -1.7534   -2.0527    3.4185 H   0  0  0  0  0  0  0  0  0  0  0  0
   -2.8936   -1.4947    2.1882 H   0  0  0  0  0  0  0  0  0  0  0  0
   -2.5964   -3.2301    2.4022 H   0  0  0  0  0  0  0  0  0  0  0  0
   -1.0412    0.1517    0.7482 N   0  0  0  0  0  0  0  0  0  0  0  0
   -0.6079    1.5223    0.6467 C   0  0  2  0  0  0  0  0  0  0  0  0
    0.7274    1.6550    1.3778 C   0  0  0  0  0  0  0  0  0  0  0  0
    0.8854    2.3882    2.3520 O   0  0  0  0  0  0  0  0  0  0  0  0
   -1.6656    2.5301    1.1579 C   0  0  2  0  0  0  0  0  0  0  0  0
   -2.9635    2.4901    0.3210 C   0  0  0  0  0  0  0  0  0  0  0  0
   -1.0683    3.9426    1.2088 C   0  0  0  0  0  0  0  0  0  0  0  0
   -4.1142    3.2671    0.9479 C   0  0  0  0  0  0  0  0  0  0  0  0
   -1.9022   -0.1128    0.2753 H   0  0  0  0  0  0  0  0  0  0  0  0
   -0.4153    1.6979   -0.4194 H   0  0  0  0  0  0  0  0  0  0  0  0
   -1.9253    2.2544    2.1888 H   0  0  0  0  0  0  0  0  0  0  0  0
   -2.7748    2.9183   -0.6701 H   0  0  0  0  0  0  0  0  0  0  0  0
   -3.2847    1.4537    0.1628 H   0  0  0  0  0  0  0  0  0  0  0  0
   -0.7854    4.2820    0.2066 H   0  0  0  0  0  0  0  0  0  0  0  0
   -1.7919    4.6649    1.5989 H   0  0  0  0  0  0  0  0  0  0  0  0
   -0.1775    3.9793    1.8443 H   0  0  0  0  0  0  0  0  0  0  0  0
   -4.3581    2.8909    1.9455 H   0  0  0  0  0  0  0  0  0  0  0  0
   -5.0129    3.1677    0.3304 H   0  0  0  0  0  0  0  0  0  0  0  0
   -3.8737    4.3319    1.0256 H   0  0  0  0  0  0  0  0  0  0  0  0
    1.7059    0.8351    0.8340 N   0  0  0  0  0  0  0  0  0  0  0  0
    3.0526    0.7564    1.3527 C   0  0  2  0  0  0  0  0  0  0  0  0
    3.6083   -0.6199    1.0113 C   0  0  0  0  0  0  0  0  0  0  0  0
    2.8940   -1.5914    0.7724 O   0  0  0  0  0  0  0  0  0  0  0  0
    3.0823    0.9975    2.8539 C   0  0  0  0  0  0  0  0  0  0  0  0
    1.4637    0.2617    0.0314 H   0  0  0  0  0  0  0  0  0  0  0  0
    3.6363    1.5253    0.8350 H   0  0  0  0  0  0  0  0  0  0  0  0
    2.5026    0.2368    3.3896 H   0  0  0  0  0  0  0  0  0  0  0  0
    4.1062    0.9658    3.2407 H   0  0  0  0  0  0  0  0  0  0  0  0
    2.6549    1.9755    3.1001 H   0  0  0  0  0  0  0  0  0  0  0  0
    4.9954   -0.6462    1.0470 N   0  0  0  0  0  0  0  0  0  0  0  0
    5.7599   -1.8403    0.7720 C   0  0  0  0  0  0  0  0  0  0  0  0
    5.5067    0.2110    1.2356 H   0  0  0  0  0  0  0  0  0  0  0  0
    5.9628   -2.3714    1.7137 H   0  0  0  0  0  0  0  0  0  0  0  0
    5.1878   -2.4947    0.0979 H   0  0  0  0  0  0  0  0  0  0  0  0
    6.7117   -1.5643    0.2945 H   0  0  0  0  0  0  0  0  0  0  0  0
  1  3  1  0  0  0  0
  1  7  1  0  0  0  0
  1  2  2  0  0  0  0
 37 38  1  0  0  0  0
 38 46  1  0  0  0  0
 38 39  2  0  0  0  0
  8  9  1  0  0  0  0
  9 17  1  0  0  0  0
  9 10  2  0  0  0  0
 18 19  1  0  0  0  0
 19 36  1  0  0  0  0
 19 20  2  0  0  0  0
 22 24  1  0  0  0  0
 37 40  1  0  0  0  0
  8 11  1  0  0  0  0
 21 23  1  0  0  0  0
 46 47  1  0  0  0  0
 21 22  1  0  0  0  0
 36 37  1  0  0  0  0
  7  8  1  0  0  0  0
 18 21  1  0  0  0  0
 17 18  1  0  0  0  0
  3  4  1  0  0  0  0
  3  5  1  0  0  0  0
  3  6  1  0  0  0  0
 24 33  1  0  0  0  0
 24 34  1  0  0  0  0
 24 35  1  0  0  0  0
 40 43  1  0  0  0  0
 40 44  1  0  0  0  0
 40 45  1  0  0  0  0
 11 14  1  0  0  0  0
 11 15  1  0  0  0  0
 11 16  1  0  0  0  0
 23 30  1  0  0  0  0
 23 31  1  0  0  0  0
 23 32  1  0  0  0  0
 47 49  1  0  0  0  0
 47 50  1  0  0  0  0
 47 51  1  0  0  0  0
 22 28  1  0  0  0  0
 22 29  1  0  0  0  0
 37 42  1  0  0  0  0
  8 13  1  0  0  0  0
 18 26  1  0  0  0  0
 21 27  1  0  0  0  0
 46 48  1  0  0  0  0
  7 12  1  0  0  0  0
 36 41  1  0  0  0  0
 17 25  1  0  0  0  0
M  END
$$$$

  -OEChem-05262214473D

 51 50  0     1  0  0  0  0  0999 V2000
    1.3524   -3.0009    1.4091 C   0  0  0  0  0  0  0  0  0  0  0  0
    1.8758   -1.9880    0.9598 O   0  0  0  0  0  0  0  0  0  0  0  0
    2.2030   -4.1782    1.7536 C   0  0  0  0  0  0  0  0  0  0  0  0
    2.3264   -4.8705    0.9053 H   0  0  0  0  0  0  0  0  0  0  0  0
    3.2257   -3.8876    2.0432 H   0  0  0  0  0  0  0  0  0  0  0  0
    1.8327   -4.8004    2.5839 H   0  0  0  0  0  0  0  0  0  0  0  0
    0.0005   -3.1873    1.6465 N   0  0  0  0  0  0  0  0  0  0  0  0
   -0.9949   -2.1807    1.3864 C   0  0  2  0  0  0  0  0  0  0  0  0
   -0.3083   -0.8216    1.4164 C   0  0  0  0  0  0  0  0  0  0  0  0
    0.7533   -0.6191    2.0022 O   0  0  0  0  0  0  0  0  0  0  0  0
   -2.1232   -2.2423    2.4042 C   0  0  0  0  0  0  0  0  0  0  0  0
   -0.3048   -4.0823    2.0245 H   0  0  0  0  0  0  0  0  0  0  0  0
   -1.3830   -2.3724    0.3801 H   0  0  0  0  0  0  0  0  0  0  0  0
   -1.7534   -2.0527    3.4185 H   0  0  0  0  0  0  0  0  0  0  0  0
   -2.8936   -1.4947    2.1882 H   0  0  0  0  0  0  0  0  0  0  0  0
   -2.5964   -3.2301    2.4022 H   0  0  0  0  0  0  0  0  0  0  0  0
   -1.0412    0.1517    0.7482 N   0  0  0  0  0  0  0  0  0  0  0  0
   -0.6079    1.5223    0.6467 C   0  0  2  0  0  0  0  0  0  0  0  0
    0.7274    1.6550    1.3778 C   0  0  0  0  0  0  0  0  0  0  0  0
    0.8310    2.1644    2.4919 O   0  0  0  0  0  0  0  0  0  0  0  0
   -1.6656    2.5301    1.1579 C   0  0  2  0  0  0  0  0  0  0  0  0
   -2.9635    2.4901    0.3210 C   0  0  0  0  0  0  0  0  0  0  0  0
   -1.0683    3.9426    1.2088 C   0  0  0  0  0  0  0  0  0  0  0  0
   -4.1142    3.2671    0.9479 C   0  0  0  0  0  0  0  0  0  0  0  0
   -1.9022   -0.1128    0.2753 H   0  0  0  0  0  0  0  0  0  0  0  0
   -0.4153    1.6979   -0.4194 H   0  0  0  0  0  0  0  0  0  0  0  0
   -1.9253    2.2544    2.1888 H   0  0  0  0  0  0  0  0  0  0  0  0
   -2.7748    2.9183   -0.6701 H   0  0  0  0  0  0  0  0  0  0  0  0
   -3.2847    1.4537    0.1628 H   0  0  0  0  0  0  0  0  0  0  0  0
   -0.7854    4.2820    0.2066 H   0  0  0  0  0  0  0  0  0  0  0  0
   -1.7919    4.6649    1.5989 H   0  0  0  0  0  0  0  0  0  0  0  0
   -0.1775    3.9793    1.8443 H   0  0  0  0  0  0  0  0  0  0  0  0
   -4.3581    2.8909    1.9455 H   0  0  0  0  0  0  0  0  0  0  0  0
   -5.0129    3.1677    0.3304 H   0  0  0  0  0  0  0  0  0  0  0  0
   -3.8737    4.3319    1.0256 H   0  0  0  0  0  0  0  0  0  0  0  0
    1.7775    1.1088    0.6537 N   0  0  0  0  0  0  0  0  0  0  0  0
    3.1419    1.0863    1.1297 C   0  0  2  0  0  0  0  0  0  0  0  0
    3.8474   -0.0964    0.4795 C   0  0  0  0  0  0  0  0  0  0  0  0
    3.2479   -1.0717    0.0317 O   0  0  0  0  0  0  0  0  0  0  0  0
    3.1972    0.9856    2.6461 C   0  0  0  0  0  0  0  0  0  0  0  0
    1.5773    0.7045   -0.2563 H   0  0  0  0  0  0  0  0  0  0  0  0
    3.6087    2.0194    0.7958 H   0  0  0  0  0  0  0  0  0  0  0  0
    2.7341    0.0571    2.9994 H   0  0  0  0  0  0  0  0  0  0  0  0
    4.2310    0.9975    3.0071 H   0  0  0  0  0  0  0  0  0  0  0  0
    2.6637    1.8212    3.1119 H   0  0  0  0  0  0  0  0  0  0  0  0
    5.2279    0.0455    0.4969 N   0  0  0  0  0  0  0  0  0  0  0  0
    6.1209   -0.9497   -0.0489 C   0  0  0  0  0  0  0  0  0  0  0  0
    5.6381    0.8960    0.8714 H   0  0  0  0  0  0  0  0  0  0  0  0
    6.4211   -1.6489    0.7454 H   0  0  0  0  0  0  0  0  0  0  0  0
    5.6079   -1.5029   -0.8495 H   0  0  0  0  0  0  0  0  0  0  0  0
    7.0140   -0.4555   -0.4589 H   0  0  0  0  0  0  0  0  0  0  0  0
  1  3  1  0  0  0  0
  1  7  1  0  0  0  0
  1  2  2  0  0  0  0
 37 38  1  0  0  0  0
 38 46  1  0  0  0  0
 38 39  2  0  0  0  0
  8  9  1  0  0  0  0
  9 17  1  0  0  0  0
  9 10  2  0  0  0  0
 18 19  1  0  0  0  0
 19 36  1  0  0  0  0
 19 20  2  0  0  0  0
 22 24  1  0  0  0  0
 37 40  1  0  0  0  0
  8 11  1  0  0  0  0
 21 23  1  0  0  0  0
 46 47  1  0  0  0  0
 21 22  1  0  0  0  0
 36 37  1  0  0  0  0
  7  8  1  0  0  0  0
 18 21  1  0  0  0  0
 17 18  1  0  0  0  0
  3  4  1  0  0  0  0
  3  5  1  0  0  0  0
  3  6  1  0  0  0  0
 24 33  1  0  0  0  0
 24 34  1  0  0  0  0
 24 35  1  0  0  0  0
 40 43  1  0  0  0  0
 40 44  1  0  0  0  0
 40 45  1  0  0  0  0
 11 14  1  0  0  0  0
 11 15  1  0  0  0  0
 11 16  1  0  0  0  0
 23 30  1  0  0  0  0
 23 31  1  0  0  0  0
 23 32  1  0  0  0  0
 47 49  1  0  0  0  0
 47 50  1  0  0  0  0
 47 51  1  0  0  0  0
 22 28  1  0  0  0  0
 22 29  1  0  0  0  0
 37 42  1  0  0  0  0
  8 13  1  0  0  0  0
 18 26  1  0  0  0  0
 21 27  1  0  0  0  0
 46 48  1  0  0  0  0
  7 12  1  0  0  0  0
 36 41  1  0  0  0  0
 17 25  1  0  0  0  0
M  END
$$$$

  -OEChem-05262214473D

 51 50  0     1  0  0  0  0  0999 V2000
    1.3524   -3.0009    1.4091 C   0  0  0  0  0  0  0  0  0  0  0  0
    1.8758   -1.9880    0.9598 O   0  0  0  0  0  0  0  0  0  0  0  0
    2.2030   -4.1782    1.7536 C   0  0  0  0  0  0  0  0  0  0  0  0
    2.3264   -4.8705    0.9053 H   0  0  0  0  0  0  0  0  0  0  0  0
    3.2257   -3.8876    2.0432 H   0  0  0  0  0  0  0  0  0  0  0  0
    1.8327   -4.8004    2.5839 H   0  0  0  0  0  0  0  0  0  0  0  0
    0.0005   -3.1873    1.6465 N   0  0  0  0  0  0  0  0  0  0  0  0
   -0.9949   -2.1807    1.3864 C   0  0  2  0  0  0  0  0  0  0  0  0
   -0.3083   -0.8216    1.4164 C   0  0  0  0  0  0  0  0  0  0  0  0
    0.7533   -0.6191    2.0022 O   0  0  0  0  0  0  0  0  0  0  0  0
   -2.1232   -2.2423    2.4042 C   0  0  0  0  0  0  0  0  0  0  0  0
   -0.3048   -4.0823    2.0245 H   0  0  0  0  0  0  0  0  0  0  0  0
   -1.3830   -2.3724    0.3801 H   0  0  0  0  0  0  0  0  0  0  0  0
   -1.7534   -2.0527    3.4185 H   0  0  0  0  0  0  0  0  0  0  0  0
   -2.8936   -1.4947    2.1882 H   0  0  0  0  0  0  0  0  0  0  0  0
   -2.5964   -3.2301    2.4022 H   0  0  0  0  0  0  0  0  0  0  0  0
   -1.0412    0.1517    0.7482 N   0  0  0  0  0  0  0  0  0  0  0  0
   -0.6079    1.5223    0.6467 C   0  0  2  0  0  0  0  0  0  0  0  0
    0.7274    1.6550    1.3778 C   0  0  0  0  0  0  0  0  0  0  0  0
    0.8093    1.9099    2.5777 O   0  0  0  0  0  0  0  0  0  0  0  0
   -1.6656    2.5301    1.1579 C   0  0  2  0  0  0  0  0  0  0  0  0
   -2.9635    2.4901    0.3210 C   0  0  0  0  0  0  0  0  0  0  0  0
   -1.0683    3.9426    1.2088 C   0  0  0  0  0  0  0  0  0  0  0  0
   -4.1142    3.2671    0.9479 C   0  0  0  0  0  0  0  0  0  0  0  0
   -1.9022   -0.1128    0.2753 H   0  0  0  0  0  0  0  0  0  0  0  0
   -0.4153    1.6979   -0.4194 H   0  0  0  0  0  0  0  0  0  0  0  0
   -1.9253    2.2544    2.1888 H   0  0  0  0  0  0  0  0  0  0  0  0
   -2.7748    2.9183   -0.6701 H   0  0  0  0  0  0  0  0  0  0  0  0
   -3.2847    1.4537    0.1628 H   0  0  0  0  0  0  0  0  0  0  0  0
   -0.7854    4.2820    0.2066 H   0  0  0  0  0  0  0  0  0  0  0  0
   -1.7919    4.6649    1.5989 H   0  0  0  0  0  0  0  0  0  0  0  0
   -0.1775    3.9793    1.8443 H   0  0  0  0  0  0  0  0  0  0  0  0
   -4.3581    2.8909    1.9455 H   0  0  0  0  0  0  0  0  0  0  0  0
   -5.0129    3.1677    0.3304 H   0  0  0  0  0  0  0  0  0  0  0  0
   -3.8737    4.3319    1.0256 H   0  0  0  0  0  0  0  0  0  0  0  0
    1.8087    1.4227    0.5398 N   0  0  0  0  0  0  0  0  0  0  0  0
    3.1822    1.4665    0.9870 C   0  0  2  0  0  0  0  0  0  0  0  0
    4.0016    0.5591    0.0789 C   0  0  0  0  0  0  0  0  0  0  0  0
    3.5087   -0.3583   -0.5742 O   0  0  0  0  0  0  0  0  0  0  0  0
    3.3051    1.0354    2.4401 C   0  0  0  0  0  0  0  0  0  0  0  0
    1.6257    1.2114   -0.4367 H   0  0  0  0  0  0  0  0  0  0  0  0
    3.5199    2.5021    0.8703 H   0  0  0  0  0  0  0  0  0  0  0  0
    2.9712    0.0003    2.5766 H   0  0  0  0  0  0  0  0  0  0  0  0
    4.3423    1.0965    2.7858 H   0  0  0  0  0  0  0  0  0  0  0  0
    2.6917    1.6706    3.0883 H   0  0  0  0  0  0  0  0  0  0  0  0
    5.3544    0.8669    0.1167 N   0  0  0  0  0  0  0  0  0  0  0  0
    6.3409    0.1408   -0.6486 C   0  0  0  0  0  0  0  0  0  0  0  0
    5.6720    1.6563    0.6715 H   0  0  0  0  0  0  0  0  0  0  0  0
    6.7526   -0.6753   -0.0367 H   0  0  0  0  0  0  0  0  0  0  0  0
    5.8697   -0.2785   -1.5498 H   0  0  0  0  0  0  0  0  0  0  0  0
    7.1518    0.8234   -0.9427 H   0  0  0  0  0  0  0  0  0  0  0  0
  1  3  1  0  0  0  0
  1  7  1  0  0  0  0
  1  2  2  0  0  0  0
 37 38  1  0  0  0  0
 38 46  1  0  0  0  0
 38 39  2  0  0  0  0
  8  9  1  0  0  0  0
  9 17  1  0  0  0  0
  9 10  2  0  0  0  0
 18 19  1  0  0  0  0
 19 36  1  0  0  0  0
 19 20  2  0  0  0  0
 22 24  1  0  0  0  0
 37 40  1  0  0  0  0
  8 11  1  0  0  0  0
 21 23  1  0  0  0  0
 46 47  1  0  0  0  0
 21 22  1  0  0  0  0
 36 37  1  0  0  0  0
  7  8  1  0  0  0  0
 18 21  1  0  0  0  0
 17 18  1  0  0  0  0
  3  4  1  0  0  0  0
  3  5  1  0  0  0  0
  3  6  1  0  0  0  0
 24 33  1  0  0  0  0
 24 34  1  0  0  0  0
 24 35  1  0  0  0  0
 40 43  1  0  0  0  0
 40 44  1  0  0  0  0
 40 45  1  0  0  0  0
 11 14  1  0  0  0  0
 11 15  1  0  0  0  0
 11 16  1  0  0  0  0
 23 30  1  0  0  0  0
 23 31  1  0  0  0  0
 23 32  1  0  0  0  0
 47 49  1  0  0  0  0
 47 50  1  0  0  0  0
 47 51  1  0  0  0  0
 22 28  1  0  0  0  0
 22 29  1  0  0  0  0
 37 42  1  0  0  0  0
  8 13  1  0  0  0  0
 18 26  1  0  0  0  0
 21 27  1  0  0  0  0
 46 48  1  0  0  0  0
  7 12  1  0  0  0  0
 36 41  1  0  0  0  0
 17 25  1  0  0  0  0
M  END
$$$$

  -OEChem-05262214473D

 51 50  0     1  0  0  0  0  0999 V2000
    1.3524   -3.0009    1.4091 C   0  0  0  0  0  0  0  0  0  0  0  0
    1.8758   -1.9880    0.9598 O   0  0  0  0  0  0  0  0  0  0  0  0
    2.2030   -4.1782    1.7536 C   0  0  0  0  0  0  0  0  0  0  0  0
    2.3264   -4.8705    0.9053 H   0  0  0  0  0  0  0  0  0  0  0  0
    3.2257   -3.8876    2.0432 H   0  0  0  0  0  0  0  0  0  0  0  0
    1.8327   -4.8004    2.5839 H   0  0  0  0  0  0  0  0  0  0  0  0
    0.0005   -3.1873    1.6465 N   0  0  0  0  0  0  0  0  0  0  0  0
   -0.9949   -2.1807    1.3864 C   0  0  2  0  0  0  0  0  0  0  0  0
   -0.3083   -0.8216    1.4164 C   0  0  0  0  0  0  0  0  0  0  0  0
    0.7533   -0.6191    2.0022 O   0  0  0  0  0  0  0  0  0  0  0  0
   -2.1232   -2.2423    2.4042 C   0  0  0  0  0  0  0  0  0  0  0  0
   -0.3048   -4.0823    2.0245 H   0  0  0  0  0  0  0  0  0  0  0  0
   -1.3830   -2.3724    0.3801 H   0  0  0  0  0  0  0  0  0  0  0  0
   -1.7534   -2.0527    3.4185 H   0  0  0  0  0  0  0  0  0  0  0  0
   -2.8936   -1.4947    2.1882 H   0  0  0  0  0  0  0  0  0  0  0  0
   -2.5964   -3.2301    2.4022 H   0  0  0  0  0  0  0  0  0  0  0  0
   -1.0412    0.1517    0.7482 N   0  0  0  0  0  0  0  0  0  0  0  0
   -0.6079    1.5223    0.6467 C   0  0  2  0  0  0  0  0  0  0  0  0
    0.7274    1.6550    1.3778 C   0  0  0  0  0  0  0  0  0  0  0  0
    0.8218    1.6420    2.6035 O   0  0  0  0  0  0  0  0  0  0  0  0
   -1.6656    2.5301    1.1579 C   0  0  2  0  0  0  0  0  0  0  0  0
   -2.9635    2.4901    0.3210 C   0  0  0  0  0  0  0  0  0  0  0  0
   -1.0683    3.9426    1.2088 C   0  0  0  0  0  0  0  0  0  0  0  0
   -4.1142    3.2671    0.9479 C   0  0  0  0  0  0  0  0  0  0  0  0
   -1.9022   -0.1128    0.2753 H   0  0  0  0  0  0  0  0  0  0  0  0
   -0.4153    1.6979   -0.4194 H   0  0  0  0  0  0  0  0  0  0  0  0
   -1.9253    2.2544    2.1888 H   0  0  0  0  0  0  0  0  0  0  0  0
   -2.7748    2.9183   -0.6701 H   0  0  0  0  0  0  0  0  0  0  0  0
   -3.2847    1.4537    0.1628 H   0  0  0  0  0  0  0  0  0  0  0  0
   -0.7854    4.2820    0.2066 H   0  0  0  0  0  0  0  0  0  0  0  0
   -1.7919    4.6649    1.5989 H   0  0  0  0  0  0  0  0  0  0  0  0
   -0.1775    3.9793    1.8443 H   0  0  0  0  0  0  0  0  0  0  0  0
   -4.3581    2.8909    1.9455 H   0  0  0  0  0  0  0  0  0  0  0  0
   -5.0129    3.1677    0.3304 H   0  0  0  0  0  0  0  0  0  0  0  0
   -3.8737    4.3319    1.0256 H   0  0  0  0  0  0  0  0  0  0  0  0
    1.7974    1.7556    0.5000 N   0  0  0  0  0  0  0  0  0  0  0  0
    3.1710    1.8711    0.9341 C   0  0  2  0  0  0  0  0  0  0  0  0
    4.0604    1.3020   -0.1633 C   0  0  0  0  0  0  0  0  0  0  0  0
    3.6587    0.5001   -1.0040 O   0  0  0  0  0  0  0  0  0  0  0  0
    3.3984    1.1435    2.2500 C   0  0  0  0  0  0  0  0  0  0  0  0
    1.6056    1.7478   -0.4974 H   0  0  0  0  0  0  0  0  0  0  0  0
    3.3761    2.9405    1.0535 H   0  0  0  0  0  0  0  0  0  0  0  0
    3.1978    0.0705    2.1501 H   0  0  0  0  0  0  0  0  0  0  0  0
    4.4326    1.2559    2.5920 H   0  0  0  0  0  0  0  0  0  0  0  0
    2.7367    1.5340    3.0307 H   0  0  0  0  0  0  0  0  0  0  0  0
    5.3664    1.7619   -0.0676 N   0  0  0  0  0  0  0  0  0  0  0  0
    6.4048    1.3571   -0.9861 C   0  0  0  0  0  0  0  0  0  0  0  0
    5.6060    2.4400    0.6497 H   0  0  0  0  0  0  0  0  0  0  0  0
    6.9346    0.4830   -0.5794 H   0  0  0  0  0  0  0  0  0  0  0  0
    5.9552    1.0949   -1.9552 H   0  0  0  0  0  0  0  0  0  0  0  0
    7.1157    2.1852   -1.1238 H   0  0  0  0  0  0  0  0  0  0  0  0
  1  3  1  0  0  0  0
  1  7  1  0  0  0  0
  1  2  2  0  0  0  0
 37 38  1  0  0  0  0
 38 46  1  0  0  0  0
 38 39  2  0  0  0  0
  8  9  1  0  0  0  0
  9 17  1  0  0  0  0
  9 10  2  0  0  0  0
 18 19  1  0  0  0  0
 19 36  1  0  0  0  0
 19 20  2  0  0  0  0
 22 24  1  0  0  0  0
 37 40  1  0  0  0  0
  8 11  1  0  0  0  0
 21 23  1  0  0  0  0
 46 47  1  0  0  0  0
 21 22  1  0  0  0  0
 36 37  1  0  0  0  0
  7  8  1  0  0  0  0
 18 21  1  0  0  0  0
 17 18  1  0  0  0  0
  3  4  1  0  0  0  0
  3  5  1  0  0  0  0
  3  6  1  0  0  0  0
 24 33  1  0  0  0  0
 24 34  1  0  0  0  0
 24 35  1  0  0  0  0
 40 43  1  0  0  0  0
 40 44  1  0  0  0  0
 40 45  1  0  0  0  0
 11 14  1  0  0  0  0
 11 15  1  0  0  0  0
 11 16  1  0  0  0  0
 23 30  1  0  0  0  0
 23 31  1  0  0  0  0
 23 32  1  0  0  0  0
 47 49  1  0  0  0  0
 47 50  1  0  0  0  0
 47 51  1  0  0  0  0
 22 28  1  0  0  0  0
 22 29  1  0  0  0  0
 37 42  1  0  0  0  0
  8 13  1  0  0  0  0
 18 26  1  0  0  0  0
 21 27  1  0  0  0  0
 46 48  1  0  0  0  0
  7 12  1  0  0  0  0
 36 41  1  0  0  0  0
 17 25  1  0  0  0  0
M  END
$$$$

  -OEChem-05262214473D

 51 50  0     1  0  0  0  0  0999 V2000
    1.3524   -3.0009    1.4091 C   0  0  0  0  0  0  0  0  0  0  0  0
    1.8758   -1.9880    0.9598 O   0  0  0  0  0  0  0  0  0  0  0  0
    2.2030   -4.1782    1.7536 C   0  0  0  0  0  0  0  0  0  0  0  0
    2.3264   -4.8705    0.9053 H   0  0  0  0  0  0  0  0  0  0  0  0
    3.2257   -3.8876    2.0432 H   0  0  0  0  0  0  0  0  0  0  0  0
    1.8327   -4.8004    2.5839 H   0  0  0  0  0  0  0  0  0  0  0  0
    0.0005   -3.1873    1.6465 N   0  0  0  0  0  0  0  0  0  0  0  0
   -0.9949   -2.1807    1.3864 C   0  0  2  0  0  0  0  0  0  0  0  0
   -0.3083   -0.8216    1.4164 C   0  0  0  0  0  0  0  0  0  0  0  0
    0.7533   -0.6191    2.0022 O   0  0  0  0  0  0  0  0  0  0  0  0
   -2.1232   -2.2423    2.4042 C   0  0  0  0  0  0  0  0  0  0  0  0
   -0.3048   -4.0823    2.0245 H   0  0  0  0  0  0  0  0  0  0  0  0
   -1.3830   -2.3724    0.3801 H   0  0  0  0  0  0  0  0  0  0  0  0
   -1.7534   -2.0527    3.4185 H   0  0  0  0  0  0  0  0  0  0  0  0
   -2.8936   -1.4947    2.1882 H   0  0  0  0  0  0  0  0  0  0  0  0
   -2.5964   -3.2301    2.4022 H   0  0  0  0  0  0  0  0  0  0  0  0
   -1.0412    0.1517    0.7482 N   0  0  0  0  0  0  0  0  0  0  0  0
   -0.6079    1.5223    0.6467 C   0  0  2  0  0  0  0  0  0  0  0  0
    0.7274    1.6550    1.3778 C   0  0  0  0  0  0  0  0  0  0  0  0
    0.8676    1.3789    2.5676 O   0  0  0  0  0  0  0  0  0  0  0  0
   -1.6656    2.5301    1.1579 C   0  0  2  0  0  0  0  0  0  0  0  0
   -2.9635    2.4901    0.3210 C   0  0  0  0  0  0  0  0  0  0  0  0
   -1.0683    3.9426    1.2088 C   0  0  0  0  0  0  0  0  0  0  0  0
   -4.1142    3.2671    0.9479 C   0  0  0  0  0  0  0  0  0  0  0  0
   -1.9022   -0.1128    0.2753 H   0  0  0  0  0  0  0  0  0  0  0  0
   -0.4153    1.6979   -0.4194 H   0  0  0  0  0  0  0  0  0  0  0  0
   -1.9253    2.2544    2.1888 H   0  0  0  0  0  0  0  0  0  0  0  0
   -2.7748    2.9183   -0.6701 H   0  0  0  0  0  0  0  0  0  0  0  0
   -3.2847    1.4537    0.1628 H   0  0  0  0  0  0  0  0  0  0  0  0
   -0.7854    4.2820    0.2066 H   0  0  0  0  0  0  0  0  0  0  0  0
   -1.7919    4.6649    1.5989 H   0  0  0  0  0  0  0  0  0  0  0  0
   -0.1775    3.9793    1.8443 H   0  0  0  0  0  0  0  0  0  0  0  0
   -4.3581    2.8909    1.9455 H   0  0  0  0  0  0  0  0  0  0  0  0
   -5.0129    3.1677    0.3304 H   0  0  0  0  0  0  0  0  0  0  0  0
   -3.8737    4.3319    1.0256 H   0  0  0  0  0  0  0  0  0  0  0  0
    1.7443    2.0848    0.5372 N   0  0  0  0  0  0  0  0  0  0  0  0
    3.1088    2.2724    0.9749 C   0  0  2  0  0  0  0  0  0  0  0  0
    4.0198    2.0817   -0.2306 C   0  0  0  0  0  0  0  0  0  0  0  0
    3.6877    1.4450   -1.2283 O   0  0  0  0  0  0  0  0  0  0  0  0
    3.4709    1.3024    2.0887 C   0  0  0  0  0  0  0  0  0  0  0  0
    1.5184    2.2771   -0.4342 H   0  0  0  0  0  0  0  0  0  0  0  0
    3.1870    3.3048    1.3328 H   0  0  0  0  0  0  0  0  0  0  0  0
    3.3984    0.2628    1.7489 H   0  0  0  0  0  0  0  0  0  0  0  0
    4.4957    1.4649    2.4388 H   0  0  0  0  0  0  0  0  0  0  0  0
    2.7959    1.4206    2.9432 H   0  0  0  0  0  0  0  0  0  0  0  0
    5.2630    2.6695   -0.0434 N   0  0  0  0  0  0  0  0  0  0  0  0
    6.3084    2.6161   -1.0385 C   0  0  0  0  0  0  0  0  0  0  0  0
    5.4448    3.1938    0.8073 H   0  0  0  0  0  0  0  0  0  0  0  0
    6.9548    1.7472   -0.8458 H   0  0  0  0  0  0  0  0  0  0  0  0
    5.8586    2.5238   -2.0381 H   0  0  0  0  0  0  0  0  0  0  0  0
    6.9081    3.5370   -0.9900 H   0  0  0  0  0  0  0  0  0  0  0  0
  1  3  1  0  0  0  0
  1  7  1  0  0  0  0
  1  2  2  0  0  0  0
 37 38  1  0  0  0  0
 38 46  1  0  0  0  0
 38 39  2  0  0  0  0
  8  9  1  0  0  0  0
  9 17  1  0  0  0  0
  9 10  2  0  0  0  0
 18 19  1  0  0  0  0
 19 36  1  0  0  0  0
 19 20  2  0  0  0  0
 22 24  1  0  0  0  0
 37 40  1  0  0  0  0
  8 11  1  0  0  0  0
 21 23  1  0  0  0  0
 46 47  1  0  0  0  0
 21 22  1  0  0  0  0
 36 37  1  0  0  0  0
  7  8  1  0  0  0  0
 18 21  1  0  0  0  0
 17 18  1  0  0  0  0
  3  4  1  0  0  0  0
  3  5  1  0  0  0  0
  3  6  1  0  0  0  0
 24 33  1  0  0  0  0
 24 34  1  0  0  0  0
 24 35  1  0  0  0  0
 40 43  1  0  0  0  0
 40 44  1  0  0  0  0
 40 45  1  0  0  0  0
 11 14  1  0  0  0  0
 11 15  1  0  0  0  0
 11 16  1  0  0  0  0
 23 30  1  0  0  0  0
 23 31  1  0  0  0  0
 23 32  1  0  0  0  0
 47 49  1  0  0  0  0
 47 50  1  0  0  0  0
 47 51  1  0  0  0  0
 22 28  1  0  0  0  0
 22 29  1  0  0  0  0
 37 42  1  0  0  0  0
  8 13  1  0  0  0  0
 18 26  1  0  0  0  0
 21 27  1  0  0  0  0
 46 48  1  0  0  0  0
  7 12  1  0  0  0  0
 36 41  1  0  0  0  0
 17 25  1  0  0  0  0
M  END
$$$$

  -OEChem-05262214473D

 51 50  0     1  0  0  0  0  0999 V2000
    1.3524   -3.0009    1.4091 C   0  0  0  0  0  0  0  0  0  0  0  0
    1.8758   -1.9880    0.9598 O   0  0  0  0  0  0  0  0  0  0  0  0
    2.2030   -4.1782    1.7536 C   0  0  0  0  0  0  0  0  0  0  0  0
    2.3264   -4.8705    0.9053 H   0  0  0  0  0  0  0  0  0  0  0  0
    3.2257   -3.8876    2.0432 H   0  0  0  0  0  0  0  0  0  0  0  0
    1.8327   -4.8004    2.5839 H   0  0  0  0  0  0  0  0  0  0  0  0
    0.0005   -3.1873    1.6465 N   0  0  0  0  0  0  0  0  0  0  0  0
   -0.9949   -2.1807    1.3864 C   0  0  2  0  0  0  0  0  0  0  0  0
   -0.3083   -0.8216    1.4164 C   0  0  0  0  0  0  0  0  0  0  0  0
    0.7533   -0.6191    2.0022 O   0  0  0  0  0  0  0  0  0  0  0  0
   -2.1232   -2.2423    2.4042 C   0  0  0  0  0  0  0  0  0  0  0  0
   -0.3048   -4.0823    2.0245 H   0  0  0  0  0  0  0  0  0  0  0  0
   -1.3830   -2.3724    0.3801 H   0  0  0  0  0  0  0  0  0  0  0  0
   -1.7534   -2.0527    3.4185 H   0  0  0  0  0  0  0  0  0  0  0  0
   -2.8936   -1.4947    2.1882 H   0  0  0  0  0  0  0  0  0  0  0  0
   -2.5964   -3.2301    2.4022 H   0  0  0  0  0  0  0  0  0  0  0  0
   -1.0412    0.1517    0.7482 N   0  0  0  0  0  0  0  0  0  0  0  0
   -0.6079    1.5223    0.6467 C   0  0  2  0  0  0  0  0  0  0  0  0
    0.7274    1.6550    1.3778 C   0  0  0  0  0  0  0  0  0  0  0  0
    0.9436    1.1385    2.4723 O   0  0  0  0  0  0  0  0  0  0  0  0
   -1.6656    2.5301    1.1579 C   0  0  2  0  0  0  0  0  0  0  0  0
   -2.9635    2.4901    0.3210 C   0  0  0  0  0  0  0  0  0  0  0  0
   -1.0683    3.9426    1.2088 C   0  0  0  0  0  0  0  0  0  0  0  0
   -4.1142    3.2671    0.9479 C   0  0  0  0  0  0  0  0  0  0  0  0
   -1.9022   -0.1128    0.2753 H   0  0  0  0  0  0  0  0  0  0  0  0
   -0.4153    1.6979   -0.4194 H   0  0  0  0  0  0  0  0  0  0  0  0
   -1.9253    2.2544    2.1888 H   0  0  0  0  0  0  0  0  0  0  0  0
   -2.7748    2.9183   -0.6701 H   0  0  0  0  0  0  0  0  0  0  0  0
   -3.2847    1.4537    0.1628 H   0  0  0  0  0  0  0  0  0  0  0  0
   -0.7854    4.2820    0.2066 H   0  0  0  0  0  0  0  0  0  0  0  0
   -1.7919    4.6649    1.5989 H   0  0  0  0  0  0  0  0  0  0  0  0
   -0.1775    3.9793    1.8443 H   0  0  0  0  0  0  0  0  0  0  0  0
   -4.3581    2.8909    1.9455 H   0  0  0  0  0  0  0  0  0  0  0  0
   -5.0129    3.1677    0.3304 H   0  0  0  0  0  0  0  0  0  0  0  0
   -3.8737    4.3319    1.0256 H   0  0  0  0  0  0  0  0  0  0  0  0
    1.6531    2.3877    0.6487 N   0  0  0  0  0  0  0  0  0  0  0  0
    2.9999    2.6431    1.1064 C   0  0  2  0  0  0  0  0  0  0  0  0
    3.8825    2.8449   -0.1183 C   0  0  0  0  0  0  0  0  0  0  0  0
    3.5936    2.4121   -1.2320 O   0  0  0  0  0  0  0  0  0  0  0  0
    3.5177    1.5014    1.9672 C   0  0  0  0  0  0  0  0  0  0  0  0
    1.3701    2.7633   -0.2515 H   0  0  0  0  0  0  0  0  0  0  0  0
    2.9655    3.5700    1.6892 H   0  0  0  0  0  0  0  0  0  0  0  0
    3.5592    0.5642    1.4003 H   0  0  0  0  0  0  0  0  0  0  0  0
    4.5273    1.7092    2.3366 H   0  0  0  0  0  0  0  0  0  0  0  0
    2.8651    1.3382    2.8317 H   0  0  0  0  0  0  0  0  0  0  0  0
    5.0513    3.5280    0.1875 N   0  0  0  0  0  0  0  0  0  0  0  0
    6.0582    3.8322   -0.8022 C   0  0  0  0  0  0  0  0  0  0  0  0
    5.1993    3.8663    1.1337 H   0  0  0  0  0  0  0  0  0  0  0  0
    6.8118    3.0311   -0.8176 H   0  0  0  0  0  0  0  0  0  0  0  0
    5.5865    3.9108   -1.7928 H   0  0  0  0  0  0  0  0  0  0  0  0
    6.5432    4.7869   -0.5503 H   0  0  0  0  0  0  0  0  0  0  0  0
  1  3  1  0  0  0  0
  1  7  1  0  0  0  0
  1  2  2  0  0  0  0
 37 38  1  0  0  0  0
 38 46  1  0  0  0  0
 38 39  2  0  0  0  0
  8  9  1  0  0  0  0
  9 17  1  0  0  0  0
  9 10  2  0  0  0  0
 18 19  1  0  0  0  0
 19 36  1  0  0  0  0
 19 20  2  0  0  0  0
 22 24  1  0  0  0  0
 37 40  1  0  0  0  0
  8 11  1  0  0  0  0
 21 23  1  0  0  0  0
 46 47  1  0  0  0  0
 21 22  1  0  0  0  0
 36 37  1  0  0  0  0
  7  8  1  0  0  0  0
 18 21  1  0  0  0  0
 17 18  1  0  0  0  0
  3  4  1  0  0  0  0
  3  5  1  0  0  0  0
  3  6  1  0  0  0  0
 24 33  1  0  0  0  0
 24 34  1  0  0  0  0
 24 35  1  0  0  0  0
 40 43  1  0  0  0  0
 40 44  1  0  0  0  0
 40 45  1  0  0  0  0
 11 14  1  0  0  0  0
 11 15  1  0  0  0  0
 11 16  1  0  0  0  0
 23 30  1  0  0  0  0
 23 31  1  0  0  0  0
 23 32  1  0  0  0  0
 47 49  1  0  0  0  0
 47 50  1  0  0  0  0
 47 51  1  0  0  0  0
 22 28  1  0  0  0  0
 22 29  1  0  0  0  0
 37 42  1  0  0  0  0
  8 13  1  0  0  0  0
 18 26  1  0  0  0  0
 21 27  1  0  0  0  0
 46 48  1  0  0  0  0
  7 12  1  0  0  0  0
 36 41  1  0  0  0  0
 17 25  1  0  0  0  0
M  END
$$$$

  -OEChem-05262214473D

 51 50  0     1  0  0  0  0  0999 V2000
    1.3524   -3.0009    1.4091 C   0  0  0  0  0  0  0  0  0  0  0  0
    1.8758   -1.9880    0.9598 O   0  0  0  0  0  0  0  0  0  0  0  0
    2.2030   -4.1782    1.7536 C   0  0  0  0  0  0  0  0  0  0  0  0
    2.3264   -4.8705    0.9053 H   0  0  0  0  0  0  0  0  0  0  0  0
    3.2257   -3.8876    2.0432 H   0  0  0  0  0  0  0  0  0  0  0  0
    1.8327   -4.8004    2.5839 H   0  0  0  0  0  0  0  0  0  0  0  0
    0.0005   -3.1873    1.6465 N   0  0  0  0  0  0  0  0  0  0  0  0
   -0.9949   -2.1807    1.3864 C   0  0  2  0  0  0  0  0  0  0  0  0
   -0.3083   -0.8216    1.4164 C   0  0  0  0  0  0  0  0  0  0  0  0
    0.7533   -0.6191    2.0022 O   0  0  0  0  0  0  0  0  0  0  0  0
   -2.1232   -2.2423    2.4042 C   0  0  0  0  0  0  0  0  0  0  0  0
   -0.3048   -4.0823    2.0245 H   0  0  0  0  0  0  0  0  0  0  0  0
   -1.3830   -2.3724    0.3801 H   0  0  0  0  0  0  0  0  0  0  0  0
   -1.7534   -2.0527    3.4185 H   0  0  0  0  0  0  0  0  0  0  0  0
   -2.8936   -1.4947    2.1882 H   0  0  0  0  0  0  0  0  0  0  0  0
   -2.5964   -3.2301    2.4022 H   0  0  0  0  0  0  0  0  0  0  0  0
   -1.0412    0.1517    0.7482 N   0  0  0  0  0  0  0  0  0  0  0  0
   -0.6079    1.5223    0.6467 C   0  0  2  0  0  0  0  0  0  0  0  0
    0.7274    1.6550    1.3778 C   0  0  0  0  0  0  0  0  0  0  0  0
    1.0447    0.9374    2.3243 O   0  0  0  0  0  0  0  0  0  0  0  0
   -1.6656    2.5301    1.1579 C   0  0  2  0  0  0  0  0  0  0  0  0
   -2.9635    2.4901    0.3210 C   0  0  0  0  0  0  0  0  0  0  0  0
   -1.0683    3.9426    1.2088 C   0  0  0  0  0  0  0  0  0  0  0  0
   -4.1142    3.2671    0.9479 C   0  0  0  0  0  0  0  0  0  0  0  0
   -1.9022   -0.1128    0.2753 H   0  0  0  0  0  0  0  0  0  0  0  0
   -0.4153    1.6979   -0.4194 H   0  0  0  0  0  0  0  0  0  0  0  0
   -1.9253    2.2544    2.1888 H   0  0  0  0  0  0  0  0  0  0  0  0
   -2.7748    2.9183   -0.6701 H   0  0  0  0  0  0  0  0  0  0  0  0
   -3.2847    1.4537    0.1628 H   0  0  0  0  0  0  0  0  0  0  0  0
   -0.7854    4.2820    0.2066 H   0  0  0  0  0  0  0  0  0  0  0  0
   -1.7919    4.6649    1.5989 H   0  0  0  0  0  0  0  0  0  0  0  0
   -0.1775    3.9793    1.8443 H   0  0  0  0  0  0  0  0  0  0  0  0
   -4.3581    2.8909    1.9455 H   0  0  0  0  0  0  0  0  0  0  0  0
   -5.0129    3.1677    0.3304 H   0  0  0  0  0  0  0  0  0  0  0  0
   -3.8737    4.3319    1.0256 H   0  0  0  0  0  0  0  0  0  0  0  0
    1.5301    2.6438    0.8270 N   0  0  0  0  0  0  0  0  0  0  0  0
    2.8519    2.9580    1.3197 C   0  0  2  0  0  0  0  0  0  0  0  0
    3.6579    3.5398    0.1658 C   0  0  0  0  0  0  0  0  0  0  0  0
    3.3829    3.3353   -1.0147 O   0  0  0  0  0  0  0  0  0  0  0  0
    3.5355    1.7268    1.8938 C   0  0  0  0  0  0  0  0  0  0  0  0
    1.1707    3.1732    0.0382 H   0  0  0  0  0  0  0  0  0  0  0  0
    2.7267    3.7182    2.0984 H   0  0  0  0  0  0  0  0  0  0  0  0
    3.6695    0.9540    1.1282 H   0  0  0  0  0  0  0  0  0  0  0  0
    4.5253    1.9723    2.2925 H   0  0  0  0  0  0  0  0  0  0  0  0
    2.9397    1.2924    2.7039 H   0  0  0  0  0  0  0  0  0  0  0  0
    4.7457    4.2788    0.6094 N   0  0  0  0  0  0  0  0  0  0  0  0
    5.6713    4.9224   -0.2933 C   0  0  0  0  0  0  0  0  0  0  0  0
    4.8862    4.4117    1.6066 H   0  0  0  0  0  0  0  0  0  0  0  0
    6.5154    4.2471   -0.4968 H   0  0  0  0  0  0  0  0  0  0  0  0
    5.1575    5.1613   -1.2362 H   0  0  0  0  0  0  0  0  0  0  0  0
    6.0458    5.8495    0.1653 H   0  0  0  0  0  0  0  0  0  0  0  0
  1  3  1  0  0  0  0
  1  7  1  0  0  0  0
  1  2  2  0  0  0  0
 37 38  1  0  0  0  0
 38 46  1  0  0  0  0
 38 39  2  0  0  0  0
  8  9  1  0  0  0  0
  9 17  1  0  0  0  0
  9 10  2  0  0  0  0
 18 19  1  0  0  0  0
 19 36  1  0  0  0  0
 19 20  2  0  0  0  0
 22 24  1  0  0  0  0
 37 40  1  0  0  0  0
  8 11  1  0  0  0  0
 21 23  1  0  0  0  0
 46 47  1  0  0  0  0
 21 22  1  0  0  0  0
 36 37  1  0  0  0  0
  7  8  1  0  0  0  0
 18 21  1  0  0  0  0
 17 18  1  0  0  0  0
  3  4  1  0  0  0  0
  3  5  1  0  0  0  0
  3  6  1  0  0  0  0
 24 33  1  0  0  0  0
 24 34  1  0  0  0  0
 24 35  1  0  0  0  0
 40 43  1  0  0  0  0
 40 44  1  0  0  0  0
 40 45  1  0  0  0  0
 11 14  1  0  0  0  0
 11 15  1  0  0  0  0
 11 16  1  0  0  0  0
 23 30  1  0  0  0  0
 23 31  1  0  0  0  0
 23 32  1  0  0  0  0
 47 49  1  0  0  0  0
 47 50  1  0  0  0  0
 47 51  1  0  0  0  0
 22 28  1  0  0  0  0
 22 29  1  0  0  0  0
 37 42  1  0  0  0  0
  8 13  1  0  0  0  0
 18 26  1  0  0  0  0
 21 27  1  0  0  0  0
 46 48  1  0  0  0  0
  7 12  1  0  0  0  0
 36 41  1  0  0  0  0
 17 25  1  0  0  0  0
M  END
$$$$

  -OEChem-05262214473D

 51 50  0     1  0  0  0  0  0999 V2000
    1.3524   -3.0009    1.4091 C   0  0  0  0  0  0  0  0  0  0  0  0
    1.8758   -1.9880    0.9598 O   0  0  0  0  0  0  0  0  0  0  0  0
    2.2030   -4.1782    1.7536 C   0  0  0  0  0  0  0  0  0  0  0  0
    2.3264   -4.8705    0.9053 H   0  0  0  0  0  0  0  0  0  0  0  0
    3.2257   -3.8876    2.0432 H   0  0  0  0  0  0  0  0  0  0  0  0
    1.8327   -4.8004    2.5839 H   0  0  0  0  0  0  0  0  0  0  0  0
    0.0005   -3.1873    1.6465 N   0  0  0  0  0  0  0  0  0  0  0  0
   -0.9949   -2.1807    1.3864 C   0  0  2  0  0  0  0  0  0  0  0  0
   -0.3083   -0.8216    1.4164 C   0  0  0  0  0  0  0  0  0  0  0  0
    0.7533   -0.6191    2.0022 O   0  0  0  0  0  0  0  0  0  0  0  0
   -2.1232   -2.2423    2.4042 C   0  0  0  0  0  0  0  0  0  0  0  0
   -0.3048   -4.0823    2.0245 H   0  0  0  0  0  0  0  0  0  0  0  0
   -1.3830   -2.3724    0.3801 H   0  0  0  0  0  0  0  0  0  0  0  0
   -1.7534   -2.0527    3.4185 H   0  0  0  0  0  0  0  0  0  0  0  0
   -2.8936   -1.4947    2.1882 H   0  0  0  0  0  0  0  0  0  0  0  0
   -2.5964   -3.2301    2.4022 H   0  0  0  0  0  0  0  0  0  0  0  0
   -1.0412    0.1517    0.7482 N   0  0  0  0  0  0  0  0  0  0  0  0
   -0.6079    1.5223    0.6467 C   0  0  2  0  0  0  0  0  0  0  0  0
    0.7274    1.6550    1.3778 C   0  0  0  0  0  0  0  0  0  0  0  0
    1.1639    0.7890    2.1335 O   0  0  0  0  0  0  0  0  0  0  0  0
   -1.6656    2.5301    1.1579 C   0  0  2  0  0  0  0  0  0  0  0  0
   -2.9635    2.4901    0.3210 C   0  0  0  0  0  0  0  0  0  0  0  0
   -1.0683    3.9426    1.2088 C   0  0  0  0  0  0  0  0  0  0  0  0
   -4.1142    3.2671    0.9479 C   0  0  0  0  0  0  0  0  0  0  0  0
   -1.9022   -0.1128    0.2753 H   0  0  0  0  0  0  0  0  0  0  0  0
   -0.4153    1.6979   -0.4194 H   0  0  0  0  0  0  0  0  0  0  0  0
   -1.9253    2.2544    2.1888 H   0  0  0  0  0  0  0  0  0  0  0  0
   -2.7748    2.9183   -0.6701 H   0  0  0  0  0  0  0  0  0  0  0  0
   -3.2847    1.4537    0.1628 H   0  0  0  0  0  0  0  0  0  0  0  0
   -0.7854    4.2820    0.2066 H   0  0  0  0  0  0  0  0  0  0  0  0
   -1.7919    4.6649    1.5989 H   0  0  0  0  0  0  0  0  0  0  0  0
   -0.1775    3.9793    1.8443 H   0  0  0  0  0  0  0  0  0  0  0  0
   -4.3581    2.8909    1.9455 H   0  0  0  0  0  0  0  0  0  0  0  0
   -5.0129    3.1677    0.3304 H   0  0  0  0  0  0  0  0  0  0  0  0
   -3.8737    4.3319    1.0256 H   0  0  0  0  0  0  0  0  0  0  0  0
    1.3835    2.8357    1.0599 N   0  0  0  0  0  0  0  0  0  0  0  0
    2.6746    3.1956    1.6003 C   0  0  2  0  0  0  0  0  0  0  0  0
    3.3612    4.1189    0.6025 C   0  0  0  0  0  0  0  0  0  0  0  0
    3.0700    4.1519   -0.5913 O   0  0  0  0  0  0  0  0  0  0  0  0
    3.5231    1.9634    1.8735 C   0  0  0  0  0  0  0  0  0  0  0  0
    0.9339    3.4790    0.4153 H   0  0  0  0  0  0  0  0  0  0  0  0
    2.4869    3.7392    2.5326 H   0  0  0  0  0  0  0  0  0  0  0  0
    3.7216    1.4057    0.9510 H   0  0  0  0  0  0  0  0  0  0  0  0
    4.4899    2.2361    2.3094 H   0  0  0  0  0  0  0  0  0  0  0  0
    3.0145    1.2863    2.5683 H   0  0  0  0  0  0  0  0  0  0  0  0
    4.3670    4.8707    1.1937 N   0  0  0  0  0  0  0  0  0  0  0  0
    5.1739    5.8125    0.4535 C   0  0  0  0  0  0  0  0  0  0  0  0
    4.5269    4.7928    2.1937 H   0  0  0  0  0  0  0  0  0  0  0  0
    6.0857    5.3124    0.0948 H   0  0  0  0  0  0  0  0  0  0  0  0
    4.6007    6.1903   -0.4060 H   0  0  0  0  0  0  0  0  0  0  0  0
    5.4499    6.6524    1.1080 H   0  0  0  0  0  0  0  0  0  0  0  0
  1  3  1  0  0  0  0
  1  7  1  0  0  0  0
  1  2  2  0  0  0  0
 37 38  1  0  0  0  0
 38 46  1  0  0  0  0
 38 39  2  0  0  0  0
  8  9  1  0  0  0  0
  9 17  1  0  0  0  0
  9 10  2  0  0  0  0
 18 19  1  0  0  0  0
 19 36  1  0  0  0  0
 19 20  2  0  0  0  0
 22 24  1  0  0  0  0
 37 40  1  0  0  0  0
  8 11  1  0  0  0  0
 21 23  1  0  0  0  0
 46 47  1  0  0  0  0
 21 22  1  0  0  0  0
 36 37  1  0  0  0  0
  7  8  1  0  0  0  0
 18 21  1  0  0  0  0
 17 18  1  0  0  0  0
  3  4  1  0  0  0  0
  3  5  1  0  0  0  0
  3  6  1  0  0  0  0
 24 33  1  0  0  0  0
 24 34  1  0  0  0  0
 24 35  1  0  0  0  0
 40 43  1  0  0  0  0
 40 44  1  0  0  0  0
 40 45  1  0  0  0  0
 11 14  1  0  0  0  0
 11 15  1  0  0  0  0
 11 16  1  0  0  0  0
 23 30  1  0  0  0  0
 23 31  1  0  0  0  0
 23 32  1  0  0  0  0
 47 49  1  0  0  0  0
 47 50  1  0  0  0  0
 47 51  1  0  0  0  0
 22 28  1  0  0  0  0
 22 29  1  0  0  0  0
 37 42  1  0  0  0  0
  8 13  1  0  0  0  0
 18 26  1  0  0  0  0
 21 27  1  0  0  0  0
 46 48  1  0  0  0  0
  7 12  1  0  0  0  0
 36 41  1  0  0  0  0
 17 25  1  0  0  0  0
M  END
$$$$

  -OEChem-05262214473D

 51 50  0     1  0  0  0  0  0999 V2000
    1.3524   -3.0009    1.4091 C   0  0  0  0  0  0  0  0  0  0  0  0
    1.8758   -1.9880    0.9598 O   0  0  0  0  0  0  0  0  0  0  0  0
    2.2030   -4.1782    1.7536 C   0  0  0  0  0  0  0  0  0  0  0  0
    2.3264   -4.8705    0.9053 H   0  0  0  0  0  0  0  0  0  0  0  0
    3.2257   -3.8876    2.0432 H   0  0  0  0  0  0  0  0  0  0  0  0
    1.8327   -4.8004    2.5839 H   0  0  0  0  0  0  0  0  0  0  0  0
    0.0005   -3.1873    1.6465 N   0  0  0  0  0  0  0  0  0  0  0  0
   -0.9949   -2.1807    1.3864 C   0  0  2  0  0  0  0  0  0  0  0  0
   -0.3083   -0.8216    1.4164 C   0  0  0  0  0  0  0  0  0  0  0  0
    0.7533   -0.6191    2.0022 O   0  0  0  0  0  0  0  0  0  0  0  0
   -2.1232   -2.2423    2.4042 C   0  0  0  0  0  0  0  0  0  0  0  0
   -0.3048   -4.0823    2.0245 H   0  0  0  0  0  0  0  0  0  0  0  0
   -1.3830   -2.3724    0.3801 H   0  0  0  0  0  0  0  0  0  0  0  0
   -1.7534   -2.0527    3.4185 H   0  0  0  0  0  0  0  0  0  0  0  0
   -2.8936   -1.4947    2.1882 H   0  0  0  0  0  0  0  0  0  0  0  0
   -2.5964   -3.2301    2.4022 H   0  0  0  0  0  0  0  0  0  0  0  0
   -1.0412    0.1517    0.7482 N   0  0  0  0  0  0  0  0  0  0  0  0
   -0.6079    1.5223    0.6467 C   0  0  2  0  0  0  0  0  0  0  0  0
    0.8692    1.5847    1.0334 C   0  0  0  0  0  0  0  0  0  0  0  0
    1.5221    0.5888    1.3388 O   0  0  0  0  0  0  0  0  0  0  0  0
   -1.4792    2.4948    1.4778 C   0  0  2  0  0  0  0  0  0  0  0  0
   -2.9434    2.5330    0.9867 C   0  0  0  0  0  0  0  0  0  0  0  0
   -0.8484    3.8936    1.4863 C   0  0  0  0  0  0  0  0  0  0  0  0
   -3.8828    3.2670    1.9351 C   0  0  0  0  0  0  0  0  0  0  0  0
   -1.9022   -0.1128    0.2753 H   0  0  0  0  0  0  0  0  0  0  0  0
   -0.6781    1.7811   -0.4175 H   0  0  0  0  0  0  0  0  0  0  0  0
   -1.4855    2.1397    2.5170 H   0  0  0  0  0  0  0  0  0  0  0  0
   -2.9919    3.0377    0.0150 H   0  0  0  0  0  0  0  0  0  0  0  0
   -3.3225    1.5154    0.8349 H   0  0  0  0  0  0  0  0  0  0  0  0
   -0.8108    4.3098    0.4738 H   0  0  0  0  0  0  0  0  0  0  0  0
   -1.4336    4.5884    2.0964 H   0  0  0  0  0  0  0  0  0  0  0  0
    0.1718    3.8717    1.8830 H   0  0  0  0  0  0  0  0  0  0  0  0
   -3.8848    2.8142    2.9307 H   0  0  0  0  0  0  0  0  0  0  0  0
   -4.9080    3.2251    1.5529 H   0  0  0  0  0  0  0  0  0  0  0  0
   -3.6009    4.3201    2.0312 H   0  0  0  0  0  0  0  0  0  0  0  0
    1.3747    2.8751    0.9641 N   0  0  0  0  0  0  0  0  0  0  0  0
    2.7502    3.2048    1.2603 C   0  0  2  0  0  0  0  0  0  0  0  0
    3.1115    4.4610    0.4787 C   0  0  0  0  0  0  0  0  0  0  0  0
    2.5097    4.8187   -0.5317 O   0  0  0  0  0  0  0  0  0  0  0  0
    3.6829    2.0571    0.9062 C   0  0  0  0  0  0  0  0  0  0  0  0
    0.7466    3.6253    0.6915 H   0  0  0  0  0  0  0  0  0  0  0  0
    2.8008    3.4150    2.3343 H   0  0  0  0  0  0  0  0  0  0  0  0
    3.6459    1.8320   -0.1660 H   0  0  0  0  0  0  0  0  0  0  0  0
    4.7212    2.2976    1.1577 H   0  0  0  0  0  0  0  0  0  0  0  0
    3.4032    1.1465    1.4468 H   0  0  0  0  0  0  0  0  0  0  0  0
    4.2124    5.1123    1.0174 N   0  0  0  0  0  0  0  0  0  0  0  0
    4.7581    6.3222    0.4481 C   0  0  0  0  0  0  0  0  0  0  0  0
    4.6373    4.7552    1.8681 H   0  0  0  0  0  0  0  0  0  0  0  0
    5.5568    6.0656   -0.2633 H   0  0  0  0  0  0  0  0  0  0  0  0
    3.9625    6.8716   -0.0767 H   0  0  0  0  0  0  0  0  0  0  0  0
    5.1703    6.9515    1.2506 H   0  0  0  0  0  0  0  0  0  0  0  0
  1  3  1  0  0  0  0
  1  7  1  0  0  0  0
  1  2  2  0  0  0  0
 37 38  1  0  0  0  0
 38 46  1  0  0  0  0
 38 39  2  0  0  0  0
  8  9  1  0  0  0  0
  9 17  1  0  0  0  0
  9 10  2  0  0  0  0
 18 19  1  0  0  0  0
 19 36  1  0  0  0  0
 19 20  2  0  0  0  0
 22 24  1  0  0  0  0
 37 40  1  0  0  0  0
  8 11  1  0  0  0  0
 21 23  1  0  0  0  0
 46 47  1  0  0  0  0
 21 22  1  0  0  0  0
 36 37  1  0  0  0  0
  7  8  1  0  0  0  0
 18 21  1  0  0  0  0
 17 18  1  0  0  0  0
  3  4  1  0  0  0  0
  3  5  1  0  0  0  0
  3  6  1  0  0  0  0
 24 33  1  0  0  0  0
 24 34  1  0  0  0  0
 24 35  1  0  0  0  0
 40 43  1  0  0  0  0
 40 44  1  0  0  0  0
 40 45  1  0  0  0  0
 11 14  1  0  0  0  0
 11 15  1  0  0  0  0
 11 16  1  0  0  0  0
 23 30  1  0  0  0  0
 23 31  1  0  0  0  0
 23 32  1  0  0  0  0
 47 49  1  0  0  0  0
 47 50  1  0  0  0  0
 47 51  1  0  0  0  0
 22 28  1  0  0  0  0
 22 29  1  0  0  0  0
 37 42  1  0  0  0  0
  8 13  1  0  0  0  0
 18 26  1  0  0  0  0
 21 27  1  0  0  0  0
 46 48  1  0  0  0  0
  7 12  1  0  0  0  0
 36 41  1  0  0  0  0
 17 25  1  0  0  0  0
M  END
$$$$

  -OEChem-05262214473D

 51 50  0     1  0  0  0  0  0999 V2000
    1.3524   -3.0009    1.4091 C   0  0  0  0  0  0  0  0  0  0  0  0
    1.8758   -1.9880    0.9598 O   0  0  0  0  0  0  0  0  0  0  0  0
    2.2030   -4.1782    1.7536 C   0  0  0  0  0  0  0  0  0  0  0  0
    2.3264   -4.8705    0.9053 H   0  0  0  0  0  0  0  0  0  0  0  0
    3.2257   -3.8876    2.0432 H   0  0  0  0  0  0  0  0  0  0  0  0
    1.8327   -4.8004    2.5839 H   0  0  0  0  0  0  0  0  0  0  0  0
    0.0005   -3.1873    1.6465 N   0  0  0  0  0  0  0  0  0  0  0  0
   -0.9949   -2.1807    1.3864 C   0  0  2  0  0  0  0  0  0  0  0  0
   -0.3083   -0.8216    1.4164 C   0  0  0  0  0  0  0  0  0  0  0  0
    0.7533   -0.6191    2.0022 O   0  0  0  0  0  0  0  0  0  0  0  0
   -2.1232   -2.2423    2.4042 C   0  0  0  0  0  0  0  0  0  0  0  0
   -0.3048   -4.0823    2.0245 H   0  0  0  0  0  0  0  0  0  0  0  0
   -1.3830   -2.3724    0.3801 H   0  0  0  0  0  0  0  0  0  0  0  0
   -1.7534   -2.0527    3.4185 H   0  0  0  0  0  0  0  0  0  0  0  0
   -2.8936   -1.4947    2.1882 H   0  0  0  0  0  0  0  0  0  0  0  0
   -2.5964   -3.2301    2.4022 H   0  0  0  0  0  0  0  0  0  0  0  0
   -1.0412    0.1517    0.7482 N   0  0  0  0  0  0  0  0  0  0  0  0
   -0.6079    1.5223    0.6467 C   0  0  2  0  0  0  0  0  0  0  0  0
    0.8692    1.5847    1.0334 C   0  0  0  0  0  0  0  0  0  0  0  0
    1.5903    0.5900    1.0781 O   0  0  0  0  0  0  0  0  0  0  0  0
   -1.4792    2.4948    1.4778 C   0  0  2  0  0  0  0  0  0  0  0  0
   -2.9434    2.5330    0.9867 C   0  0  0  0  0  0  0  0  0  0  0  0
   -0.8484    3.8936    1.4863 C   0  0  0  0  0  0  0  0  0  0  0  0
   -3.8828    3.2670    1.9351 C   0  0  0  0  0  0  0  0  0  0  0  0
   -1.9022   -0.1128    0.2753 H   0  0  0  0  0  0  0  0  0  0  0  0
   -0.6781    1.7811   -0.4175 H   0  0  0  0  0  0  0  0  0  0  0  0
   -1.4855    2.1397    2.5170 H   0  0  0  0  0  0  0  0  0  0  0  0
   -2.9919    3.0377    0.0150 H   0  0  0  0  0  0  0  0  0  0  0  0
   -3.3225    1.5154    0.8349 H   0  0  0  0  0  0  0  0  0  0  0  0
   -0.8108    4.3098    0.4738 H   0  0  0  0  0  0  0  0  0  0  0  0
   -1.4336    4.5884    2.0964 H   0  0  0  0  0  0  0  0  0  0  0  0
    0.1718    3.8717    1.8830 H   0  0  0  0  0  0  0  0  0  0  0  0
   -3.8848    2.8142    2.9307 H   0  0  0  0  0  0  0  0  0  0  0  0
   -4.9080    3.2251    1.5529 H   0  0  0  0  0  0  0  0  0  0  0  0
   -3.6009    4.3201    2.0312 H   0  0  0  0  0  0  0  0  0  0  0  0
    1.2894    2.8823    1.2884 N   0  0  0  0  0  0  0  0  0  0  0  0
    2.6463    3.2187    1.6548 C   0  0  2  0  0  0  0  0  0  0  0  0
    2.9115    4.6516    1.2120 C   0  0  0  0  0  0  0  0  0  0  0  0
    2.2690    5.2093    0.3248 O   0  0  0  0  0  0  0  0  0  0  0  0
    3.6439    2.2609    1.0223 C   0  0  0  0  0  0  0  0  0  0  0  0
    0.6095    3.6331    1.2139 H   0  0  0  0  0  0  0  0  0  0  0  0
    2.7036    3.1569    2.7470 H   0  0  0  0  0  0  0  0  0  0  0  0
    3.6011    2.3088   -0.0719 H   0  0  0  0  0  0  0  0  0  0  0  0
    4.6692    2.4997    1.3237 H   0  0  0  0  0  0  0  0  0  0  0  0
    3.4334    1.2275    1.3182 H   0  0  0  0  0  0  0  0  0  0  0  0
    3.9783    5.2197    1.8942 N   0  0  0  0  0  0  0  0  0  0  0  0
    4.4344    6.5672    1.6450 C   0  0  0  0  0  0  0  0  0  0  0  0
    4.4413    4.6906    2.6274 H   0  0  0  0  0  0  0  0  0  0  0  0
    5.2344    6.5504    0.8902 H   0  0  0  0  0  0  0  0  0  0  0  0
    3.5955    7.1758    1.2764 H   0  0  0  0  0  0  0  0  0  0  0  0
    4.8205    7.0021    2.5787 H   0  0  0  0  0  0  0  0  0  0  0  0
  1  3  1  0  0  0  0
  1  7  1  0  0  0  0
  1  2  2  0  0  0  0
 37 38  1  0  0  0  0
 38 46  1  0  0  0  0
 38 39  2  0  0  0  0
  8  9  1  0  0  0  0
  9 17  1  0  0  0  0
  9 10  2  0  0  0  0
 18 19  1  0  0  0  0
 19 36  1  0  0  0  0
 19 20  2  0  0  0  0
 22 24  1  0  0  0  0
 37 40  1  0  0  0  0
  8 11  1  0  0  0  0
 21 23  1  0  0  0  0
 46 47  1  0  0  0  0
 21 22  1  0  0  0  0
 36 37  1  0  0  0  0
  7  8  1  0  0  0  0
 18 21  1  0  0  0  0
 17 18  1  0  0  0  0
  3  4  1  0  0  0  0
  3  5  1  0  0  0  0
  3  6  1  0  0  0  0
 24 33  1  0  0  0  0
 24 34  1  0  0  0  0
 24 35  1  0  0  0  0
 40 43  1  0  0  0  0
 40 44  1  0  0  0  0
 40 45  1  0  0  0  0
 11 14  1  0  0  0  0
 11 15  1  0  0  0  0
 11 16  1  0  0  0  0
 23 30  1  0  0  0  0
 23 31  1  0  0  0  0
 23 32  1  0  0  0  0
 47 49  1  0  0  0  0
 47 50  1  0  0  0  0
 47 51  1  0  0  0  0
 22 28  1  0  0  0  0
 22 29  1  0  0  0  0
 37 42  1  0  0  0  0
  8 13  1  0  0  0  0
 18 26  1  0  0  0  0
 21 27  1  0  0  0  0
 46 48  1  0  0  0  0
  7 12  1  0  0  0  0
 36 41  1  0  0  0  0
 17 25  1  0  0  0  0
M  END
$$$$

  -OEChem-05262214473D

 51 50  0     1  0  0  0  0  0999 V2000
    1.3524   -3.0009    1.4091 C   0  0  0  0  0  0  0  0  0  0  0  0
    1.8758   -1.9880    0.9598 O   0  0  0  0  0  0  0  0  0  0  0  0
    2.2030   -4.1782    1.7536 C   0  0  0  0  0  0  0  0  0  0  0  0
    2.3264   -4.8705    0.9053 H   0  0  0  0  0  0  0  0  0  0  0  0
    3.2257   -3.8876    2.0432 H   0  0  0  0  0  0  0  0  0  0  0  0
    1.8327   -4.8004    2.5839 H   0  0  0  0  0  0  0  0  0  0  0  0
    0.0005   -3.1873    1.6465 N   0  0  0  0  0  0  0  0  0  0  0  0
   -0.9949   -2.1807    1.3864 C   0  0  2  0  0  0  0  0  0  0  0  0
   -0.3083   -0.8216    1.4164 C   0  0  0  0  0  0  0  0  0  0  0  0
    0.7533   -0.6191    2.0022 O   0  0  0  0  0  0  0  0  0  0  0  0
   -2.1232   -2.2423    2.4042 C   0  0  0  0  0  0  0  0  0  0  0  0
   -0.3048   -4.0823    2.0245 H   0  0  0  0  0  0  0  0  0  0  0  0
   -1.3830   -2.3724    0.3801 H   0  0  0  0  0  0  0  0  0  0  0  0
   -1.7534   -2.0527    3.4185 H   0  0  0  0  0  0  0  0  0  0  0  0
   -2.8936   -1.4947    2.1882 H   0  0  0  0  0  0  0  0  0  0  0  0
   -2.5964   -3.2301    2.4022 H   0  0  0  0  0  0  0  0  0  0  0  0
   -1.0412    0.1517    0.7482 N   0  0  0  0  0  0  0  0  0  0  0  0
   -0.6079    1.5223    0.6467 C   0  0  2  0  0  0  0  0  0  0  0  0
    0.8692    1.5847    1.0334 C   0  0  0  0  0  0  0  0  0  0  0  0
    1.6533    0.6609    0.8259 O   0  0  0  0  0  0  0  0  0  0  0  0
   -1.4792    2.4948    1.4778 C   0  0  2  0  0  0  0  0  0  0  0  0
   -2.9434    2.5330    0.9867 C   0  0  0  0  0  0  0  0  0  0  0  0
   -0.8484    3.8936    1.4863 C   0  0  0  0  0  0  0  0  0  0  0  0
   -3.8828    3.2670    1.9351 C   0  0  0  0  0  0  0  0  0  0  0  0
   -1.9022   -0.1128    0.2753 H   0  0  0  0  0  0  0  0  0  0  0  0
   -0.6781    1.7811   -0.4175 H   0  0  0  0  0  0  0  0  0  0  0  0
   -1.4855    2.1397    2.5170 H   0  0  0  0  0  0  0  0  0  0  0  0
   -2.9919    3.0377    0.0150 H   0  0  0  0  0  0  0  0  0  0  0  0
   -3.3225    1.5154    0.8349 H   0  0  0  0  0  0  0  0  0  0  0  0
   -0.8108    4.3098    0.4738 H   0  0  0  0  0  0  0  0  0  0  0  0
   -1.4336    4.5884    2.0964 H   0  0  0  0  0  0  0  0  0  0  0  0
    0.1718    3.8717    1.8830 H   0  0  0  0  0  0  0  0  0  0  0  0
   -3.8848    2.8142    2.9307 H   0  0  0  0  0  0  0  0  0  0  0  0
   -4.9080    3.2251    1.5529 H   0  0  0  0  0  0  0  0  0  0  0  0
   -3.6009    4.3201    2.0312 H   0  0  0  0  0  0  0  0  0  0  0  0
    1.2101    2.8025    1.6045 N   0  0  0  0  0  0  0  0  0  0  0  0
    2.5493    3.1267    2.0404 C   0  0  2  0  0  0  0  0  0  0  0  0
    2.7136    4.6391    1.9701 C   0  0  0  0  0  0  0  0  0  0  0  0
    2.0200    5.3566    1.2523 O   0  0  0  0  0  0  0  0  0  0  0  0
    3.5941    2.4261    1.1859 C   0  0  0  0  0  0  0  0  0  0  0  0
    0.4821    3.5010    1.7219 H   0  0  0  0  0  0  0  0  0  0  0  0
    2.6311    2.7979    3.0821 H   0  0  0  0  0  0  0  0  0  0  0  0
    3.5277    2.7429    0.1386 H   0  0  0  0  0  0  0  0  0  0  0  0
    4.6075    2.6500    1.5352 H   0  0  0  0  0  0  0  0  0  0  0  0
    3.4560    1.3399    1.2139 H   0  0  0  0  0  0  0  0  0  0  0  0
    3.7544    5.0888    2.7705 N   0  0  0  0  0  0  0  0  0  0  0  0
    4.1184    6.4832    2.8658 C   0  0  0  0  0  0  0  0  0  0  0  0
    4.2642    4.4255    3.3467 H   0  0  0  0  0  0  0  0  0  0  0  0
    4.9034    6.7090    2.1291 H   0  0  0  0  0  0  0  0  0  0  0  0
    3.2354    7.1072    2.6633 H   0  0  0  0  0  0  0  0  0  0  0  0
    4.4933    6.6959    3.8778 H   0  0  0  0  0  0  0  0  0  0  0  0
  1  3  1  0  0  0  0
  1  7  1  0  0  0  0
  1  2  2  0  0  0  0
 37 38  1  0  0  0  0
 38 46  1  0  0  0  0
 38 39  2  0  0  0  0
  8  9  1  0  0  0  0
  9 17  1  0  0  0  0
  9 10  2  0  0  0  0
 18 19  1  0  0  0  0
 19 36  1  0  0  0  0
 19 20  2  0  0  0  0
 22 24  1  0  0  0  0
 37 40  1  0  0  0  0
  8 11  1  0  0  0  0
 21 23  1  0  0  0  0
 46 47  1  0  0  0  0
 21 22  1  0  0  0  0
 36 37  1  0  0  0  0
  7  8  1  0  0  0  0
 18 21  1  0  0  0  0
 17 18  1  0  0  0  0
  3  4  1  0  0  0  0
  3  5  1  0  0  0  0
  3  6  1  0  0  0  0
 24 33  1  0  0  0  0
 24 34  1  0  0  0  0
 24 35  1  0  0  0  0
 40 43  1  0  0  0  0
 40 44  1  0  0  0  0
 40 45  1  0  0  0  0
 11 14  1  0  0  0  0
 11 15  1  0  0  0  0
 11 16  1  0  0  0  0
 23 30  1  0  0  0  0
 23 31  1  0  0  0  0
 23 32  1  0  0  0  0
 47 49  1  0  0  0  0
 47 50  1  0  0  0  0
 47 51  1  0  0  0  0
 22 28  1  0  0  0  0
 22 29  1  0  0  0  0
 37 42  1  0  0  0  0
  8 13  1  0  0  0  0
 18 26  1  0  0  0  0
 21 27  1  0  0  0  0
 46 48  1  0  0  0  0
  7 12  1  0  0  0  0
 36 41  1  0  0  0  0
 17 25  1  0  0  0  0
M  END
$$$$

  -OEChem-05262214473D

 51 50  0     1  0  0  0  0  0999 V2000
    1.3524   -3.0009    1.4091 C   0  0  0  0  0  0  0  0  0  0  0  0
    1.8758   -1.9880    0.9598 O   0  0  0  0  0  0  0  0  0  0  0  0
    2.2030   -4.1782    1.7536 C   0  0  0  0  0  0  0  0  0  0  0  0
    2.3264   -4.8705    0.9053 H   0  0  0  0  0  0  0  0  0  0  0  0
    3.2257   -3.8876    2.0432 H   0  0  0  0  0  0  0  0  0  0  0  0
    1.8327   -4.8004    2.5839 H   0  0  0  0  0  0  0  0  0  0  0  0
    0.0005   -3.1873    1.6465 N   0  0  0  0  0  0  0  0  0  0  0  0
   -0.9949   -2.1807    1.3864 C   0  0  2  0  0  0  0  0  0  0  0  0
   -0.3083   -0.8216    1.4164 C   0  0  0  0  0  0  0  0  0  0  0  0
    0.7533   -0.6191    2.0022 O   0  0  0  0  0  0  0  0  0  0  0  0
   -2.1232   -2.2423    2.4042 C   0  0  0  0  0  0  0  0  0  0  0  0
   -0.3048   -4.0823    2.0245 H   0  0  0  0  0  0  0  0  0  0  0  0
   -1.3830   -2.3724    0.3801 H   0  0  0  0  0  0  0  0  0  0  0  0
   -1.7534   -2.0527    3.4185 H   0  0  0  0  0  0  0  0  0  0  0  0
   -2.8936   -1.4947    2.1882 H   0  0  0  0  0  0  0  0  0  0  0  0
   -2.5964   -3.2301    2.4022 H   0  0  0  0  0  0  0  0  0  0  0  0
   -1.0412    0.1517    0.7482 N   0  0  0  0  0  0  0  0  0  0  0  0
   -0.6079    1.5223    0.6467 C   0  0  2  0  0  0  0  0  0  0  0  0
    0.8692    1.5847    1.0334 C   0  0  0  0  0  0  0  0  0  0  0  0
    1.7069    0.7965    0.5993 O   0  0  0  0  0  0  0  0  0  0  0  0
   -1.4792    2.4948    1.4778 C   0  0  2  0  0  0  0  0  0  0  0  0
   -2.9434    2.5330    0.9867 C   0  0  0  0  0  0  0  0  0  0  0  0
   -0.8484    3.8936    1.4863 C   0  0  0  0  0  0  0  0  0  0  0  0
   -3.8828    3.2670    1.9351 C   0  0  0  0  0  0  0  0  0  0  0  0
   -1.9022   -0.1128    0.2753 H   0  0  0  0  0  0  0  0  0  0  0  0
   -0.6781    1.7811   -0.4175 H   0  0  0  0  0  0  0  0  0  0  0  0
   -1.4855    2.1397    2.5170 H   0  0  0  0  0  0  0  0  0  0  0  0
   -2.9919    3.0377    0.0150 H   0  0  0  0  0  0  0  0  0  0  0  0
   -3.3225    1.5154    0.8349 H   0  0  0  0  0  0  0  0  0  0  0  0
   -0.8108    4.3098    0.4738 H   0  0  0  0  0  0  0  0  0  0  0  0
   -1.4336    4.5884    2.0964 H   0  0  0  0  0  0  0  0  0  0  0  0
    0.1718    3.8717    1.8830 H   0  0  0  0  0  0  0  0  0  0  0  0
   -3.8848    2.8142    2.9307 H   0  0  0  0  0  0  0  0  0  0  0  0
   -4.9080    3.2251    1.5529 H   0  0  0  0  0  0  0  0  0  0  0  0
   -3.6009    4.3201    2.0312 H   0  0  0  0  0  0  0  0  0  0  0  0
    1.1420    2.6412    1.8906 N   0  0  0  0  0  0  0  0  0  0  0  0
    2.4656    2.9349    2.3908 C   0  0  2  0  0  0  0  0  0  0  0  0
    2.5313    4.4245    2.7013 C   0  0  0  0  0  0  0  0  0  0  0  0
    1.7796    5.2505    2.1877 O   0  0  0  0  0  0  0  0  0  0  0  0
    3.5369    2.5415    1.3857 C   0  0  0  0  0  0  0  0  0  0  0  0
    0.3730    3.2379    2.1809 H   0  0  0  0  0  0  0  0  0  0  0  0
    2.5880    2.3625    3.3168 H   0  0  0  0  0  0  0  0  0  0  0  0
    3.4305    3.1047    0.4514 H   0  0  0  0  0  0  0  0  0  0  0  0
    4.5402    2.7383    1.7778 H   0  0  0  0  0  0  0  0  0  0  0  0
    3.4693    1.4760    1.1410 H   0  0  0  0  0  0  0  0  0  0  0  0
    3.5560    4.7284    3.5866 N   0  0  0  0  0  0  0  0  0  0  0  0
    3.8315    6.0760    4.0273 C   0  0  0  0  0  0  0  0  0  0  0  0
    4.1181    3.9778    3.9770 H   0  0  0  0  0  0  0  0  0  0  0  0
    4.5864    6.5305    3.3689 H   0  0  0  0  0  0  0  0  0  0  0  0
    2.9066    6.6703    3.9895 H   0  0  0  0  0  0  0  0  0  0  0  0
    4.2111    6.0536    5.0595 H   0  0  0  0  0  0  0  0  0  0  0  0
  1  3  1  0  0  0  0
  1  7  1  0  0  0  0
  1  2  2  0  0  0  0
 37 38  1  0  0  0  0
 38 46  1  0  0  0  0
 38 39  2  0  0  0  0
  8  9  1  0  0  0  0
  9 17  1  0  0  0  0
  9 10  2  0  0  0  0
 18 19  1  0  0  0  0
 19 36  1  0  0  0  0
 19 20  2  0  0  0  0
 22 24  1  0  0  0  0
 37 40  1  0  0  0  0
  8 11  1  0  0  0  0
 21 23  1  0  0  0  0
 46 47  1  0  0  0  0
 21 22  1  0  0  0  0
 36 37  1  0  0  0  0
  7  8  1  0  0  0  0
 18 21  1  0  0  0  0
 17 18  1  0  0  0  0
  3  4  1  0  0  0  0
  3  5  1  0  0  0  0
  3  6  1  0  0  0  0
 24 33  1  0  0  0  0
 24 34  1  0  0  0  0
 24 35  1  0  0  0  0
 40 43  1  0  0  0  0
 40 44  1  0  0  0  0
 40 45  1  0  0  0  0
 11 14  1  0  0  0  0
 11 15  1  0  0  0  0
 11 16  1  0  0  0  0
 23 30  1  0  0  0  0
 23 31  1  0  0  0  0
 23 32  1  0  0  0  0
 47 49  1  0  0  0  0
 47 50  1  0  0  0  0
 47 51  1  0  0  0  0
 22 28  1  0  0  0  0
 22 29  1  0  0  0  0
 37 42  1  0  0  0  0
  8 13  1  0  0  0  0
 18 26  1  0  0  0  0
 21 27  1  0  0  0  0
 46 48  1  0  0  0  0
  7 12  1  0  0  0  0
 36 41  1  0  0  0  0
 17 25  1  0  0  0  0
M  END
$$$$

  -OEChem-05262214473D

 51 50  0     1  0  0  0  0  0999 V2000
    1.3524   -3.0009    1.4091 C   0  0  0  0  0  0  0  0  0  0  0  0
    1.8758   -1.9880    0.9598 O   0  0  0  0  0  0  0  0  0  0  0  0
    2.2030   -4.1782    1.7536 C   0  0  0  0  0  0  0  0  0  0  0  0
    2.3264   -4.8705    0.9053 H   0  0  0  0  0  0  0  0  0  0  0  0
    3.2257   -3.8876    2.0432 H   0  0  0  0  0  0  0  0  0  0  0  0
    1.8327   -4.8004    2.5839 H   0  0  0  0  0  0  0  0  0  0  0  0
    0.0005   -3.1873    1.6465 N   0  0  0  0  0  0  0  0  0  0  0  0
   -0.9949   -2.1807    1.3864 C   0  0  2  0  0  0  0  0  0  0  0  0
   -0.3083   -0.8216    1.4164 C   0  0  0  0  0  0  0  0  0  0  0  0
    0.7533   -0.6191    2.0022 O   0  0  0  0  0  0  0  0  0  0  0  0
   -2.1232   -2.2423    2.4042 C   0  0  0  0  0  0  0  0  0  0  0  0
   -0.3048   -4.0823    2.0245 H   0  0  0  0  0  0  0  0  0  0  0  0
   -1.3830   -2.3724    0.3801 H   0  0  0  0  0  0  0  0  0  0  0  0
   -1.7534   -2.0527    3.4185 H   0  0  0  0  0  0  0  0  0  0  0  0
   -2.8936   -1.4947    2.1882 H   0  0  0  0  0  0  0  0  0  0  0  0
   -2.5964   -3.2301    2.4022 H   0  0  0  0  0  0  0  0  0  0  0  0
   -1.0412    0.1517    0.7482 N   0  0  0  0  0  0  0  0  0  0  0  0
   -0.6079    1.5223    0.6467 C   0  0  2  0  0  0  0  0  0  0  0  0
    0.8692    1.5847    1.0334 C   0  0  0  0  0  0  0  0  0  0  0  0
    1.7474    0.9878    0.4138 O   0  0  0  0  0  0  0  0  0  0  0  0
   -1.4792    2.4948    1.4778 C   0  0  2  0  0  0  0  0  0  0  0  0
   -2.9434    2.5330    0.9867 C   0  0  0  0  0  0  0  0  0  0  0  0
   -0.8484    3.8936    1.4863 C   0  0  0  0  0  0  0  0  0  0  0  0
   -3.8828    3.2670    1.9351 C   0  0  0  0  0  0  0  0  0  0  0  0
   -1.9022   -0.1128    0.2753 H   0  0  0  0  0  0  0  0  0  0  0  0
   -0.6781    1.7811   -0.4175 H   0  0  0  0  0  0  0  0  0  0  0  0
   -1.4855    2.1397    2.5170 H   0  0  0  0  0  0  0  0  0  0  0  0
   -2.9919    3.0377    0.0150 H   0  0  0  0  0  0  0  0  0  0  0  0
   -3.3225    1.5154    0.8349 H   0  0  0  0  0  0  0  0  0  0  0  0
   -0.8108    4.3098    0.4738 H   0  0  0  0  0  0  0  0  0  0  0  0
   -1.4336    4.5884    2.0964 H   0  0  0  0  0  0  0  0  0  0  0  0
    0.1718    3.8717    1.8830 H   0  0  0  0  0  0  0  0  0  0  0  0
   -3.8848    2.8142    2.9307 H   0  0  0  0  0  0  0  0  0  0  0  0
   -4.9080    3.2251    1.5529 H   0  0  0  0  0  0  0  0  0  0  0  0
   -3.6009    4.3201    2.0312 H   0  0  0  0  0  0  0  0  0  0  0  0
    1.0898    2.4094    2.1273 N   0  0  0  0  0  0  0  0  0  0  0  0
    2.4011    2.6566    2.6823 C   0  0  2  0  0  0  0  0  0  0  0  0
    2.3769    4.0223    3.3559 C   0  0  0  0  0  0  0  0  0  0  0  0
    1.5642    4.8983    3.0673 O   0  0  0  0  0  0  0  0  0  0  0  0
    3.4763    2.5992    1.6083 C   0  0  0  0  0  0  0  0  0  0  0  0
    0.2898    2.8619    2.5596 H   0  0  0  0  0  0  0  0  0  0  0  0
    2.5774    1.8805    3.4350 H   0  0  0  0  0  0  0  0  0  0  0  0
    3.3163    3.3696    0.8451 H   0  0  0  0  0  0  0  0  0  0  0  0
    4.4721    2.7584    2.0349 H   0  0  0  0  0  0  0  0  0  0  0  0
    3.4725    1.6266    1.1046 H   0  0  0  0  0  0  0  0  0  0  0  0
    3.3966    4.1632    4.2867 N   0  0  0  0  0  0  0  0  0  0  0  0
    3.5934    5.3732    5.0504 C   0  0  0  0  0  0  0  0  0  0  0  0
    4.0129    3.3782    4.4755 H   0  0  0  0  0  0  0  0  0  0  0  0
    4.3050    6.0273    4.5252 H   0  0  0  0  0  0  0  0  0  0  0  0
    2.6317    5.8949    5.1648 H   0  0  0  0  0  0  0  0  0  0  0  0
    3.9931    5.1192    6.0432 H   0  0  0  0  0  0  0  0  0  0  0  0
  1  3  1  0  0  0  0
  1  7  1  0  0  0  0
  1  2  2  0  0  0  0
 37 38  1  0  0  0  0
 38 46  1  0  0  0  0
 38 39  2  0  0  0  0
  8  9  1  0  0  0  0
  9 17  1  0  0  0  0
  9 10  2  0  0  0  0
 18 19  1  0  0  0  0
 19 36  1  0  0  0  0
 19 20  2  0  0  0  0
 22 24  1  0  0  0  0
 37 40  1  0  0  0  0
  8 11  1  0  0  0  0
 21 23  1  0  0  0  0
 46 47  1  0  0  0  0
 21 22  1  0  0  0  0
 36 37  1  0  0  0  0
  7  8  1  0  0  0  0
 18 21  1  0  0  0  0
 17 18  1  0  0  0  0
  3  4  1  0  0  0  0
  3  5  1  0  0  0  0
  3  6  1  0  0  0  0
 24 33  1  0  0  0  0
 24 34  1  0  0  0  0
 24 35  1  0  0  0  0
 40 43  1  0  0  0  0
 40 44  1  0  0  0  0
 40 45  1  0  0  0  0
 11 14  1  0  0  0  0
 11 15  1  0  0  0  0
 11 16  1  0  0  0  0
 23 30  1  0  0  0  0
 23 31  1  0  0  0  0
 23 32  1  0  0  0  0
 47 49  1  0  0  0  0
 47 50  1  0  0  0  0
 47 51  1  0  0  0  0
 22 28  1  0  0  0  0
 22 29  1  0  0  0  0
 37 42  1  0  0  0  0
  8 13  1  0  0  0  0
 18 26  1  0  0  0  0
 21 27  1  0  0  0  0
 46 48  1  0  0  0  0
  7 12  1  0  0  0  0
 36 41  1  0  0  0  0
 17 25  1  0  0  0  0
M  END
$$$$

  -OEChem-05262214473D

 51 50  0     1  0  0  0  0  0999 V2000
    1.3524   -3.0009    1.4091 C   0  0  0  0  0  0  0  0  0  0  0  0
    1.8758   -1.9880    0.9598 O   0  0  0  0  0  0  0  0  0  0  0  0
    2.2030   -4.1782    1.7536 C   0  0  0  0  0  0  0  0  0  0  0  0
    2.3264   -4.8705    0.9053 H   0  0  0  0  0  0  0  0  0  0  0  0
    3.2257   -3.8876    2.0432 H   0  0  0  0  0  0  0  0  0  0  0  0
    1.8327   -4.8004    2.5839 H   0  0  0  0  0  0  0  0  0  0  0  0
    0.0005   -3.1873    1.6465 N   0  0  0  0  0  0  0  0  0  0  0  0
   -0.9949   -2.1807    1.3864 C   0  0  2  0  0  0  0  0  0  0  0  0
   -0.3083   -0.8216    1.4164 C   0  0  0  0  0  0  0  0  0  0  0  0
    0.7533   -0.6191    2.0022 O   0  0  0  0  0  0  0  0  0  0  0  0
   -2.1232   -2.2423    2.4042 C   0  0  0  0  0  0  0  0  0  0  0  0
   -0.3048   -4.0823    2.0245 H   0  0  0  0  0  0  0  0  0  0  0  0
   -1.3830   -2.3724    0.3801 H   0  0  0  0  0  0  0  0  0  0  0  0
   -1.7534   -2.0527    3.4185 H   0  0  0  0  0  0  0  0  0  0  0  0
   -2.8936   -1.4947    2.1882 H   0  0  0  0  0  0  0  0  0  0  0  0
   -2.5964   -3.2301    2.4022 H   0  0  0  0  0  0  0  0  0  0  0  0
   -1.0412    0.1517    0.7482 N   0  0  0  0  0  0  0  0  0  0  0  0
   -0.6079    1.5223    0.6467 C   0  0  2  0  0  0  0  0  0  0  0  0
    0.8692    1.5847    1.0334 C   0  0  0  0  0  0  0  0  0  0  0  0
    1.7720    1.2215    0.2821 O   0  0  0  0  0  0  0  0  0  0  0  0
   -1.4792    2.4948    1.4778 C   0  0  2  0  0  0  0  0  0  0  0  0
   -2.9434    2.5330    0.9867 C   0  0  0  0  0  0  0  0  0  0  0  0
   -0.8484    3.8936    1.4863 C   0  0  0  0  0  0  0  0  0  0  0  0
   -3.8828    3.2670    1.9351 C   0  0  0  0  0  0  0  0  0  0  0  0
   -1.9022   -0.1128    0.2753 H   0  0  0  0  0  0  0  0  0  0  0  0
   -0.6781    1.7811   -0.4175 H   0  0  0  0  0  0  0  0  0  0  0  0
   -1.4855    2.1397    2.5170 H   0  0  0  0  0  0  0  0  0  0  0  0
   -2.9919    3.0377    0.0150 H   0  0  0  0  0  0  0  0  0  0  0  0
   -3.3225    1.5154    0.8349 H   0  0  0  0  0  0  0  0  0  0  0  0
   -0.8108    4.3098    0.4738 H   0  0  0  0  0  0  0  0  0  0  0  0
   -1.4336    4.5884    2.0964 H   0  0  0  0  0  0  0  0  0  0  0  0
    0.1718    3.8717    1.8830 H   0  0  0  0  0  0  0  0  0  0  0  0
   -3.8848    2.8142    2.9307 H   0  0  0  0  0  0  0  0  0  0  0  0
   -4.9080    3.2251    1.5529 H   0  0  0  0  0  0  0  0  0  0  0  0
   -3.6009    4.3201    2.0312 H   0  0  0  0  0  0  0  0  0  0  0  0
    1.0571    2.1228    2.2986 N   0  0  0  0  0  0  0  0  0  0  0  0
    2.3601    2.3106    2.8948 C   0  0  2  0  0  0  0  0  0  0  0  0
    2.2610    3.4599    3.8891 C   0  0  0  0  0  0  0  0  0  0  0  0
    1.3885    4.3239    3.8310 O   0  0  0  0  0  0  0  0  0  0  0  0
    3.4162    2.5954    1.8383 C   0  0  0  0  0  0  0  0  0  0  0  0
    0.2380    2.3984    2.8322 H   0  0  0  0  0  0  0  0  0  0  0  0
    2.6000    1.3846    3.4287 H   0  0  0  0  0  0  0  0  0  0  0  0
    3.1928    3.5195    1.2928 H   0  0  0  0  0  0  0  0  0  0  0  0
    4.4077    2.7091    2.2889 H   0  0  0  0  0  0  0  0  0  0  0  0
    3.4653    1.7813    1.1070 H   0  0  0  0  0  0  0  0  0  0  0  0
    3.2870    3.4317    4.8233 N   0  0  0  0  0  0  0  0  0  0  0  0
    3.4202    4.4229    5.8653 C   0  0  0  0  0  0  0  0  0  0  0  0
    3.9559    2.6674    4.8080 H   0  0  0  0  0  0  0  0  0  0  0  0
    4.0783    5.2335    5.5191 H   0  0  0  0  0  0  0  0  0  0  0  0
    2.4294    4.8340    6.1089 H   0  0  0  0  0  0  0  0  0  0  0  0
    3.8540    3.9561    6.7619 H   0  0  0  0  0  0  0  0  0  0  0  0
  1  3  1  0  0  0  0
  1  7  1  0  0  0  0
  1  2  2  0  0  0  0
 37 38  1  0  0  0  0
 38 46  1  0  0  0  0
 38 39  2  0  0  0  0
  8  9  1  0  0  0  0
  9 17  1  0  0  0  0
  9 10  2  0  0  0  0
 18 19  1  0  0  0  0
 19 36  1  0  0  0  0
 19 20  2  0  0  0  0
 22 24  1  0  0  0  0
 37 40  1  0  0  0  0
  8 11  1  0  0  0  0
 21 23  1  0  0  0  0
 46 47  1  0  0  0  0
 21 22  1  0  0  0  0
 36 37  1  0  0  0  0
  7  8  1  0  0  0  0
 18 21  1  0  0  0  0
 17 18  1  0  0  0  0
  3  4  1  0  0  0  0
  3  5  1  0  0  0  0
  3  6  1  0  0  0  0
 24 33  1  0  0  0  0
 24 34  1  0  0  0  0
 24 35  1  0  0  0  0
 40 43  1  0  0  0  0
 40 44  1  0  0  0  0
 40 45  1  0  0  0  0
 11 14  1  0  0  0  0
 11 15  1  0  0  0  0
 11 16  1  0  0  0  0
 23 30  1  0  0  0  0
 23 31  1  0  0  0  0
 23 32  1  0  0  0  0
 47 49  1  0  0  0  0
 47 50  1  0  0  0  0
 47 51  1  0  0  0  0
 22 28  1  0  0  0  0
 22 29  1  0  0  0  0
 37 42  1  0  0  0  0
  8 13  1  0  0  0  0
 18 26  1  0  0  0  0
 21 27  1  0  0  0  0
 46 48  1  0  0  0  0
  7 12  1  0  0  0  0
 36 41  1  0  0  0  0
 17 25  1  0  0  0  0
M  END
$$$$

  -OEChem-05262214473D

 51 50  0     1  0  0  0  0  0999 V2000
    1.3524   -3.0009    1.4091 C   0  0  0  0  0  0  0  0  0  0  0  0
    1.8758   -1.9880    0.9598 O   0  0  0  0  0  0  0  0  0  0  0  0
    2.2030   -4.1782    1.7536 C   0  0  0  0  0  0  0  0  0  0  0  0
    2.3264   -4.8705    0.9053 H   0  0  0  0  0  0  0  0  0  0  0  0
    3.2257   -3.8876    2.0432 H   0  0  0  0  0  0  0  0  0  0  0  0
    1.8327   -4.8004    2.5839 H   0  0  0  0  0  0  0  0  0  0  0  0
    0.0005   -3.1873    1.6465 N   0  0  0  0  0  0  0  0  0  0  0  0
   -0.9949   -2.1807    1.3864 C   0  0  2  0  0  0  0  0  0  0  0  0
   -0.3083   -0.8216    1.4164 C   0  0  0  0  0  0  0  0  0  0  0  0
    0.7533   -0.6191    2.0022 O   0  0  0  0  0  0  0  0  0  0  0  0
   -2.1232   -2.2423    2.4042 C   0  0  0  0  0  0  0  0  0  0  0  0
   -0.3048   -4.0823    2.0245 H   0  0  0  0  0  0  0  0  0  0  0  0
   -1.3830   -2.3724    0.3801 H   0  0  0  0  0  0  0  0  0  0  0  0
   -1.7534   -2.0527    3.4185 H   0  0  0  0  0  0  0  0  0  0  0  0
   -2.8936   -1.4947    2.1882 H   0  0  0  0  0  0  0  0  0  0  0  0
   -2.5964   -3.2301    2.4022 H   0  0  0  0  0  0  0  0  0  0  0  0
   -1.0412    0.1517    0.7482 N   0  0  0  0  0  0  0  0  0  0  0  0
   -0.6079    1.5223    0.6467 C   0  0  2  0  0  0  0  0  0  0  0  0
    0.8692    1.5847    1.0334 C   0  0  0  0  0  0  0  0  0  0  0  0
    1.7791    1.4819    0.2131 O   0  0  0  0  0  0  0  0  0  0  0  0
   -1.4792    2.4948    1.4778 C   0  0  2  0  0  0  0  0  0  0  0  0
   -2.9434    2.5330    0.9867 C   0  0  0  0  0  0  0  0  0  0  0  0
   -0.8484    3.8936    1.4863 C   0  0  0  0  0  0  0  0  0  0  0  0
   -3.8828    3.2670    1.9351 C   0  0  0  0  0  0  0  0  0  0  0  0
   -1.9022   -0.1128    0.2753 H   0  0  0  0  0  0  0  0  0  0  0  0
   -0.6781    1.7811   -0.4175 H   0  0  0  0  0  0  0  0  0  0  0  0
   -1.4855    2.1397    2.5170 H   0  0  0  0  0  0  0  0  0  0  0  0
   -2.9919    3.0377    0.0150 H   0  0  0  0  0  0  0  0  0  0  0  0
   -3.3225    1.5154    0.8349 H   0  0  0  0  0  0  0  0  0  0  0  0
   -0.8108    4.3098    0.4738 H   0  0  0  0  0  0  0  0  0  0  0  0
   -1.4336    4.5884    2.0964 H   0  0  0  0  0  0  0  0  0  0  0  0
    0.1718    3.8717    1.8830 H   0  0  0  0  0  0  0  0  0  0  0  0
   -3.8848    2.8142    2.9307 H   0  0  0  0  0  0  0  0  0  0  0  0
   -4.9080    3.2251    1.5529 H   0  0  0  0  0  0  0  0  0  0  0  0
   -3.6009    4.3201    2.0312 H   0  0  0  0  0  0  0  0  0  0  0  0
    1.0461    1.8010    2.3926 N   0  0  0  0  0  0  0  0  0  0  0  0
    2.3454    1.9205    3.0140 C   0  0  2  0  0  0  0  0  0  0  0  0
    2.1916    2.7757    4.2647 C   0  0  0  0  0  0  0  0  0  0  0  0
    1.2645    3.5665    4.4268 O   0  0  0  0  0  0  0  0  0  0  0  0
    3.3609    2.5301    2.0601 C   0  0  0  0  0  0  0  0  0  0  0  0
    0.2212    1.8792    2.9801 H   0  0  0  0  0  0  0  0  0  0  0  0
    2.6542    0.9087    3.2984 H   0  0  0  0  0  0  0  0  0  0  0  0
    3.0684    3.5441    1.7640 H   0  0  0  0  0  0  0  0  0  0  0  0
    4.3514    2.5937    2.5227 H   0  0  0  0  0  0  0  0  0  0  0  0
    3.4483    1.9298    1.1481 H   0  0  0  0  0  0  0  0  0  0  0  0
    3.2348    2.5836    5.1598 N   0  0  0  0  0  0  0  0  0  0  0  0
    3.3237    3.2897    6.4166 C   0  0  0  0  0  0  0  0  0  0  0  0
    3.9508    1.8939    4.9520 H   0  0  0  0  0  0  0  0  0  0  0  0
    3.9218    4.2032    6.2830 H   0  0  0  0  0  0  0  0  0  0  0  0
    2.3134    3.5597    6.7576 H   0  0  0  0  0  0  0  0  0  0  0  0
    3.8035    2.6438    7.1667 H   0  0  0  0  0  0  0  0  0  0  0  0
  1  3  1  0  0  0  0
  1  7  1  0  0  0  0
  1  2  2  0  0  0  0
 37 38  1  0  0  0  0
 38 46  1  0  0  0  0
 38 39  2  0  0  0  0
  8  9  1  0  0  0  0
  9 17  1  0  0  0  0
  9 10  2  0  0  0  0
 18 19  1  0  0  0  0
 19 36  1  0  0  0  0
 19 20  2  0  0  0  0
 22 24  1  0  0  0  0
 37 40  1  0  0  0  0
  8 11  1  0  0  0  0
 21 23  1  0  0  0  0
 46 47  1  0  0  0  0
 21 22  1  0  0  0  0
 36 37  1  0  0  0  0
  7  8  1  0  0  0  0
 18 21  1  0  0  0  0
 17 18  1  0  0  0  0
  3  4  1  0  0  0  0
  3  5  1  0  0  0  0
  3  6  1  0  0  0  0
 24 33  1  0  0  0  0
 24 34  1  0  0  0  0
 24 35  1  0  0  0  0
 40 43  1  0  0  0  0
 40 44  1  0  0  0  0
 40 45  1  0  0  0  0
 11 14  1  0  0  0  0
 11 15  1  0  0  0  0
 11 16  1  0  0  0  0
 23 30  1  0  0  0  0
 23 31  1  0  0  0  0
 23 32  1  0  0  0  0
 47 49  1  0  0  0  0
 47 50  1  0  0  0  0
 47 51  1  0  0  0  0
 22 28  1  0  0  0  0
 22 29  1  0  0  0  0
 37 42  1  0  0  0  0
  8 13  1  0  0  0  0
 18 26  1  0  0  0  0
 21 27  1  0  0  0  0
 46 48  1  0  0  0  0
  7 12  1  0  0  0  0
 36 41  1  0  0  0  0
 17 25  1  0  0  0  0
M  END
$$$$

  -OEChem-05262214473D

 51 50  0     1  0  0  0  0  0999 V2000
    1.3524   -3.0009    1.4091 C   0  0  0  0  0  0  0  0  0  0  0  0
    1.8758   -1.9880    0.9598 O   0  0  0  0  0  0  0  0  0  0  0  0
    2.2030   -4.1782    1.7536 C   0  0  0  0  0  0  0  0  0  0  0  0
    2.3264   -4.8705    0.9053 H   0  0  0  0  0  0  0  0  0  0  0  0
    3.2257   -3.8876    2.0432 H   0  0  0  0  0  0  0  0  0  0  0  0
    1.8327   -4.8004    2.5839 H   0  0  0  0  0  0  0  0  0  0  0  0
    0.0005   -3.1873    1.6465 N   0  0  0  0  0  0  0  0  0  0  0  0
   -0.9949   -2.1807    1.3864 C   0  0  2  0  0  0  0  0  0  0  0  0
   -0.3083   -0.8216    1.4164 C   0  0  0  0  0  0  0  0  0  0  0  0
    0.7533   -0.6191    2.0022 O   0  0  0  0  0  0  0  0  0  0  0  0
   -2.1232   -2.2423    2.4042 C   0  0  0  0  0  0  0  0  0  0  0  0
   -0.3048   -4.0823    2.0245 H   0  0  0  0  0  0  0  0  0  0  0  0
   -1.3830   -2.3724    0.3801 H   0  0  0  0  0  0  0  0  0  0  0  0
   -1.7534   -2.0527    3.4185 H   0  0  0  0  0  0  0  0  0  0  0  0
   -2.8936   -1.4947    2.1882 H   0  0  0  0  0  0  0  0  0  0  0  0
   -2.5964   -3.2301    2.4022 H   0  0  0  0  0  0  0  0  0  0  0  0
   -1.0412    0.1517    0.7482 N   0  0  0  0  0  0  0  0  0  0  0  0
   -0.6079    1.5223    0.6467 C   0  0  2  0  0  0  0  0  0  0  0  0
    0.8692    1.5847    1.0334 C   0  0  0  0  0  0  0  0  0  0  0  0
    1.7681    1.7512    0.2115 O   0  0  0  0  0  0  0  0  0  0  0  0
   -1.4792    2.4948    1.4778 C   0  0  2  0  0  0  0  0  0  0  0  0
   -2.9434    2.5330    0.9867 C   0  0  0  0  0  0  0  0  0  0  0  0
   -0.8484    3.8936    1.4863 C   0  0  0  0  0  0  0  0  0  0  0  0
   -3.8828    3.2670    1.9351 C   0  0  0  0  0  0  0  0  0  0  0  0
   -1.9022   -0.1128    0.2753 H   0  0  0  0  0  0  0  0  0  0  0  0
   -0.6781    1.7811   -0.4175 H   0  0  0  0  0  0  0  0  0  0  0  0
   -1.4855    2.1397    2.5170 H   0  0  0  0  0  0  0  0  0  0  0  0
   -2.9919    3.0377    0.0150 H   0  0  0  0  0  0  0  0  0  0  0  0
   -3.3225    1.5154    0.8349 H   0  0  0  0  0  0  0  0  0  0  0  0
   -0.8108    4.3098    0.4738 H   0  0  0  0  0  0  0  0  0  0  0  0
   -1.4336    4.5884    2.0964 H   0  0  0  0  0  0  0  0  0  0  0  0
    0.1718    3.8717    1.8830 H   0  0  0  0  0  0  0  0  0  0  0  0
   -3.8848    2.8142    2.9307 H   0  0  0  0  0  0  0  0  0  0  0  0
   -4.9080    3.2251    1.5529 H   0  0  0  0  0  0  0  0  0  0  0  0
   -3.6009    4.3201    2.0312 H   0  0  0  0  0  0  0  0  0  0  0  0
    1.0575    1.4659    2.4030 N   0  0  0  0  0  0  0  0  0  0  0  0
    2.3579    1.5130    3.0316 C   0  0  2  0  0  0  0  0  0  0  0  0
    2.1733    2.0163    4.4571 C   0  0  0  0  0  0  0  0  0  0  0  0
    1.2007    2.6778    4.8142 O   0  0  0  0  0  0  0  0  0  0  0  0
    3.3141    2.4080    2.2587 C   0  0  0  0  0  0  0  0  0  0  0  0
    0.2406    1.3395    2.9932 H   0  0  0  0  0  0  0  0  0  0  0  0
    2.7364    0.4852    3.0528 H   0  0  0  0  0  0  0  0  0  0  0  0
    2.9516    3.4419    2.2267 H   0  0  0  0  0  0  0  0  0  0  0  0
    4.3070    2.4200    2.7202 H   0  0  0  0  0  0  0  0  0  0  0  0
    3.4226    2.0617    1.2252 H   0  0  0  0  0  0  0  0  0  0  0  0
    3.2434    1.6769    5.2732 N   0  0  0  0  0  0  0  0  0  0  0  0
    3.3106    2.0509    6.6666 C   0  0  0  0  0  0  0  0  0  0  0  0
    3.9982    1.1103    4.8976 H   0  0  0  0  0  0  0  0  0  0  0  0
    3.8462    3.0066    6.7648 H   0  0  0  0  0  0  0  0  0  0  0  0
    2.2916    2.1590    7.0666 H   0  0  0  0  0  0  0  0  0  0  0  0
    3.8449    1.2717    7.2299 H   0  0  0  0  0  0  0  0  0  0  0  0
  1  3  1  0  0  0  0
  1  7  1  0  0  0  0
  1  2  2  0  0  0  0
 37 38  1  0  0  0  0
 38 46  1  0  0  0  0
 38 39  2  0  0  0  0
  8  9  1  0  0  0  0
  9 17  1  0  0  0  0
  9 10  2  0  0  0  0
 18 19  1  0  0  0  0
 19 36  1  0  0  0  0
 19 20  2  0  0  0  0
 22 24  1  0  0  0  0
 37 40  1  0  0  0  0
  8 11  1  0  0  0  0
 21 23  1  0  0  0  0
 46 47  1  0  0  0  0
 21 22  1  0  0  0  0
 36 37  1  0  0  0  0
  7  8  1  0  0  0  0
 18 21  1  0  0  0  0
 17 18  1  0  0  0  0
  3  4  1  0  0  0  0
  3  5  1  0  0  0  0
  3  6  1  0  0  0  0
 24 33  1  0  0  0  0
 24 34  1  0  0  0  0
 24 35  1  0  0  0  0
 40 43  1  0  0  0  0
 40 44  1  0  0  0  0
 40 45  1  0  0  0  0
 11 14  1  0  0  0  0
 11 15  1  0  0  0  0
 11 16  1  0  0  0  0
 23 30  1  0  0  0  0
 23 31  1  0  0  0  0
 23 32  1  0  0  0  0
 47 49  1  0  0  0  0
 47 50  1  0  0  0  0
 47 51  1  0  0  0  0
 22 28  1  0  0  0  0
 22 29  1  0  0  0  0
 37 42  1  0  0  0  0
  8 13  1  0  0  0  0
 18 26  1  0  0  0  0
 21 27  1  0  0  0  0
 46 48  1  0  0  0  0
  7 12  1  0  0  0  0
 36 41  1  0  0  0  0
 17 25  1  0  0  0  0
M  END
$$$$

  -OEChem-05262214473D

 51 50  0     1  0  0  0  0  0999 V2000
    1.3524   -3.0009    1.4091 C   0  0  0  0  0  0  0  0  0  0  0  0
    1.8758   -1.9880    0.9598 O   0  0  0  0  0  0  0  0  0  0  0  0
    2.2030   -4.1782    1.7536 C   0  0  0  0  0  0  0  0  0  0  0  0
    2.3264   -4.8705    0.9053 H   0  0  0  0  0  0  0  0  0  0  0  0
    3.2257   -3.8876    2.0432 H   0  0  0  0  0  0  0  0  0  0  0  0
    1.8327   -4.8004    2.5839 H   0  0  0  0  0  0  0  0  0  0  0  0
    0.0005   -3.1873    1.6465 N   0  0  0  0  0  0  0  0  0  0  0  0
   -0.9949   -2.1807    1.3864 C   0  0  2  0  0  0  0  0  0  0  0  0
   -0.3083   -0.8216    1.4164 C   0  0  0  0  0  0  0  0  0  0  0  0
    0.7533   -0.6191    2.0022 O   0  0  0  0  0  0  0  0  0  0  0  0
   -2.1232   -2.2423    2.4042 C   0  0  0  0  0  0  0  0  0  0  0  0
   -0.3048   -4.0823    2.0245 H   0  0  0  0  0  0  0  0  0  0  0  0
   -1.3830   -2.3724    0.3801 H   0  0  0  0  0  0  0  0  0  0  0  0
   -1.7534   -2.0527    3.4185 H   0  0  0  0  0  0  0  0  0  0  0  0
   -2.8936   -1.4947    2.1882 H   0  0  0  0  0  0  0  0  0  0  0  0
   -2.5964   -3.2301    2.4022 H   0  0  0  0  0  0  0  0  0  0  0  0
   -1.0412    0.1517    0.7482 N   0  0  0  0  0  0  0  0  0  0  0  0
   -0.6079    1.5223    0.6467 C   0  0  2  0  0  0  0  0  0  0  0  0
    0.8692    1.5847    1.0334 C   0  0  0  0  0  0  0  0  0  0  0  0
    1.7399    2.0109    0.2774 O   0  0  0  0  0  0  0  0  0  0  0  0
   -1.4792    2.4948    1.4778 C   0  0  2  0  0  0  0  0  0  0  0  0
   -2.9434    2.5330    0.9867 C   0  0  0  0  0  0  0  0  0  0  0  0
   -0.8484    3.8936    1.4863 C   0  0  0  0  0  0  0  0  0  0  0  0
   -3.8828    3.2670    1.9351 C   0  0  0  0  0  0  0  0  0  0  0  0
   -1.9022   -0.1128    0.2753 H   0  0  0  0  0  0  0  0  0  0  0  0
   -0.6781    1.7811   -0.4175 H   0  0  0  0  0  0  0  0  0  0  0  0
   -1.4855    2.1397    2.5170 H   0  0  0  0  0  0  0  0  0  0  0  0
   -2.9919    3.0377    0.0150 H   0  0  0  0  0  0  0  0  0  0  0  0
   -3.3225    1.5154    0.8349 H   0  0  0  0  0  0  0  0  0  0  0  0
   -0.8108    4.3098    0.4738 H   0  0  0  0  0  0  0  0  0  0  0  0
   -1.4336    4.5884    2.0964 H   0  0  0  0  0  0  0  0  0  0  0  0
    0.1718    3.8717    1.8830 H   0  0  0  0  0  0  0  0  0  0  0  0
   -3.8848    2.8142    2.9307 H   0  0  0  0  0  0  0  0  0  0  0  0
   -4.9080    3.2251    1.5529 H   0  0  0  0  0  0  0  0  0  0  0  0
   -3.6009    4.3201    2.0312 H   0  0  0  0  0  0  0  0  0  0  0  0
    1.0905    1.1403    2.3292 N   0  0  0  0  0  0  0  0  0  0  0  0
    2.3970    1.1157    2.9466 C   0  0  2  0  0  0  0  0  0  0  0  0
    2.2074    1.2335    4.4532 C   0  0  0  0  0  0  0  0  0  0  0  0
    1.2012    1.7182    4.9668 O   0  0  0  0  0  0  0  0  0  0  0  0
    3.2789    2.2373    2.4204 C   0  0  0  0  0  0  0  0  0  0  0  0
    0.2947    0.8162    2.8707 H   0  0  0  0  0  0  0  0  0  0  0  0
    2.8409    0.1429    2.7088 H   0  0  0  0  0  0  0  0  0  0  0  0
    2.8503    3.2198    2.6493 H   0  0  0  0  0  0  0  0  0  0  0  0
    4.2776    2.1999    2.8680 H   0  0  0  0  0  0  0  0  0  0  0  0
    3.3899    2.1682    1.3329 H   0  0  0  0  0  0  0  0  0  0  0  0
    3.3122    0.7732    5.1558 N   0  0  0  0  0  0  0  0  0  0  0  0
    3.3816    0.7909    6.5983 C   0  0  0  0  0  0  0  0  0  0  0  0
    4.0946    0.3702    4.6485 H   0  0  0  0  0  0  0  0  0  0  0  0
    3.8567    1.7254    6.9316 H   0  0  0  0  0  0  0  0  0  0  0  0
    2.3656    0.7273    7.0149 H   0  0  0  0  0  0  0  0  0  0  0  0
    3.9754   -0.0668    6.9472 H   0  0  0  0  0  0  0  0  0  0  0  0
  1  3  1  0  0  0  0
  1  7  1  0  0  0  0
  1  2  2  0  0  0  0
 37 38  1  0  0  0  0
 38 46  1  0  0  0  0
 38 39  2  0  0  0  0
  8  9  1  0  0  0  0
  9 17  1  0  0  0  0
  9 10  2  0  0  0  0
 18 19  1  0  0  0  0
 19 36  1  0  0  0  0
 19 20  2  0  0  0  0
 22 24  1  0  0  0  0
 37 40  1  0  0  0  0
  8 11  1  0  0  0  0
 21 23  1  0  0  0  0
 46 47  1  0  0  0  0
 21 22  1  0  0  0  0
 36 37  1  0  0  0  0
  7  8  1  0  0  0  0
 18 21  1  0  0  0  0
 17 18  1  0  0  0  0
  3  4  1  0  0  0  0
  3  5  1  0  0  0  0
  3  6  1  0  0  0  0
 24 33  1  0  0  0  0
 24 34  1  0  0  0  0
 24 35  1  0  0  0  0
 40 43  1  0  0  0  0
 40 44  1  0  0  0  0
 40 45  1  0  0  0  0
 11 14  1  0  0  0  0
 11 15  1  0  0  0  0
 11 16  1  0  0  0  0
 23 30  1  0  0  0  0
 23 31  1  0  0  0  0
 23 32  1  0  0  0  0
 47 49  1  0  0  0  0
 47 50  1  0  0  0  0
 47 51  1  0  0  0  0
 22 28  1  0  0  0  0
 22 29  1  0  0  0  0
 37 42  1  0  0  0  0
  8 13  1  0  0  0  0
 18 26  1  0  0  0  0
 21 27  1  0  0  0  0
 46 48  1  0  0  0  0
  7 12  1  0  0  0  0
 36 41  1  0  0  0  0
 17 25  1  0  0  0  0
M  END
$$$$

  -OEChem-05262214473D

 51 50  0     1  0  0  0  0  0999 V2000
    1.3524   -3.0009    1.4091 C   0  0  0  0  0  0  0  0  0  0  0  0
    1.8758   -1.9880    0.9598 O   0  0  0  0  0  0  0  0  0  0  0  0
    2.2030   -4.1782    1.7536 C   0  0  0  0  0  0  0  0  0  0  0  0
    2.3264   -4.8705    0.9053 H   0  0  0  0  0  0  0  0  0  0  0  0
    3.2257   -3.8876    2.0432 H   0  0  0  0  0  0  0  0  0  0  0  0
    1.8327   -4.8004    2.5839 H   0  0  0  0  0  0  0  0  0  0  0  0
    0.0005   -3.1873    1.6465 N   0  0  0  0  0  0  0  0  0  0  0  0
   -0.9949   -2.1807    1.3864 C   0  0  2  0  0  0  0  0  0  0  0  0
   -0.3083   -0.8216    1.4164 C   0  0  0  0  0  0  0  0  0  0  0  0
    0.7533   -0.6191    2.0022 O   0  0  0  0  0  0  0  0  0  0  0  0
   -2.1232   -2.2423    2.4042 C   0  0  0  0  0  0  0  0  0  0  0  0
   -0.3048   -4.0823    2.0245 H   0  0  0  0  0  0  0  0  0  0  0  0
   -1.3830   -2.3724    0.3801 H   0  0  0  0  0  0  0  0  0  0  0  0
   -1.7534   -2.0527    3.4185 H   0  0  0  0  0  0  0  0  0  0  0  0
   -2.8936   -1.4947    2.1882 H   0  0  0  0  0  0  0  0  0  0  0  0
   -2.5964   -3.2301    2.4022 H   0  0  0  0  0  0  0  0  0  0  0  0
   -1.0412    0.1517    0.7482 N   0  0  0  0  0  0  0  0  0  0  0  0
   -0.6079    1.5223    0.6467 C   0  0  2  0  0  0  0  0  0  0  0  0
    0.8692    1.5847    1.0334 C   0  0  0  0  0  0  0  0  0  0  0  0
    1.6963    2.2435    0.4063 O   0  0  0  0  0  0  0  0  0  0  0  0
   -1.4792    2.4948    1.4778 C   0  0  2  0  0  0  0  0  0  0  0  0
   -2.9434    2.5330    0.9867 C   0  0  0  0  0  0  0  0  0  0  0  0
   -0.8484    3.8936    1.4863 C   0  0  0  0  0  0  0  0  0  0  0  0
   -3.8828    3.2670    1.9351 C   0  0  0  0  0  0  0  0  0  0  0  0
   -1.9022   -0.1128    0.2753 H   0  0  0  0  0  0  0  0  0  0  0  0
   -0.6781    1.7811   -0.4175 H   0  0  0  0  0  0  0  0  0  0  0  0
   -1.4855    2.1397    2.5170 H   0  0  0  0  0  0  0  0  0  0  0  0
   -2.9919    3.0377    0.0150 H   0  0  0  0  0  0  0  0  0  0  0  0
   -3.3225    1.5154    0.8349 H   0  0  0  0  0  0  0  0  0  0  0  0
   -0.8108    4.3098    0.4738 H   0  0  0  0  0  0  0  0  0  0  0  0
   -1.4336    4.5884    2.0964 H   0  0  0  0  0  0  0  0  0  0  0  0
    0.1718    3.8717    1.8830 H   0  0  0  0  0  0  0  0  0  0  0  0
   -3.8848    2.8142    2.9307 H   0  0  0  0  0  0  0  0  0  0  0  0
   -4.9080    3.2251    1.5529 H   0  0  0  0  0  0  0  0  0  0  0  0
   -3.6009    4.3201    2.0312 H   0  0  0  0  0  0  0  0  0  0  0  0
    1.1430    0.8465    2.1760 N   0  0  0  0  0  0  0  0  0  0  0  0
    2.4598    0.7558    2.7647 C   0  0  2  0  0  0  0  0  0  0  0  0
    2.2916    0.4805    4.2531 C   0  0  0  0  0  0  0  0  0  0  0  0
    1.2663    0.7532    4.8740 O   0  0  0  0  0  0  0  0  0  0  0  0
    3.2579    2.0296    2.5343 C   0  0  0  0  0  0  0  0  0  0  0  0
    0.3800    0.3450    2.6209 H   0  0  0  0  0  0  0  0  0  0  0  0
    2.9606   -0.0949    2.2897 H   0  0  0  0  0  0  0  0  0  0  0  0
    2.7715    2.8929    3.0030 H   0  0  0  0  0  0  0  0  0  0  0  0
    4.2652    1.9485    2.9560 H   0  0  0  0  0  0  0  0  0  0  0  0
    3.3524    2.2420    1.4639 H   0  0  0  0  0  0  0  0  0  0  0  0
    3.4367   -0.0657    4.8156 N   0  0  0  0  0  0  0  0  0  0  0  0
    3.5321   -0.4044    6.2163 C   0  0  0  0  0  0  0  0  0  0  0  0
    4.2336   -0.2760    4.2218 H   0  0  0  0  0  0  0  0  0  0  0  0
    3.9524    0.4468    6.7721 H   0  0  0  0  0  0  0  0  0  0  0  0
    2.5302   -0.6378    6.6060 H   0  0  0  0  0  0  0  0  0  0  0  0
    4.1861   -1.2804    6.3380 H   0  0  0  0  0  0  0  0  0  0  0  0
  1  3  1  0  0  0  0
  1  7  1  0  0  0  0
  1  2  2  0  0  0  0
 37 38  1  0  0  0  0
 38 46  1  0  0  0  0
 38 39  2  0  0  0  0
  8  9  1  0  0  0  0
  9 17  1  0  0  0  0
  9 10  2  0  0  0  0
 18 19  1  0  0  0  0
 19 36  1  0  0  0  0
 19 20  2  0  0  0  0
 22 24  1  0  0  0  0
 37 40  1  0  0  0  0
  8 11  1  0  0  0  0
 21 23  1  0  0  0  0
 46 47  1  0  0  0  0
 21 22  1  0  0  0  0
 36 37  1  0  0  0  0
  7  8  1  0  0  0  0
 18 21  1  0  0  0  0
 17 18  1  0  0  0  0
  3  4  1  0  0  0  0
  3  5  1  0  0  0  0
  3  6  1  0  0  0  0
 24 33  1  0  0  0  0
 24 34  1  0  0  0  0
 24 35  1  0  0  0  0
 40 43  1  0  0  0  0
 40 44  1  0  0  0  0
 40 45  1  0  0  0  0
 11 14  1  0  0  0  0
 11 15  1  0  0  0  0
 11 16  1  0  0  0  0
 23 30  1  0  0  0  0
 23 31  1  0  0  0  0
 23 32  1  0  0  0  0
 47 49  1  0  0  0  0
 47 50  1  0  0  0  0
 47 51  1  0  0  0  0
 22 28  1  0  0  0  0
 22 29  1  0  0  0  0
 37 42  1  0  0  0  0
  8 13  1  0  0  0  0
 18 26  1  0  0  0  0
 21 27  1  0  0  0  0
 46 48  1  0  0  0  0
  7 12  1  0  0  0  0
 36 41  1  0  0  0  0
 17 25  1  0  0  0  0
M  END
$$$$

  -OEChem-05262214473D

 51 50  0     1  0  0  0  0  0999 V2000
    1.3524   -3.0009    1.4091 C   0  0  0  0  0  0  0  0  0  0  0  0
    1.8758   -1.9880    0.9598 O   0  0  0  0  0  0  0  0  0  0  0  0
    2.2030   -4.1782    1.7536 C   0  0  0  0  0  0  0  0  0  0  0  0
    2.3264   -4.8705    0.9053 H   0  0  0  0  0  0  0  0  0  0  0  0
    3.2257   -3.8876    2.0432 H   0  0  0  0  0  0  0  0  0  0  0  0
    1.8327   -4.8004    2.5839 H   0  0  0  0  0  0  0  0  0  0  0  0
    0.0005   -3.1873    1.6465 N   0  0  0  0  0  0  0  0  0  0  0  0
   -0.9949   -2.1807    1.3864 C   0  0  2  0  0  0  0  0  0  0  0  0
   -0.3083   -0.8216    1.4164 C   0  0  0  0  0  0  0  0  0  0  0  0
    0.7533   -0.6191    2.0022 O   0  0  0  0  0  0  0  0  0  0  0  0
   -2.1232   -2.2423    2.4042 C   0  0  0  0  0  0  0  0  0  0  0  0
   -0.3048   -4.0823    2.0245 H   0  0  0  0  0  0  0  0  0  0  0  0
   -1.3830   -2.3724    0.3801 H   0  0  0  0  0  0  0  0  0  0  0  0
   -1.7534   -2.0527    3.4185 H   0  0  0  0  0  0  0  0  0  0  0  0
   -2.8936   -1.4947    2.1882 H   0  0  0  0  0  0  0  0  0  0  0  0
   -2.5964   -3.2301    2.4022 H   0  0  0  0  0  0  0  0  0  0  0  0
   -1.0412    0.1517    0.7482 N   0  0  0  0  0  0  0  0  0  0  0  0
   -0.6079    1.5223    0.6467 C   0  0  2  0  0  0  0  0  0  0  0  0
    0.8692    1.5847    1.0334 C   0  0  0  0  0  0  0  0  0  0  0  0
    1.6404    2.4330    0.5895 O   0  0  0  0  0  0  0  0  0  0  0  0
   -1.4792    2.4948    1.4778 C   0  0  2  0  0  0  0  0  0  0  0  0
   -2.9434    2.5330    0.9867 C   0  0  0  0  0  0  0  0  0  0  0  0
   -0.8484    3.8936    1.4863 C   0  0  0  0  0  0  0  0  0  0  0  0
   -3.8828    3.2670    1.9351 C   0  0  0  0  0  0  0  0  0  0  0  0
   -1.9022   -0.1128    0.2753 H   0  0  0  0  0  0  0  0  0  0  0  0
   -0.6781    1.7811   -0.4175 H   0  0  0  0  0  0  0  0  0  0  0  0
   -1.4855    2.1397    2.5170 H   0  0  0  0  0  0  0  0  0  0  0  0
   -2.9919    3.0377    0.0150 H   0  0  0  0  0  0  0  0  0  0  0  0
   -3.3225    1.5154    0.8349 H   0  0  0  0  0  0  0  0  0  0  0  0
   -0.8108    4.3098    0.4738 H   0  0  0  0  0  0  0  0  0  0  0  0
   -1.4336    4.5884    2.0964 H   0  0  0  0  0  0  0  0  0  0  0  0
    0.1718    3.8717    1.8830 H   0  0  0  0  0  0  0  0  0  0  0  0
   -3.8848    2.8142    2.9307 H   0  0  0  0  0  0  0  0  0  0  0  0
   -4.9080    3.2251    1.5529 H   0  0  0  0  0  0  0  0  0  0  0  0
   -3.6009    4.3201    2.0312 H   0  0  0  0  0  0  0  0  0  0  0  0
    1.2114    0.6045    1.9541 N   0  0  0  0  0  0  0  0  0  0  0  0
    2.5421    0.4578    2.4983 C   0  0  2  0  0  0  0  0  0  0  0  0
    2.4200   -0.1912    3.8707 C   0  0  0  0  0  0  0  0  0  0  0  0
    1.3913   -0.1514    4.5424 O   0  0  0  0  0  0  0  0  0  0  0  0
    3.2524    1.7992    2.5926 C   0  0  0  0  0  0  0  0  0  0  0  0
    0.4906   -0.0421    2.2608 H   0  0  0  0  0  0  0  0  0  0  0  0
    3.0874   -0.2118    1.8242 H   0  0  0  0  0  0  0  0  0  0  0  0
    2.7206    2.4835    3.2637 H   0  0  0  0  0  0  0  0  0  0  0  0
    4.2705    1.6828    2.9783 H   0  0  0  0  0  0  0  0  0  0  0  0
    3.3129    2.2781    1.6093 H   0  0  0  0  0  0  0  0  0  0  0  0
    3.6083   -0.7829    4.2757 N   0  0  0  0  0  0  0  0  0  0  0  0
    3.7516   -1.4536    5.5468 C   0  0  0  0  0  0  0  0  0  0  0  0
    4.4057   -0.7844    3.6465 H   0  0  0  0  0  0  0  0  0  0  0  0
    4.1269   -0.7421    6.2971 H   0  0  0  0  0  0  0  0  0  0  0  0
    2.7744   -1.8434    5.8678 H   0  0  0  0  0  0  0  0  0  0  0  0
    4.4627   -2.2865    5.4436 H   0  0  0  0  0  0  0  0  0  0  0  0
  1  3  1  0  0  0  0
  1  7  1  0  0  0  0
  1  2  2  0  0  0  0
 37 38  1  0  0  0  0
 38 46  1  0  0  0  0
 38 39  2  0  0  0  0
  8  9  1  0  0  0  0
  9 17  1  0  0  0  0
  9 10  2  0  0  0  0
 18 19  1  0  0  0  0
 19 36  1  0  0  0  0
 19 20  2  0  0  0  0
 22 24  1  0  0  0  0
 37 40  1  0  0  0  0
  8 11  1  0  0  0  0
 21 23  1  0  0  0  0
 46 47  1  0  0  0  0
 21 22  1  0  0  0  0
 36 37  1  0  0  0  0
  7  8  1  0  0  0  0
 18 21  1  0  0  0  0
 17 18  1  0  0  0  0
  3  4  1  0  0  0  0
  3  5  1  0  0  0  0
  3  6  1  0  0  0  0
 24 33  1  0  0  0  0
 24 34  1  0  0  0  0
 24 35  1  0  0  0  0
 40 43  1  0  0  0  0
 40 44  1  0  0  0  0
 40 45  1  0  0  0  0
 11 14  1  0  0  0  0
 11 15  1  0  0  0  0
 11 16  1  0  0  0  0
 23 30  1  0  0  0  0
 23 31  1  0  0  0  0
 23 32  1  0  0  0  0
 47 49  1  0  0  0  0
 47 50  1  0  0  0  0
 47 51  1  0  0  0  0
 22 28  1  0  0  0  0
 22 29  1  0  0  0  0
 37 42  1  0  0  0  0
  8 13  1  0  0  0  0
 18 26  1  0  0  0  0
 21 27  1  0  0  0  0
 46 48  1  0  0  0  0
  7 12  1  0  0  0  0
 36 41  1  0  0  0  0
 17 25  1  0  0  0  0
M  END
$$$$

  -OEChem-05262214473D

 51 50  0     1  0  0  0  0  0999 V2000
    1.3524   -3.0009    1.4091 C   0  0  0  0  0  0  0  0  0  0  0  0
    1.8758   -1.9880    0.9598 O   0  0  0  0  0  0  0  0  0  0  0  0
    2.2030   -4.1782    1.7536 C   0  0  0  0  0  0  0  0  0  0  0  0
    2.3264   -4.8705    0.9053 H   0  0  0  0  0  0  0  0  0  0  0  0
    3.2257   -3.8876    2.0432 H   0  0  0  0  0  0  0  0  0  0  0  0
    1.8327   -4.8004    2.5839 H   0  0  0  0  0  0  0  0  0  0  0  0
    0.0005   -3.1873    1.6465 N   0  0  0  0  0  0  0  0  0  0  0  0
   -0.9949   -2.1807    1.3864 C   0  0  2  0  0  0  0  0  0  0  0  0
   -0.3083   -0.8216    1.4164 C   0  0  0  0  0  0  0  0  0  0  0  0
    0.7533   -0.6191    2.0022 O   0  0  0  0  0  0  0  0  0  0  0  0
   -2.1232   -2.2423    2.4042 C   0  0  0  0  0  0  0  0  0  0  0  0
   -0.3048   -4.0823    2.0245 H   0  0  0  0  0  0  0  0  0  0  0  0
   -1.3830   -2.3724    0.3801 H   0  0  0  0  0  0  0  0  0  0  0  0
   -1.7534   -2.0527    3.4185 H   0  0  0  0  0  0  0  0  0  0  0  0
   -2.8936   -1.4947    2.1882 H   0  0  0  0  0  0  0  0  0  0  0  0
   -2.5964   -3.2301    2.4022 H   0  0  0  0  0  0  0  0  0  0  0  0
   -1.0412    0.1517    0.7482 N   0  0  0  0  0  0  0  0  0  0  0  0
   -0.6079    1.5223    0.6467 C   0  0  2  0  0  0  0  0  0  0  0  0
    0.8692    1.5847    1.0334 C   0  0  0  0  0  0  0  0  0  0  0  0
    1.5758    2.5666    0.8145 O   0  0  0  0  0  0  0  0  0  0  0  0
   -1.4792    2.4948    1.4778 C   0  0  2  0  0  0  0  0  0  0  0  0
   -2.9434    2.5330    0.9867 C   0  0  0  0  0  0  0  0  0  0  0  0
   -0.8484    3.8936    1.4863 C   0  0  0  0  0  0  0  0  0  0  0  0
   -3.8828    3.2670    1.9351 C   0  0  0  0  0  0  0  0  0  0  0  0
   -1.9022   -0.1128    0.2753 H   0  0  0  0  0  0  0  0  0  0  0  0
   -0.6781    1.7811   -0.4175 H   0  0  0  0  0  0  0  0  0  0  0  0
   -1.4855    2.1397    2.5170 H   0  0  0  0  0  0  0  0  0  0  0  0
   -2.9919    3.0377    0.0150 H   0  0  0  0  0  0  0  0  0  0  0  0
   -3.3225    1.5154    0.8349 H   0  0  0  0  0  0  0  0  0  0  0  0
   -0.8108    4.3098    0.4738 H   0  0  0  0  0  0  0  0  0  0  0  0
   -1.4336    4.5884    2.0964 H   0  0  0  0  0  0  0  0  0  0  0  0
    0.1718    3.8717    1.8830 H   0  0  0  0  0  0  0  0  0  0  0  0
   -3.8848    2.8142    2.9307 H   0  0  0  0  0  0  0  0  0  0  0  0
   -4.9080    3.2251    1.5529 H   0  0  0  0  0  0  0  0  0  0  0  0
   -3.6009    4.3201    2.0312 H   0  0  0  0  0  0  0  0  0  0  0  0
    1.2909    0.4307    1.6784 N   0  0  0  0  0  0  0  0  0  0  0  0
    2.6383    0.2420    2.1655 C   0  0  2  0  0  0  0  0  0  0  0  0
    2.5841   -0.7359    3.3318 C   0  0  0  0  0  0  0  0  0  0  0  0
    1.5678   -0.9341    3.9943 O   0  0  0  0  0  0  0  0  0  0  0  0
    3.2627    1.5616    2.5913 C   0  0  0  0  0  0  0  0  0  0  0  0
    0.6190   -0.3187    1.8149 H   0  0  0  0  0  0  0  0  0  0  0  0
    3.2126   -0.2000    1.3440 H   0  0  0  0  0  0  0  0  0  0  0  0
    2.7009    2.0195    3.4136 H   0  0  0  0  0  0  0  0  0  0  0  0
    4.2934    1.4209    2.9333 H   0  0  0  0  0  0  0  0  0  0  0  0
    3.2738    2.2739    1.7592 H   0  0  0  0  0  0  0  0  0  0  0  0
    3.8153   -1.3293    3.5731 N   0  0  0  0  0  0  0  0  0  0  0  0
    4.0254   -2.2851    4.6353 C   0  0  0  0  0  0  0  0  0  0  0  0
    4.5991   -1.1203    2.9617 H   0  0  0  0  0  0  0  0  0  0  0  0
    4.3683   -1.7602    5.5391 H   0  0  0  0  0  0  0  0  0  0  0  0
    3.0814   -2.8072    4.8506 H   0  0  0  0  0  0  0  0  0  0  0  0
    4.7863   -3.0164    4.3251 H   0  0  0  0  0  0  0  0  0  0  0  0
  1  3  1  0  0  0  0
  1  7  1  0  0  0  0
  1  2  2  0  0  0  0
 37 38  1  0  0  0  0
 38 46  1  0  0  0  0
 38 39  2  0  0  0  0
  8  9  1  0  0  0  0
  9 17  1  0  0  0  0
  9 10  2  0  0  0  0
 18 19  1  0  0  0  0
 19 36  1  0  0  0  0
 19 20  2  0  0  0  0
 22 24  1  0  0  0  0
 37 40  1  0  0  0  0
  8 11  1  0  0  0  0
 21 23  1  0  0  0  0
 46 47  1  0  0  0  0
 21 22  1  0  0  0  0
 36 37  1  0  0  0  0
  7  8  1  0  0  0  0
 18 21  1  0  0  0  0
 17 18  1  0  0  0  0
  3  4  1  0  0  0  0
  3  5  1  0  0  0  0
  3  6  1  0  0  0  0
 24 33  1  0  0  0  0
 24 34  1  0  0  0  0
 24 35  1  0  0  0  0
 40 43  1  0  0  0  0
 40 44  1  0  0  0  0
 40 45  1  0  0  0  0
 11 14  1  0  0  0  0
 11 15  1  0  0  0  0
 11 16  1  0  0  0  0
 23 30  1  0  0  0  0
 23 31  1  0  0  0  0
 23 32  1  0  0  0  0
 47 49  1  0  0  0  0
 47 50  1  0  0  0  0
 47 51  1  0  0  0  0
 22 28  1  0  0  0  0
 22 29  1  0  0  0  0
 37 42  1  0  0  0  0
  8 13  1  0  0  0  0
 18 26  1  0  0  0  0
 21 27  1  0  0  0  0
 46 48  1  0  0  0  0
  7 12  1  0  0  0  0
 36 41  1  0  0  0  0
 17 25  1  0  0  0  0
M  END
$$$$

  -OEChem-05262214473D

 51 50  0     1  0  0  0  0  0999 V2000
    1.3524   -3.0009    1.4091 C   0  0  0  0  0  0  0  0  0  0  0  0
    1.8758   -1.9880    0.9598 O   0  0  0  0  0  0  0  0  0  0  0  0
    2.2030   -4.1782    1.7536 C   0  0  0  0  0  0  0  0  0  0  0  0
    2.3264   -4.8705    0.9053 H   0  0  0  0  0  0  0  0  0  0  0  0
    3.2257   -3.8876    2.0432 H   0  0  0  0  0  0  0  0  0  0  0  0
    1.8327   -4.8004    2.5839 H   0  0  0  0  0  0  0  0  0  0  0  0
    0.0005   -3.1873    1.6465 N   0  0  0  0  0  0  0  0  0  0  0  0
   -0.9949   -2.1807    1.3864 C   0  0  2  0  0  0  0  0  0  0  0  0
   -0.3083   -0.8216    1.4164 C   0  0  0  0  0  0  0  0  0  0  0  0
    0.7533   -0.6191    2.0022 O   0  0  0  0  0  0  0  0  0  0  0  0
   -2.1232   -2.2423    2.4042 C   0  0  0  0  0  0  0  0  0  0  0  0
   -0.3048   -4.0823    2.0245 H   0  0  0  0  0  0  0  0  0  0  0  0
   -1.3830   -2.3724    0.3801 H   0  0  0  0  0  0  0  0  0  0  0  0
   -1.7534   -2.0527    3.4185 H   0  0  0  0  0  0  0  0  0  0  0  0
   -2.8936   -1.4947    2.1882 H   0  0  0  0  0  0  0  0  0  0  0  0
   -2.5964   -3.2301    2.4022 H   0  0  0  0  0  0  0  0  0  0  0  0
   -1.0412    0.1517    0.7482 N   0  0  0  0  0  0  0  0  0  0  0  0
   -0.6079    1.5223    0.6467 C   0  0  2  0  0  0  0  0  0  0  0  0
    0.8692    1.5847    1.0334 C   0  0  0  0  0  0  0  0  0  0  0  0
    1.5071    2.6351    1.0659 O   0  0  0  0  0  0  0  0  0  0  0  0
   -1.4792    2.4948    1.4778 C   0  0  2  0  0  0  0  0  0  0  0  0
   -2.9434    2.5330    0.9867 C   0  0  0  0  0  0  0  0  0  0  0  0
   -0.8484    3.8936    1.4863 C   0  0  0  0  0  0  0  0  0  0  0  0
   -3.8828    3.2670    1.9351 C   0  0  0  0  0  0  0  0  0  0  0  0
   -1.9022   -0.1128    0.2753 H   0  0  0  0  0  0  0  0  0  0  0  0
   -0.6781    1.7811   -0.4175 H   0  0  0  0  0  0  0  0  0  0  0  0
   -1.4855    2.1397    2.5170 H   0  0  0  0  0  0  0  0  0  0  0  0
   -2.9919    3.0377    0.0150 H   0  0  0  0  0  0  0  0  0  0  0  0
   -3.3225    1.5154    0.8349 H   0  0  0  0  0  0  0  0  0  0  0  0
   -0.8108    4.3098    0.4738 H   0  0  0  0  0  0  0  0  0  0  0  0
   -1.4336    4.5884    2.0964 H   0  0  0  0  0  0  0  0  0  0  0  0
    0.1718    3.8717    1.8830 H   0  0  0  0  0  0  0  0  0  0  0  0
   -3.8848    2.8142    2.9307 H   0  0  0  0  0  0  0  0  0  0  0  0
   -4.9080    3.2251    1.5529 H   0  0  0  0  0  0  0  0  0  0  0  0
   -3.6009    4.3201    2.0312 H   0  0  0  0  0  0  0  0  0  0  0  0
    1.3761    0.3370    1.3678 N   0  0  0  0  0  0  0  0  0  0  0  0
    2.7419    0.1230    1.7891 C   0  0  2  0  0  0  0  0  0  0  0  0
    2.7725   -1.1166    2.6733 C   0  0  0  0  0  0  0  0  0  0  0  0
    1.7837   -1.5414    3.2673 O   0  0  0  0  0  0  0  0  0  0  0  0
    3.2883    1.3332    2.5305 C   0  0  0  0  0  0  0  0  0  0  0  0
    0.7564   -0.4659    1.3137 H   0  0  0  0  0  0  0  0  0  0  0  0
    3.3277   -0.0603    0.8818 H   0  0  0  0  0  0  0  0  0  0  0  0
    2.7139    1.5325    3.4425 H   0  0  0  0  0  0  0  0  0  0  0  0
    4.3321    1.1807    2.8240 H   0  0  0  0  0  0  0  0  0  0  0  0
    3.2379    2.2299    1.9034 H   0  0  0  0  0  0  0  0  0  0  0  0
    4.0436   -1.6677    2.7555 N   0  0  0  0  0  0  0  0  0  0  0  0
    4.3346   -2.8424    3.5439 C   0  0  0  0  0  0  0  0  0  0  0  0
    4.8007   -1.2607    2.2143 H   0  0  0  0  0  0  0  0  0  0  0  0
    4.6602   -2.5382    4.5496 H   0  0  0  0  0  0  0  0  0  0  0  0
    3.4303   -3.4635    3.6236 H   0  0  0  0  0  0  0  0  0  0  0  0
    5.1349   -3.4204    3.0587 H   0  0  0  0  0  0  0  0  0  0  0  0
  1  3  1  0  0  0  0
  1  7  1  0  0  0  0
  1  2  2  0  0  0  0
 37 38  1  0  0  0  0
 38 46  1  0  0  0  0
 38 39  2  0  0  0  0
  8  9  1  0  0  0  0
  9 17  1  0  0  0  0
  9 10  2  0  0  0  0
 18 19  1  0  0  0  0
 19 36  1  0  0  0  0
 19 20  2  0  0  0  0
 22 24  1  0  0  0  0
 37 40  1  0  0  0  0
  8 11  1  0  0  0  0
 21 23  1  0  0  0  0
 46 47  1  0  0  0  0
 21 22  1  0  0  0  0
 36 37  1  0  0  0  0
  7  8  1  0  0  0  0
 18 21  1  0  0  0  0
 17 18  1  0  0  0  0
  3  4  1  0  0  0  0
  3  5  1  0  0  0  0
  3  6  1  0  0  0  0
 24 33  1  0  0  0  0
 24 34  1  0  0  0  0
 24 35  1  0  0  0  0
 40 43  1  0  0  0  0
 40 44  1  0  0  0  0
 40 45  1  0  0  0  0
 11 14  1  0  0  0  0
 11 15  1  0  0  0  0
 11 16  1  0  0  0  0
 23 30  1  0  0  0  0
 23 31  1  0  0  0  0
 23 32  1  0  0  0  0
 47 49  1  0  0  0  0
 47 50  1  0  0  0  0
 47 51  1  0  0  0  0
 22 28  1  0  0  0  0
 22 29  1  0  0  0  0
 37 42  1  0  0  0  0
  8 13  1  0  0  0  0
 18 26  1  0  0  0  0
 21 27  1  0  0  0  0
 46 48  1  0  0  0  0
  7 12  1  0  0  0  0
 36 41  1  0  0  0  0
 17 25  1  0  0  0  0
M  END
$$$$

  -OEChem-05262214473D

 51 50  0     1  0  0  0  0  0999 V2000
    1.3524   -3.0009    1.4091 C   0  0  0  0  0  0  0  0  0  0  0  0
    1.8758   -1.9880    0.9598 O   0  0  0  0  0  0  0  0  0  0  0  0
    2.2030   -4.1782    1.7536 C   0  0  0  0  0  0  0  0  0  0  0  0
    2.3264   -4.8705    0.9053 H   0  0  0  0  0  0  0  0  0  0  0  0
    3.2257   -3.8876    2.0432 H   0  0  0  0  0  0  0  0  0  0  0  0
    1.8327   -4.8004    2.5839 H   0  0  0  0  0  0  0  0  0  0  0  0
    0.0005   -3.1873    1.6465 N   0  0  0  0  0  0  0  0  0  0  0  0
   -0.9949   -2.1807    1.3864 C   0  0  2  0  0  0  0  0  0  0  0  0
   -0.3083   -0.8216    1.4164 C   0  0  0  0  0  0  0  0  0  0  0  0
    0.7533   -0.6191    2.0022 O   0  0  0  0  0  0  0  0  0  0  0  0
   -2.1232   -2.2423    2.4042 C   0  0  0  0  0  0  0  0  0  0  0  0
   -0.3048   -4.0823    2.0245 H   0  0  0  0  0  0  0  0  0  0  0  0
   -1.3830   -2.3724    0.3801 H   0  0  0  0  0  0  0  0  0  0  0  0
   -1.7534   -2.0527    3.4185 H   0  0  0  0  0  0  0  0  0  0  0  0
   -2.8936   -1.4947    2.1882 H   0  0  0  0  0  0  0  0  0  0  0  0
   -2.5964   -3.2301    2.4022 H   0  0  0  0  0  0  0  0  0  0  0  0
   -1.0412    0.1517    0.7482 N   0  0  0  0  0  0  0  0  0  0  0  0
   -0.6079    1.5223    0.6467 C   0  0  2  0  0  0  0  0  0  0  0  0
    0.8692    1.5847    1.0334 C   0  0  0  0  0  0  0  0  0  0  0  0
    1.4390    2.6339    1.3266 O   0  0  0  0  0  0  0  0  0  0  0  0
   -1.4792    2.4948    1.4778 C   0  0  2  0  0  0  0  0  0  0  0  0
   -2.9434    2.5330    0.9867 C   0  0  0  0  0  0  0  0  0  0  0  0
   -0.8484    3.8936    1.4863 C   0  0  0  0  0  0  0  0  0  0  0  0
   -3.8828    3.2670    1.9351 C   0  0  0  0  0  0  0  0  0  0  0  0
   -1.9022   -0.1128    0.2753 H   0  0  0  0  0  0  0  0  0  0  0  0
   -0.6781    1.7811   -0.4175 H   0  0  0  0  0  0  0  0  0  0  0  0
   -1.4855    2.1397    2.5170 H   0  0  0  0  0  0  0  0  0  0  0  0
   -2.9919    3.0377    0.0150 H   0  0  0  0  0  0  0  0  0  0  0  0
   -3.3225    1.5154    0.8349 H   0  0  0  0  0  0  0  0  0  0  0  0
   -0.8108    4.3098    0.4738 H   0  0  0  0  0  0  0  0  0  0  0  0
   -1.4336    4.5884    2.0964 H   0  0  0  0  0  0  0  0  0  0  0  0
    0.1718    3.8717    1.8830 H   0  0  0  0  0  0  0  0  0  0  0  0
   -3.8848    2.8142    2.9307 H   0  0  0  0  0  0  0  0  0  0  0  0
   -4.9080    3.2251    1.5529 H   0  0  0  0  0  0  0  0  0  0  0  0
   -3.6009    4.3201    2.0312 H   0  0  0  0  0  0  0  0  0  0  0  0
    1.4614    0.3298    1.0434 N   0  0  0  0  0  0  0  0  0  0  0  0
    2.8457    0.1091    1.3946 C   0  0  2  0  0  0  0  0  0  0  0  0
    2.9725   -1.3072    1.9400 C   0  0  0  0  0  0  0  0  0  0  0  0
    2.0244   -1.9321    2.4109 O   0  0  0  0  0  0  0  0  0  0  0  0
    3.3273    1.1294    2.4143 C   0  0  0  0  0  0  0  0  0  0  0  0
    0.8935   -0.4737    0.7913 H   0  0  0  0  0  0  0  0  0  0  0  0
    3.4249    0.1979    0.4690 H   0  0  0  0  0  0  0  0  0  0  0  0
    2.7587    1.0557    3.3485 H   0  0  0  0  0  0  0  0  0  0  0  0
    4.3841    0.9785    2.6579 H   0  0  0  0  0  0  0  0  0  0  0  0
    3.2077    2.1489    2.0320 H   0  0  0  0  0  0  0  0  0  0  0  0
    4.2777   -1.7751    1.8787 N   0  0  0  0  0  0  0  0  0  0  0  0
    4.6582   -3.0873    2.3470 C   0  0  0  0  0  0  0  0  0  0  0  0
    4.9967   -1.1962    1.4550 H   0  0  0  0  0  0  0  0  0  0  0  0
    4.9826   -3.0230    3.3961 H   0  0  0  0  0  0  0  0  0  0  0  0
    3.7973   -3.7677    2.2706 H   0  0  0  0  0  0  0  0  0  0  0  0
    5.4846   -3.4711    1.7307 H   0  0  0  0  0  0  0  0  0  0  0  0
  1  3  1  0  0  0  0
  1  7  1  0  0  0  0
  1  2  2  0  0  0  0
 37 38  1  0  0  0  0
 38 46  1  0  0  0  0
 38 39  2  0  0  0  0
  8  9  1  0  0  0  0
  9 17  1  0  0  0  0
  9 10  2  0  0  0  0
 18 19  1  0  0  0  0
 19 36  1  0  0  0  0
 19 20  2  0  0  0  0
 22 24  1  0  0  0  0
 37 40  1  0  0  0  0
  8 11  1  0  0  0  0
 21 23  1  0  0  0  0
 46 47  1  0  0  0  0
 21 22  1  0  0  0  0
 36 37  1  0  0  0  0
  7  8  1  0  0  0  0
 18 21  1  0  0  0  0
 17 18  1  0  0  0  0
  3  4  1  0  0  0  0
  3  5  1  0  0  0  0
  3  6  1  0  0  0  0
 24 33  1  0  0  0  0
 24 34  1  0  0  0  0
 24 35  1  0  0  0  0
 40 43  1  0  0  0  0
 40 44  1  0  0  0  0
 40 45  1  0  0  0  0
 11 14  1  0  0  0  0
 11 15  1  0  0  0  0
 11 16  1  0  0  0  0
 23 30  1  0  0  0  0
 23 31  1  0  0  0  0
 23 32  1  0  0  0  0
 47 49  1  0  0  0  0
 47 50  1  0  0  0  0
 47 51  1  0  0  0  0
 22 28  1  0  0  0  0
 22 29  1  0  0  0  0
 37 42  1  0  0  0  0
  8 13  1  0  0  0  0
 18 26  1  0  0  0  0
 21 27  1  0  0  0  0
 46 48  1  0  0  0  0
  7 12  1  0  0  0  0
 36 41  1  0  0  0  0
 17 25  1  0  0  0  0
M  END
$$$$

  -OEChem-05262214473D

 51 50  0     1  0  0  0  0  0999 V2000
    1.3524   -3.0009    1.4091 C   0  0  0  0  0  0  0  0  0  0  0  0
    1.8758   -1.9880    0.9598 O   0  0  0  0  0  0  0  0  0  0  0  0
    2.2030   -4.1782    1.7536 C   0  0  0  0  0  0  0  0  0  0  0  0
    2.3264   -4.8705    0.9053 H   0  0  0  0  0  0  0  0  0  0  0  0
    3.2257   -3.8876    2.0432 H   0  0  0  0  0  0  0  0  0  0  0  0
    1.8327   -4.8004    2.5839 H   0  0  0  0  0  0  0  0  0  0  0  0
    0.0005   -3.1873    1.6465 N   0  0  0  0  0  0  0  0  0  0  0  0
   -0.9949   -2.1807    1.3864 C   0  0  2  0  0  0  0  0  0  0  0  0
   -0.3083   -0.8216    1.4164 C   0  0  0  0  0  0  0  0  0  0  0  0
    0.7533   -0.6191    2.0022 O   0  0  0  0  0  0  0  0  0  0  0  0
   -2.1232   -2.2423    2.4042 C   0  0  0  0  0  0  0  0  0  0  0  0
   -0.3048   -4.0823    2.0245 H   0  0  0  0  0  0  0  0  0  0  0  0
   -1.3830   -2.3724    0.3801 H   0  0  0  0  0  0  0  0  0  0  0  0
   -1.7534   -2.0527    3.4185 H   0  0  0  0  0  0  0  0  0  0  0  0
   -2.8936   -1.4947    2.1882 H   0  0  0  0  0  0  0  0  0  0  0  0
   -2.5964   -3.2301    2.4022 H   0  0  0  0  0  0  0  0  0  0  0  0
   -1.0412    0.1517    0.7482 N   0  0  0  0  0  0  0  0  0  0  0  0
   -0.6079    1.5223    0.6467 C   0  0  2  0  0  0  0  0  0  0  0  0
    0.8692    1.5847    1.0334 C   0  0  0  0  0  0  0  0  0  0  0  0
    1.3759    2.5630    1.5788 O   0  0  0  0  0  0  0  0  0  0  0  0
   -1.4792    2.4948    1.4778 C   0  0  2  0  0  0  0  0  0  0  0  0
   -2.9434    2.5330    0.9867 C   0  0  0  0  0  0  0  0  0  0  0  0
   -0.8484    3.8936    1.4863 C   0  0  0  0  0  0  0  0  0  0  0  0
   -3.8828    3.2670    1.9351 C   0  0  0  0  0  0  0  0  0  0  0  0
   -1.9022   -0.1128    0.2753 H   0  0  0  0  0  0  0  0  0  0  0  0
   -0.6781    1.7811   -0.4175 H   0  0  0  0  0  0  0  0  0  0  0  0
   -1.4855    2.1397    2.5170 H   0  0  0  0  0  0  0  0  0  0  0  0
   -2.9919    3.0377    0.0150 H   0  0  0  0  0  0  0  0  0  0  0  0
   -3.3225    1.5154    0.8349 H   0  0  0  0  0  0  0  0  0  0  0  0
   -0.8108    4.3098    0.4738 H   0  0  0  0  0  0  0  0  0  0  0  0
   -1.4336    4.5884    2.0964 H   0  0  0  0  0  0  0  0  0  0  0  0
    0.1718    3.8717    1.8830 H   0  0  0  0  0  0  0  0  0  0  0  0
   -3.8848    2.8142    2.9307 H   0  0  0  0  0  0  0  0  0  0  0  0
   -4.9080    3.2251    1.5529 H   0  0  0  0  0  0  0  0  0  0  0  0
   -3.6009    4.3201    2.0312 H   0  0  0  0  0  0  0  0  0  0  0  0
    1.5407    0.4096    0.7274 N   0  0  0  0  0  0  0  0  0  0  0  0
    2.9428    0.2012    1.0090 C   0  0  2  0  0  0  0  0  0  0  0  0
    3.1705   -1.2947    1.1819 C   0  0  0  0  0  0  0  0  0  0  0  0
    2.2734   -2.0793    1.4833 O   0  0  0  0  0  0  0  0  0  0  0  0
    3.3771    0.9642    2.2508 C   0  0  0  0  0  0  0  0  0  0  0  0
    1.0209   -0.3416    0.2833 H   0  0  0  0  0  0  0  0  0  0  0  0
    3.4974    0.5569    0.1339 H   0  0  0  0  0  0  0  0  0  0  0  0
    2.8321    0.6216    3.1379 H   0  0  0  0  0  0  0  0  0  0  0  0
    4.4459    0.8282    2.4464 H   0  0  0  0  0  0  0  0  0  0  0  0
    3.1851    2.0365    2.1363 H   0  0  0  0  0  0  0  0  0  0  0  0
    4.5015   -1.6442    1.0024 N   0  0  0  0  0  0  0  0  0  0  0  0
    4.9743   -3.0033    1.1262 C   0  0  0  0  0  0  0  0  0  0  0  0
    5.1738   -0.9310    0.7357 H   0  0  0  0  0  0  0  0  0  0  0  0
    5.3136   -3.1816    2.1572 H   0  0  0  0  0  0  0  0  0  0  0  0
    4.1574   -3.6990    0.8837 H   0  0  0  0  0  0  0  0  0  0  0  0
    5.8118   -3.1648    0.4316 H   0  0  0  0  0  0  0  0  0  0  0  0
  1  3  1  0  0  0  0
  1  7  1  0  0  0  0
  1  2  2  0  0  0  0
 37 38  1  0  0  0  0
 38 46  1  0  0  0  0
 38 39  2  0  0  0  0
  8  9  1  0  0  0  0
  9 17  1  0  0  0  0
  9 10  2  0  0  0  0
 18 19  1  0  0  0  0
 19 36  1  0  0  0  0
 19 20  2  0  0  0  0
 22 24  1  0  0  0  0
 37 40  1  0  0  0  0
  8 11  1  0  0  0  0
 21 23  1  0  0  0  0
 46 47  1  0  0  0  0
 21 22  1  0  0  0  0
 36 37  1  0  0  0  0
  7  8  1  0  0  0  0
 18 21  1  0  0  0  0
 17 18  1  0  0  0  0
  3  4  1  0  0  0  0
  3  5  1  0  0  0  0
  3  6  1  0  0  0  0
 24 33  1  0  0  0  0
 24 34  1  0  0  0  0
 24 35  1  0  0  0  0
 40 43  1  0  0  0  0
 40 44  1  0  0  0  0
 40 45  1  0  0  0  0
 11 14  1  0  0  0  0
 11 15  1  0  0  0  0
 11 16  1  0  0  0  0
 23 30  1  0  0  0  0
 23 31  1  0  0  0  0
 23 32  1  0  0  0  0
 47 49  1  0  0  0  0
 47 50  1  0  0  0  0
 47 51  1  0  0  0  0
 22 28  1  0  0  0  0
 22 29  1  0  0  0  0
 37 42  1  0  0  0  0
  8 13  1  0  0  0  0
 18 26  1  0  0  0  0
 21 27  1  0  0  0  0
 46 48  1  0  0  0  0
  7 12  1  0  0  0  0
 36 41  1  0  0  0  0
 17 25  1  0  0  0  0
M  END
$$$$

  -OEChem-05262214473D

 51 50  0     1  0  0  0  0  0999 V2000
    1.3524   -3.0009    1.4091 C   0  0  0  0  0  0  0  0  0  0  0  0
    1.8758   -1.9880    0.9598 O   0  0  0  0  0  0  0  0  0  0  0  0
    2.2030   -4.1782    1.7536 C   0  0  0  0  0  0  0  0  0  0  0  0
    2.3264   -4.8705    0.9053 H   0  0  0  0  0  0  0  0  0  0  0  0
    3.2257   -3.8876    2.0432 H   0  0  0  0  0  0  0  0  0  0  0  0
    1.8327   -4.8004    2.5839 H   0  0  0  0  0  0  0  0  0  0  0  0
    0.0005   -3.1873    1.6465 N   0  0  0  0  0  0  0  0  0  0  0  0
   -0.9949   -2.1807    1.3864 C   0  0  2  0  0  0  0  0  0  0  0  0
   -0.3083   -0.8216    1.4164 C   0  0  0  0  0  0  0  0  0  0  0  0
    0.7533   -0.6191    2.0022 O   0  0  0  0  0  0  0  0  0  0  0  0
   -2.1232   -2.2423    2.4042 C   0  0  0  0  0  0  0  0  0  0  0  0
   -0.3048   -4.0823    2.0245 H   0  0  0  0  0  0  0  0  0  0  0  0
   -1.3830   -2.3724    0.3801 H   0  0  0  0  0  0  0  0  0  0  0  0
   -1.7534   -2.0527    3.4185 H   0  0  0  0  0  0  0  0  0  0  0  0
   -2.8936   -1.4947    2.1882 H   0  0  0  0  0  0  0  0  0  0  0  0
   -2.5964   -3.2301    2.4022 H   0  0  0  0  0  0  0  0  0  0  0  0
   -1.0412    0.1517    0.7482 N   0  0  0  0  0  0  0  0  0  0  0  0
   -0.6079    1.5223    0.6467 C   0  0  2  0  0  0  0  0  0  0  0  0
    0.8692    1.5847    1.0334 C   0  0  0  0  0  0  0  0  0  0  0  0
    1.3223    2.4274    1.8054 O   0  0  0  0  0  0  0  0  0  0  0  0
   -1.4792    2.4948    1.4778 C   0  0  2  0  0  0  0  0  0  0  0  0
   -2.9434    2.5330    0.9867 C   0  0  0  0  0  0  0  0  0  0  0  0
   -0.8484    3.8936    1.4863 C   0  0  0  0  0  0  0  0  0  0  0  0
   -3.8828    3.2670    1.9351 C   0  0  0  0  0  0  0  0  0  0  0  0
   -1.9022   -0.1128    0.2753 H   0  0  0  0  0  0  0  0  0  0  0  0
   -0.6781    1.7811   -0.4175 H   0  0  0  0  0  0  0  0  0  0  0  0
   -1.4855    2.1397    2.5170 H   0  0  0  0  0  0  0  0  0  0  0  0
   -2.9919    3.0377    0.0150 H   0  0  0  0  0  0  0  0  0  0  0  0
   -3.3225    1.5154    0.8349 H   0  0  0  0  0  0  0  0  0  0  0  0
   -0.8108    4.3098    0.4738 H   0  0  0  0  0  0  0  0  0  0  0  0
   -1.4336    4.5884    2.0964 H   0  0  0  0  0  0  0  0  0  0  0  0
    0.1718    3.8717    1.8830 H   0  0  0  0  0  0  0  0  0  0  0  0
   -3.8848    2.8142    2.9307 H   0  0  0  0  0  0  0  0  0  0  0  0
   -4.9080    3.2251    1.5529 H   0  0  0  0  0  0  0  0  0  0  0  0
   -3.6009    4.3201    2.0312 H   0  0  0  0  0  0  0  0  0  0  0  0
    1.6088    0.5709    0.4412 N   0  0  0  0  0  0  0  0  0  0  0  0
    3.0264    0.3929    0.6586 C   0  0  2  0  0  0  0  0  0  0  0  0
    3.3528   -1.0801    0.4507 C   0  0  0  0  0  0  0  0  0  0  0  0
    2.5138   -1.9732    0.5479 O   0  0  0  0  0  0  0  0  0  0  0  0
    3.4343    0.8488    2.0509 C   0  0  0  0  0  0  0  0  0  0  0  0
    1.1300   -0.0785   -0.1757 H   0  0  0  0  0  0  0  0  0  0  0  0
    3.5405    0.9922   -0.1008 H   0  0  0  0  0  0  0  0  0  0  0  0
    2.9293    0.2598    2.8252 H   0  0  0  0  0  0  0  0  0  0  0  0
    4.5131    0.7400    2.2039 H   0  0  0  0  0  0  0  0  0  0  0  0
    3.1718    1.9004    2.2092 H   0  0  0  0  0  0  0  0  0  0  0  0
    4.6999   -1.2839    0.1864 N   0  0  0  0  0  0  0  0  0  0  0  0
    5.2611   -2.5961   -0.0353 C   0  0  0  0  0  0  0  0  0  0  0  0
    5.3199   -0.4834    0.1053 H   0  0  0  0  0  0  0  0  0  0  0  0
    5.6306   -3.0032    0.9174 H   0  0  0  0  0  0  0  0  0  0  0  0
    4.4862   -3.2621   -0.4426 H   0  0  0  0  0  0  0  0  0  0  0  0
    6.0940   -2.5226   -0.7501 H   0  0  0  0  0  0  0  0  0  0  0  0
  1  3  1  0  0  0  0
  1  7  1  0  0  0  0
  1  2  2  0  0  0  0
 37 38  1  0  0  0  0
 38 46  1  0  0  0  0
 38 39  2  0  0  0  0
  8  9  1  0  0  0  0
  9 17  1  0  0  0  0
  9 10  2  0  0  0  0
 18 19  1  0  0  0  0
 19 36  1  0  0  0  0
 19 20  2  0  0  0  0
 22 24  1  0  0  0  0
 37 40  1  0  0  0  0
  8 11  1  0  0  0  0
 21 23  1  0  0  0  0
 46 47  1  0  0  0  0
 21 22  1  0  0  0  0
 36 37  1  0  0  0  0
  7  8  1  0  0  0  0
 18 21  1  0  0  0  0
 17 18  1  0  0  0  0
  3  4  1  0  0  0  0
  3  5  1  0  0  0  0
  3  6  1  0  0  0  0
 24 33  1  0  0  0  0
 24 34  1  0  0  0  0
 24 35  1  0  0  0  0
 40 43  1  0  0  0  0
 40 44  1  0  0  0  0
 40 45  1  0  0  0  0
 11 14  1  0  0  0  0
 11 15  1  0  0  0  0
 11 16  1  0  0  0  0
 23 30  1  0  0  0  0
 23 31  1  0  0  0  0
 23 32  1  0  0  0  0
 47 49  1  0  0  0  0
 47 50  1  0  0  0  0
 47 51  1  0  0  0  0
 22 28  1  0  0  0  0
 22 29  1  0  0  0  0
 37 42  1  0  0  0  0
  8 13  1  0  0  0  0
 18 26  1  0  0  0  0
 21 27  1  0  0  0  0
 46 48  1  0  0  0  0
  7 12  1  0  0  0  0
 36 41  1  0  0  0  0
 17 25  1  0  0  0  0
M  END
$$$$

  -OEChem-05262214473D

 51 50  0     1  0  0  0  0  0999 V2000
    1.3524   -3.0009    1.4091 C   0  0  0  0  0  0  0  0  0  0  0  0
    1.8758   -1.9880    0.9598 O   0  0  0  0  0  0  0  0  0  0  0  0
    2.2030   -4.1782    1.7536 C   0  0  0  0  0  0  0  0  0  0  0  0
    2.3264   -4.8705    0.9053 H   0  0  0  0  0  0  0  0  0  0  0  0
    3.2257   -3.8876    2.0432 H   0  0  0  0  0  0  0  0  0  0  0  0
    1.8327   -4.8004    2.5839 H   0  0  0  0  0  0  0  0  0  0  0  0
    0.0005   -3.1873    1.6465 N   0  0  0  0  0  0  0  0  0  0  0  0
   -0.9949   -2.1807    1.3864 C   0  0  2  0  0  0  0  0  0  0  0  0
   -0.3083   -0.8216    1.4164 C   0  0  0  0  0  0  0  0  0  0  0  0
    0.7533   -0.6191    2.0022 O   0  0  0  0  0  0  0  0  0  0  0  0
   -2.1232   -2.2423    2.4042 C   0  0  0  0  0  0  0  0  0  0  0  0
   -0.3048   -4.0823    2.0245 H   0  0  0  0  0  0  0  0  0  0  0  0
   -1.3830   -2.3724    0.3801 H   0  0  0  0  0  0  0  0  0  0  0  0
   -1.7534   -2.0527    3.4185 H   0  0  0  0  0  0  0  0  0  0  0  0
   -2.8936   -1.4947    2.1882 H   0  0  0  0  0  0  0  0  0  0  0  0
   -2.5964   -3.2301    2.4022 H   0  0  0  0  0  0  0  0  0  0  0  0
   -1.0412    0.1517    0.7482 N   0  0  0  0  0  0  0  0  0  0  0  0
   -0.6079    1.5223    0.6467 C   0  0  2  0  0  0  0  0  0  0  0  0
    0.8692    1.5847    1.0334 C   0  0  0  0  0  0  0  0  0  0  0  0
    1.2819    2.2361    1.9909 O   0  0  0  0  0  0  0  0  0  0  0  0
   -1.4792    2.4948    1.4778 C   0  0  2  0  0  0  0  0  0  0  0  0
   -2.9434    2.5330    0.9867 C   0  0  0  0  0  0  0  0  0  0  0  0
   -0.8484    3.8936    1.4863 C   0  0  0  0  0  0  0  0  0  0  0  0
   -3.8828    3.2670    1.9351 C   0  0  0  0  0  0  0  0  0  0  0  0
   -1.9022   -0.1128    0.2753 H   0  0  0  0  0  0  0  0  0  0  0  0
   -0.6781    1.7811   -0.4175 H   0  0  0  0  0  0  0  0  0  0  0  0
   -1.4855    2.1397    2.5170 H   0  0  0  0  0  0  0  0  0  0  0  0
   -2.9919    3.0377    0.0150 H   0  0  0  0  0  0  0  0  0  0  0  0
   -3.3225    1.5154    0.8349 H   0  0  0  0  0  0  0  0  0  0  0  0
   -0.8108    4.3098    0.4738 H   0  0  0  0  0  0  0  0  0  0  0  0
   -1.4336    4.5884    2.0964 H   0  0  0  0  0  0  0  0  0  0  0  0
    0.1718    3.8717    1.8830 H   0  0  0  0  0  0  0  0  0  0  0  0
   -3.8848    2.8142    2.9307 H   0  0  0  0  0  0  0  0  0  0  0  0
   -4.9080    3.2251    1.5529 H   0  0  0  0  0  0  0  0  0  0  0  0
   -3.6009    4.3201    2.0312 H   0  0  0  0  0  0  0  0  0  0  0  0
    1.6610    0.8027    0.2045 N   0  0  0  0  0  0  0  0  0  0  0  0
    3.0910    0.6713    0.3672 C   0  0  2  0  0  0  0  0  0  0  0  0
    3.5072   -0.6779   -0.2038 C   0  0  0  0  0  0  0  0  0  0  0  0
    2.7292   -1.6210   -0.3316 O   0  0  0  0  0  0  0  0  0  0  0  0
    3.4950    0.7911    1.8284 C   0  0  0  0  0  0  0  0  0  0  0  0
    1.2132    0.2976   -0.5544 H   0  0  0  0  0  0  0  0  0  0  0  0
    3.5511    1.4742   -0.2190 H   0  0  0  0  0  0  0  0  0  0  0  0
    3.0435   -0.0051    2.4315 H   0  0  0  0  0  0  0  0  0  0  0  0
    4.5812    0.7198    1.9468 H   0  0  0  0  0  0  0  0  0  0  0  0
    3.1686    1.7498    2.2456 H   0  0  0  0  0  0  0  0  0  0  0  0
    4.8594   -0.7187   -0.5138 N   0  0  0  0  0  0  0  0  0  0  0  0
    5.4993   -1.8934   -1.0584 C   0  0  0  0  0  0  0  0  0  0  0  0
    5.4251    0.1163   -0.3931 H   0  0  0  0  0  0  0  0  0  0  0  0
    5.9121   -2.4999   -0.2389 H   0  0  0  0  0  0  0  0  0  0  0  0
    4.7611   -2.4868   -1.6178 H   0  0  0  0  0  0  0  0  0  0  0  0
    6.3121   -1.5881   -1.7339 H   0  0  0  0  0  0  0  0  0  0  0  0
  1  3  1  0  0  0  0
  1  7  1  0  0  0  0
  1  2  2  0  0  0  0
 37 38  1  0  0  0  0
 38 46  1  0  0  0  0
 38 39  2  0  0  0  0
  8  9  1  0  0  0  0
  9 17  1  0  0  0  0
  9 10  2  0  0  0  0
 18 19  1  0  0  0  0
 19 36  1  0  0  0  0
 19 20  2  0  0  0  0
 22 24  1  0  0  0  0
 37 40  1  0  0  0  0
  8 11  1  0  0  0  0
 21 23  1  0  0  0  0
 46 47  1  0  0  0  0
 21 22  1  0  0  0  0
 36 37  1  0  0  0  0
  7  8  1  0  0  0  0
 18 21  1  0  0  0  0
 17 18  1  0  0  0  0
  3  4  1  0  0  0  0
  3  5  1  0  0  0  0
  3  6  1  0  0  0  0
 24 33  1  0  0  0  0
 24 34  1  0  0  0  0
 24 35  1  0  0  0  0
 40 43  1  0  0  0  0
 40 44  1  0  0  0  0
 40 45  1  0  0  0  0
 11 14  1  0  0  0  0
 11 15  1  0  0  0  0
 11 16  1  0  0  0  0
 23 30  1  0  0  0  0
 23 31  1  0  0  0  0
 23 32  1  0  0  0  0
 47 49  1  0  0  0  0
 47 50  1  0  0  0  0
 47 51  1  0  0  0  0
 22 28  1  0  0  0  0
 22 29  1  0  0  0  0
 37 42  1  0  0  0  0
  8 13  1  0  0  0  0
 18 26  1  0  0  0  0
 21 27  1  0  0  0  0
 46 48  1  0  0  0  0
  7 12  1  0  0  0  0
 36 41  1  0  0  0  0
 17 25  1  0  0  0  0
M  END
$$$$

  -OEChem-05262214473D

 51 50  0     1  0  0  0  0  0999 V2000
    1.3524   -3.0009    1.4091 C   0  0  0  0  0  0  0  0  0  0  0  0
    1.8758   -1.9880    0.9598 O   0  0  0  0  0  0  0  0  0  0  0  0
    2.2030   -4.1782    1.7536 C   0  0  0  0  0  0  0  0  0  0  0  0
    2.3264   -4.8705    0.9053 H   0  0  0  0  0  0  0  0  0  0  0  0
    3.2257   -3.8876    2.0432 H   0  0  0  0  0  0  0  0  0  0  0  0
    1.8327   -4.8004    2.5839 H   0  0  0  0  0  0  0  0  0  0  0  0
    0.0005   -3.1873    1.6465 N   0  0  0  0  0  0  0  0  0  0  0  0
   -0.9949   -2.1807    1.3864 C   0  0  2  0  0  0  0  0  0  0  0  0
   -0.3083   -0.8216    1.4164 C   0  0  0  0  0  0  0  0  0  0  0  0
    0.7533   -0.6191    2.0022 O   0  0  0  0  0  0  0  0  0  0  0  0
   -2.1232   -2.2423    2.4042 C   0  0  0  0  0  0  0  0  0  0  0  0
   -0.3048   -4.0823    2.0245 H   0  0  0  0  0  0  0  0  0  0  0  0
   -1.3830   -2.3724    0.3801 H   0  0  0  0  0  0  0  0  0  0  0  0
   -1.7534   -2.0527    3.4185 H   0  0  0  0  0  0  0  0  0  0  0  0
   -2.8936   -1.4947    2.1882 H   0  0  0  0  0  0  0  0  0  0  0  0
   -2.5964   -3.2301    2.4022 H   0  0  0  0  0  0  0  0  0  0  0  0
   -1.0412    0.1517    0.7482 N   0  0  0  0  0  0  0  0  0  0  0  0
   -0.6079    1.5223    0.6467 C   0  0  2  0  0  0  0  0  0  0  0  0
    0.8692    1.5847    1.0334 C   0  0  0  0  0  0  0  0  0  0  0  0
    1.2572    2.0023    2.1226 O   0  0  0  0  0  0  0  0  0  0  0  0
   -1.4792    2.4948    1.4778 C   0  0  2  0  0  0  0  0  0  0  0  0
   -2.9434    2.5330    0.9867 C   0  0  0  0  0  0  0  0  0  0  0  0
   -0.8484    3.8936    1.4863 C   0  0  0  0  0  0  0  0  0  0  0  0
   -3.8828    3.2670    1.9351 C   0  0  0  0  0  0  0  0  0  0  0  0
   -1.9022   -0.1128    0.2753 H   0  0  0  0  0  0  0  0  0  0  0  0
   -0.6781    1.7811   -0.4175 H   0  0  0  0  0  0  0  0  0  0  0  0
   -1.4855    2.1397    2.5170 H   0  0  0  0  0  0  0  0  0  0  0  0
   -2.9919    3.0377    0.0150 H   0  0  0  0  0  0  0  0  0  0  0  0
   -3.3225    1.5154    0.8349 H   0  0  0  0  0  0  0  0  0  0  0  0
   -0.8108    4.3098    0.4738 H   0  0  0  0  0  0  0  0  0  0  0  0
   -1.4336    4.5884    2.0964 H   0  0  0  0  0  0  0  0  0  0  0  0
    0.1718    3.8717    1.8830 H   0  0  0  0  0  0  0  0  0  0  0  0
   -3.8848    2.8142    2.9307 H   0  0  0  0  0  0  0  0  0  0  0  0
   -4.9080    3.2251    1.5529 H   0  0  0  0  0  0  0  0  0  0  0  0
   -3.6009    4.3201    2.0312 H   0  0  0  0  0  0  0  0  0  0  0  0
    1.6937    1.0893    0.0333 N   0  0  0  0  0  0  0  0  0  0  0  0
    3.1320    1.0173    0.1546 C   0  0  2  0  0  0  0  0  0  0  0  0
    3.6230   -0.1155   -0.7371 C   0  0  0  0  0  0  0  0  0  0  0  0
    2.9049   -1.0466   -1.0953 O   0  0  0  0  0  0  0  0  0  0  0  0
    3.5550    0.7950    1.5983 C   0  0  0  0  0  0  0  0  0  0  0  0
    1.2650    0.7610   -0.8270 H   0  0  0  0  0  0  0  0  0  0  0  0
    3.5285    1.9701   -0.2127 H   0  0  0  0  0  0  0  0  0  0  0  0
    3.1670   -0.1550    1.9838 H   0  0  0  0  0  0  0  0  0  0  0  0
    4.6456    0.7691    1.6927 H   0  0  0  0  0  0  0  0  0  0  0  0
    3.1758    1.5950    2.2432 H   0  0  0  0  0  0  0  0  0  0  0  0
    4.9690    0.0129   -1.0504 N   0  0  0  0  0  0  0  0  0  0  0  0
    5.6725   -0.9430   -1.8734 C   0  0  0  0  0  0  0  0  0  0  0  0
    5.4821    0.8271   -0.7256 H   0  0  0  0  0  0  0  0  0  0  0  0
    6.1388   -1.7061   -1.2328 H   0  0  0  0  0  0  0  0  0  0  0  0
    4.9634   -1.4259   -2.5619 H   0  0  0  0  0  0  0  0  0  0  0  0
    6.4511   -0.4251   -2.4526 H   0  0  0  0  0  0  0  0  0  0  0  0
  1  3  1  0  0  0  0
  1  7  1  0  0  0  0
  1  2  2  0  0  0  0
 37 38  1  0  0  0  0
 38 46  1  0  0  0  0
 38 39  2  0  0  0  0
  8  9  1  0  0  0  0
  9 17  1  0  0  0  0
  9 10  2  0  0  0  0
 18 19  1  0  0  0  0
 19 36  1  0  0  0  0
 19 20  2  0  0  0  0
 22 24  1  0  0  0  0
 37 40  1  0  0  0  0
  8 11  1  0  0  0  0
 21 23  1  0  0  0  0
 46 47  1  0  0  0  0
 21 22  1  0  0  0  0
 36 37  1  0  0  0  0
  7  8  1  0  0  0  0
 18 21  1  0  0  0  0
 17 18  1  0  0  0  0
  3  4  1  0  0  0  0
  3  5  1  0  0  0  0
  3  6  1  0  0  0  0
 24 33  1  0  0  0  0
 24 34  1  0  0  0  0
 24 35  1  0  0  0  0
 40 43  1  0  0  0  0
 40 44  1  0  0  0  0
 40 45  1  0  0  0  0
 11 14  1  0  0  0  0
 11 15  1  0  0  0  0
 11 16  1  0  0  0  0
 23 30  1  0  0  0  0
 23 31  1  0  0  0  0
 23 32  1  0  0  0  0
 47 49  1  0  0  0  0
 47 50  1  0  0  0  0
 47 51  1  0  0  0  0
 22 28  1  0  0  0  0
 22 29  1  0  0  0  0
 37 42  1  0  0  0  0
  8 13  1  0  0  0  0
 18 26  1  0  0  0  0
 21 27  1  0  0  0  0
 46 48  1  0  0  0  0
  7 12  1  0  0  0  0
 36 41  1  0  0  0  0
 17 25  1  0  0  0  0
M  END
$$$$

  -OEChem-05262214473D

 51 50  0     1  0  0  0  0  0999 V2000
    1.3524   -3.0009    1.4091 C   0  0  0  0  0  0  0  0  0  0  0  0
    1.8758   -1.9880    0.9598 O   0  0  0  0  0  0  0  0  0  0  0  0
    2.2030   -4.1782    1.7536 C   0  0  0  0  0  0  0  0  0  0  0  0
    2.3264   -4.8705    0.9053 H   0  0  0  0  0  0  0  0  0  0  0  0
    3.2257   -3.8876    2.0432 H   0  0  0  0  0  0  0  0  0  0  0  0
    1.8327   -4.8004    2.5839 H   0  0  0  0  0  0  0  0  0  0  0  0
    0.0005   -3.1873    1.6465 N   0  0  0  0  0  0  0  0  0  0  0  0
   -0.9949   -2.1807    1.3864 C   0  0  2  0  0  0  0  0  0  0  0  0
   -0.3083   -0.8216    1.4164 C   0  0  0  0  0  0  0  0  0  0  0  0
    0.7533   -0.6191    2.0022 O   0  0  0  0  0  0  0  0  0  0  0  0
   -2.1232   -2.2423    2.4042 C   0  0  0  0  0  0  0  0  0  0  0  0
   -0.3048   -4.0823    2.0245 H   0  0  0  0  0  0  0  0  0  0  0  0
   -1.3830   -2.3724    0.3801 H   0  0  0  0  0  0  0  0  0  0  0  0
   -1.7534   -2.0527    3.4185 H   0  0  0  0  0  0  0  0  0  0  0  0
   -2.8936   -1.4947    2.1882 H   0  0  0  0  0  0  0  0  0  0  0  0
   -2.5964   -3.2301    2.4022 H   0  0  0  0  0  0  0  0  0  0  0  0
   -1.0412    0.1517    0.7482 N   0  0  0  0  0  0  0  0  0  0  0  0
   -0.6079    1.5223    0.6467 C   0  0  2  0  0  0  0  0  0  0  0  0
    0.8692    1.5847    1.0334 C   0  0  0  0  0  0  0  0  0  0  0  0
    1.2502    1.7420    2.1916 O   0  0  0  0  0  0  0  0  0  0  0  0
   -1.4792    2.4948    1.4778 C   0  0  2  0  0  0  0  0  0  0  0  0
   -2.9434    2.5330    0.9867 C   0  0  0  0  0  0  0  0  0  0  0  0
   -0.8484    3.8936    1.4863 C   0  0  0  0  0  0  0  0  0  0  0  0
   -3.8828    3.2670    1.9351 C   0  0  0  0  0  0  0  0  0  0  0  0
   -1.9022   -0.1128    0.2753 H   0  0  0  0  0  0  0  0  0  0  0  0
   -0.6781    1.7811   -0.4175 H   0  0  0  0  0  0  0  0  0  0  0  0
   -1.4855    2.1397    2.5170 H   0  0  0  0  0  0  0  0  0  0  0  0
   -2.9919    3.0377    0.0150 H   0  0  0  0  0  0  0  0  0  0  0  0
   -3.3225    1.5154    0.8349 H   0  0  0  0  0  0  0  0  0  0  0  0
   -0.8108    4.3098    0.4738 H   0  0  0  0  0  0  0  0  0  0  0  0
   -1.4336    4.5884    2.0964 H   0  0  0  0  0  0  0  0  0  0  0  0
    0.1718    3.8717    1.8830 H   0  0  0  0  0  0  0  0  0  0  0  0
   -3.8848    2.8142    2.9307 H   0  0  0  0  0  0  0  0  0  0  0  0
   -4.9080    3.2251    1.5529 H   0  0  0  0  0  0  0  0  0  0  0  0
   -3.6009    4.3201    2.0312 H   0  0  0  0  0  0  0  0  0  0  0  0
    1.7047    1.4112   -0.0608 N   0  0  0  0  0  0  0  0  0  0  0  0
    3.1467    1.4074    0.0355 C   0  0  2  0  0  0  0  0  0  0  0  0
    3.6925    0.5687   -1.1127 C   0  0  0  0  0  0  0  0  0  0  0  0
    3.0289   -0.2893   -1.6912 O   0  0  0  0  0  0  0  0  0  0  0  0
    3.6104    0.8602    1.3765 C   0  0  0  0  0  0  0  0  0  0  0  0
    1.2818    1.2803   -0.9749 H   0  0  0  0  0  0  0  0  0  0  0  0
    3.4743    2.4460   -0.0823 H   0  0  0  0  0  0  0  0  0  0  0  0
    3.2914   -0.1796    1.5125 H   0  0  0  0  0  0  0  0  0  0  0  0
    4.7020    0.8846    1.4590 H   0  0  0  0  0  0  0  0  0  0  0  0
    3.1928    1.4466    2.2021 H   0  0  0  0  0  0  0  0  0  0  0  0
    5.0212    0.8609   -1.3869 N   0  0  0  0  0  0  0  0  0  0  0  0
    5.7689    0.1902   -2.4246 C   0  0  0  0  0  0  0  0  0  0  0  0
    5.4872    1.6006   -0.8696 H   0  0  0  0  0  0  0  0  0  0  0  0
    6.2952   -0.6758   -1.9967 H   0  0  0  0  0  0  0  0  0  0  0  0
    5.0795   -0.1516   -3.2106 H   0  0  0  0  0  0  0  0  0  0  0  0
    6.5017    0.8872   -2.8574 H   0  0  0  0  0  0  0  0  0  0  0  0
  1  3  1  0  0  0  0
  1  7  1  0  0  0  0
  1  2  2  0  0  0  0
 37 38  1  0  0  0  0
 38 46  1  0  0  0  0
 38 39  2  0  0  0  0
  8  9  1  0  0  0  0
  9 17  1  0  0  0  0
  9 10  2  0  0  0  0
 18 19  1  0  0  0  0
 19 36  1  0  0  0  0
 19 20  2  0  0  0  0
 22 24  1  0  0  0  0
 37 40  1  0  0  0  0
  8 11  1  0  0  0  0
 21 23  1  0  0  0  0
 46 47  1  0  0  0  0
 21 22  1  0  0  0  0
 36 37  1  0  0  0  0
  7  8  1  0  0  0  0
 18 21  1  0  0  0  0
 17 18  1  0  0  0  0
  3  4  1  0  0  0  0
  3  5  1  0  0  0  0
  3  6  1  0  0  0  0
 24 33  1  0  0  0  0
 24 34  1  0  0  0  0
 24 35  1  0  0  0  0
 40 43  1  0  0  0  0
 40 44  1  0  0  0  0
 40 45  1  0  0  0  0
 11 14  1  0  0  0  0
 11 15  1  0  0  0  0
 11 16  1  0  0  0  0
 23 30  1  0  0  0  0
 23 31  1  0  0  0  0
 23 32  1  0  0  0  0
 47 49  1  0  0  0  0
 47 50  1  0  0  0  0
 47 51  1  0  0  0  0
 22 28  1  0  0  0  0
 22 29  1  0  0  0  0
 37 42  1  0  0  0  0
  8 13  1  0  0  0  0
 18 26  1  0  0  0  0
 21 27  1  0  0  0  0
 46 48  1  0  0  0  0
  7 12  1  0  0  0  0
 36 41  1  0  0  0  0
 17 25  1  0  0  0  0
M  END
$$$$

  -OEChem-05262214473D

 51 50  0     1  0  0  0  0  0999 V2000
    1.3524   -3.0009    1.4091 C   0  0  0  0  0  0  0  0  0  0  0  0
    1.8758   -1.9880    0.9598 O   0  0  0  0  0  0  0  0  0  0  0  0
    2.2030   -4.1782    1.7536 C   0  0  0  0  0  0  0  0  0  0  0  0
    2.3264   -4.8705    0.9053 H   0  0  0  0  0  0  0  0  0  0  0  0
    3.2257   -3.8876    2.0432 H   0  0  0  0  0  0  0  0  0  0  0  0
    1.8327   -4.8004    2.5839 H   0  0  0  0  0  0  0  0  0  0  0  0
    0.0005   -3.1873    1.6465 N   0  0  0  0  0  0  0  0  0  0  0  0
   -0.9949   -2.1807    1.3864 C   0  0  2  0  0  0  0  0  0  0  0  0
   -0.3083   -0.8216    1.4164 C   0  0  0  0  0  0  0  0  0  0  0  0
    0.7533   -0.6191    2.0022 O   0  0  0  0  0  0  0  0  0  0  0  0
   -2.1232   -2.2423    2.4042 C   0  0  0  0  0  0  0  0  0  0  0  0
   -0.3048   -4.0823    2.0245 H   0  0  0  0  0  0  0  0  0  0  0  0
   -1.3830   -2.3724    0.3801 H   0  0  0  0  0  0  0  0  0  0  0  0
   -1.7534   -2.0527    3.4185 H   0  0  0  0  0  0  0  0  0  0  0  0
   -2.8936   -1.4947    2.1882 H   0  0  0  0  0  0  0  0  0  0  0  0
   -2.5964   -3.2301    2.4022 H   0  0  0  0  0  0  0  0  0  0  0  0
   -1.0412    0.1517    0.7482 N   0  0  0  0  0  0  0  0  0  0  0  0
   -0.6079    1.5223    0.6467 C   0  0  2  0  0  0  0  0  0  0  0  0
    0.8692    1.5847    1.0334 C   0  0  0  0  0  0  0  0  0  0  0  0
    1.2611    1.4727    2.1933 O   0  0  0  0  0  0  0  0  0  0  0  0
   -1.4792    2.4948    1.4778 C   0  0  2  0  0  0  0  0  0  0  0  0
   -2.9434    2.5330    0.9867 C   0  0  0  0  0  0  0  0  0  0  0  0
   -0.8484    3.8936    1.4863 C   0  0  0  0  0  0  0  0  0  0  0  0
   -3.8828    3.2670    1.9351 C   0  0  0  0  0  0  0  0  0  0  0  0
   -1.9022   -0.1128    0.2753 H   0  0  0  0  0  0  0  0  0  0  0  0
   -0.6781    1.7811   -0.4175 H   0  0  0  0  0  0  0  0  0  0  0  0
   -1.4855    2.1397    2.5170 H   0  0  0  0  0  0  0  0  0  0  0  0
   -2.9919    3.0377    0.0150 H   0  0  0  0  0  0  0  0  0  0  0  0
   -3.3225    1.5154    0.8349 H   0  0  0  0  0  0  0  0  0  0  0  0
   -0.8108    4.3098    0.4738 H   0  0  0  0  0  0  0  0  0  0  0  0
   -1.4336    4.5884    2.0964 H   0  0  0  0  0  0  0  0  0  0  0  0
    0.1718    3.8717    1.8830 H   0  0  0  0  0  0  0  0  0  0  0  0
   -3.8848    2.8142    2.9307 H   0  0  0  0  0  0  0  0  0  0  0  0
   -4.9080    3.2251    1.5529 H   0  0  0  0  0  0  0  0  0  0  0  0
   -3.6009    4.3201    2.0312 H   0  0  0  0  0  0  0  0  0  0  0  0
    1.6933    1.7462   -0.0712 N   0  0  0  0  0  0  0  0  0  0  0  0
    3.1341    1.8149    0.0178 C   0  0  2  0  0  0  0  0  0  0  0  0
    3.7108    1.3281   -1.3051 C   0  0  0  0  0  0  0  0  0  0  0  0
    3.0928    0.5995   -2.0786 O   0  0  0  0  0  0  0  0  0  0  0  0
    3.6572    0.9823    1.1779 C   0  0  0  0  0  0  0  0  0  0  0  0
    1.2625    1.8199   -0.9880 H   0  0  0  0  0  0  0  0  0  0  0  0
    3.3921    2.8696    0.1632 H   0  0  0  0  0  0  0  0  0  0  0  0
    3.4082   -0.0774    1.0498 H   0  0  0  0  0  0  0  0  0  0  0  0
    4.7463    1.0582    1.2615 H   0  0  0  0  0  0  0  0  0  0  0  0
    3.2185    1.3146    2.1250 H   0  0  0  0  0  0  0  0  0  0  0  0
    5.0126    1.7677   -1.5002 N   0  0  0  0  0  0  0  0  0  0  0  0
    5.7821    1.4290   -2.6746 C   0  0  0  0  0  0  0  0  0  0  0  0
    5.4398    2.3841   -0.8152 H   0  0  0  0  0  0  0  0  0  0  0  0
    6.3708    0.5207   -2.4785 H   0  0  0  0  0  0  0  0  0  0  0  0
    5.1012    1.2491   -3.5196 H   0  0  0  0  0  0  0  0  0  0  0  0
    6.4603    2.2594   -2.9206 H   0  0  0  0  0  0  0  0  0  0  0  0
  1  3  1  0  0  0  0
  1  7  1  0  0  0  0
  1  2  2  0  0  0  0
 37 38  1  0  0  0  0
 38 46  1  0  0  0  0
 38 39  2  0  0  0  0
  8  9  1  0  0  0  0
  9 17  1  0  0  0  0
  9 10  2  0  0  0  0
 18 19  1  0  0  0  0
 19 36  1  0  0  0  0
 19 20  2  0  0  0  0
 22 24  1  0  0  0  0
 37 40  1  0  0  0  0
  8 11  1  0  0  0  0
 21 23  1  0  0  0  0
 46 47  1  0  0  0  0
 21 22  1  0  0  0  0
 36 37  1  0  0  0  0
  7  8  1  0  0  0  0
 18 21  1  0  0  0  0
 17 18  1  0  0  0  0
  3  4  1  0  0  0  0
  3  5  1  0  0  0  0
  3  6  1  0  0  0  0
 24 33  1  0  0  0  0
 24 34  1  0  0  0  0
 24 35  1  0  0  0  0
 40 43  1  0  0  0  0
 40 44  1  0  0  0  0
 40 45  1  0  0  0  0
 11 14  1  0  0  0  0
 11 15  1  0  0  0  0
 11 16  1  0  0  0  0
 23 30  1  0  0  0  0
 23 31  1  0  0  0  0
 23 32  1  0  0  0  0
 47 49  1  0  0  0  0
 47 50  1  0  0  0  0
 47 51  1  0  0  0  0
 22 28  1  0  0  0  0
 22 29  1  0  0  0  0
 37 42  1  0  0  0  0
  8 13  1  0  0  0  0
 18 26  1  0  0  0  0
 21 27  1  0  0  0  0
 46 48  1  0  0  0  0
  7 12  1  0  0  0  0
 36 41  1  0  0  0  0
 17 25  1  0  0  0  0
M  END
$$$$

  -OEChem-05262214473D

 51 50  0     1  0  0  0  0  0999 V2000
    1.3524   -3.0009    1.4091 C   0  0  0  0  0  0  0  0  0  0  0  0
    1.8758   -1.9880    0.9598 O   0  0  0  0  0  0  0  0  0  0  0  0
    2.2030   -4.1782    1.7536 C   0  0  0  0  0  0  0  0  0  0  0  0
    2.3264   -4.8705    0.9053 H   0  0  0  0  0  0  0  0  0  0  0  0
    3.2257   -3.8876    2.0432 H   0  0  0  0  0  0  0  0  0  0  0  0
    1.8327   -4.8004    2.5839 H   0  0  0  0  0  0  0  0  0  0  0  0
    0.0005   -3.1873    1.6465 N   0  0  0  0  0  0  0  0  0  0  0  0
   -0.9949   -2.1807    1.3864 C   0  0  2  0  0  0  0  0  0  0  0  0
   -0.3083   -0.8216    1.4164 C   0  0  0  0  0  0  0  0  0  0  0  0
    0.7533   -0.6191    2.0022 O   0  0  0  0  0  0  0  0  0  0  0  0
   -2.1232   -2.2423    2.4042 C   0  0  0  0  0  0  0  0  0  0  0  0
   -0.3048   -4.0823    2.0245 H   0  0  0  0  0  0  0  0  0  0  0  0
   -1.3830   -2.3724    0.3801 H   0  0  0  0  0  0  0  0  0  0  0  0
   -1.7534   -2.0527    3.4185 H   0  0  0  0  0  0  0  0  0  0  0  0
   -2.8936   -1.4947    2.1882 H   0  0  0  0  0  0  0  0  0  0  0  0
   -2.5964   -3.2301    2.4022 H   0  0  0  0  0  0  0  0  0  0  0  0
   -1.0412    0.1517    0.7482 N   0  0  0  0  0  0  0  0  0  0  0  0
   -0.6079    1.5223    0.6467 C   0  0  2  0  0  0  0  0  0  0  0  0
    0.8692    1.5847    1.0334 C   0  0  0  0  0  0  0  0  0  0  0  0
    1.2893    1.2130    2.1273 O   0  0  0  0  0  0  0  0  0  0  0  0
   -1.4792    2.4948    1.4778 C   0  0  2  0  0  0  0  0  0  0  0  0
   -2.9434    2.5330    0.9867 C   0  0  0  0  0  0  0  0  0  0  0  0
   -0.8484    3.8936    1.4863 C   0  0  0  0  0  0  0  0  0  0  0  0
   -3.8828    3.2670    1.9351 C   0  0  0  0  0  0  0  0  0  0  0  0
   -1.9022   -0.1128    0.2753 H   0  0  0  0  0  0  0  0  0  0  0  0
   -0.6781    1.7811   -0.4175 H   0  0  0  0  0  0  0  0  0  0  0  0
   -1.4855    2.1397    2.5170 H   0  0  0  0  0  0  0  0  0  0  0  0
   -2.9919    3.0377    0.0150 H   0  0  0  0  0  0  0  0  0  0  0  0
   -3.3225    1.5154    0.8349 H   0  0  0  0  0  0  0  0  0  0  0  0
   -0.8108    4.3098    0.4738 H   0  0  0  0  0  0  0  0  0  0  0  0
   -1.4336    4.5884    2.0964 H   0  0  0  0  0  0  0  0  0  0  0  0
    0.1718    3.8717    1.8830 H   0  0  0  0  0  0  0  0  0  0  0  0
   -3.8848    2.8142    2.9307 H   0  0  0  0  0  0  0  0  0  0  0  0
   -4.9080    3.2251    1.5529 H   0  0  0  0  0  0  0  0  0  0  0  0
   -3.6009    4.3201    2.0312 H   0  0  0  0  0  0  0  0  0  0  0  0
    1.6602    2.0718    0.0027 N   0  0  0  0  0  0  0  0  0  0  0  0
    3.0951    2.2122    0.1028 C   0  0  2  0  0  0  0  0  0  0  0  0
    3.6767    2.1109   -1.3011 C   0  0  0  0  0  0  0  0  0  0  0  0
    3.0922    1.5591   -2.2311 O   0  0  0  0  0  0  0  0  0  0  0  0
    3.6923    1.1530    1.0162 C   0  0  0  0  0  0  0  0  0  0  0  0
    1.2083    2.3432   -0.8655 H   0  0  0  0  0  0  0  0  0  0  0  0
    3.2876    3.2119    0.5072 H   0  0  0  0  0  0  0  0  0  0  0  0
    3.5095    0.1447    0.6273 H   0  0  0  0  0  0  0  0  0  0  0  0
    4.7757    1.2783    1.1136 H   0  0  0  0  0  0  0  0  0  0  0  0
    3.2512    1.2081    2.0173 H   0  0  0  0  0  0  0  0  0  0  0  0
    4.9437    2.6713   -1.3828 N   0  0  0  0  0  0  0  0  0  0  0  0
    5.7110    2.6890   -2.6063 C   0  0  0  0  0  0  0  0  0  0  0  0
    5.3434    3.1242   -0.5662 H   0  0  0  0  0  0  0  0  0  0  0  0
    6.3604    1.8020   -2.6453 H   0  0  0  0  0  0  0  0  0  0  0  0
    5.0272    2.6808   -3.4679 H   0  0  0  0  0  0  0  0  0  0  0  0
    6.3298    3.5979   -2.6379 H   0  0  0  0  0  0  0  0  0  0  0  0
  1  3  1  0  0  0  0
  1  7  1  0  0  0  0
  1  2  2  0  0  0  0
 37 38  1  0  0  0  0
 38 46  1  0  0  0  0
 38 39  2  0  0  0  0
  8  9  1  0  0  0  0
  9 17  1  0  0  0  0
  9 10  2  0  0  0  0
 18 19  1  0  0  0  0
 19 36  1  0  0  0  0
 19 20  2  0  0  0  0
 22 24  1  0  0  0  0
 37 40  1  0  0  0  0
  8 11  1  0  0  0  0
 21 23  1  0  0  0  0
 46 47  1  0  0  0  0
 21 22  1  0  0  0  0
 36 37  1  0  0  0  0
  7  8  1  0  0  0  0
 18 21  1  0  0  0  0
 17 18  1  0  0  0  0
  3  4  1  0  0  0  0
  3  5  1  0  0  0  0
  3  6  1  0  0  0  0
 24 33  1  0  0  0  0
 24 34  1  0  0  0  0
 24 35  1  0  0  0  0
 40 43  1  0  0  0  0
 40 44  1  0  0  0  0
 40 45  1  0  0  0  0
 11 14  1  0  0  0  0
 11 15  1  0  0  0  0
 11 16  1  0  0  0  0
 23 30  1  0  0  0  0
 23 31  1  0  0  0  0
 23 32  1  0  0  0  0
 47 49  1  0  0  0  0
 47 50  1  0  0  0  0
 47 51  1  0  0  0  0
 22 28  1  0  0  0  0
 22 29  1  0  0  0  0
 37 42  1  0  0  0  0
  8 13  1  0  0  0  0
 18 26  1  0  0  0  0
 21 27  1  0  0  0  0
 46 48  1  0  0  0  0
  7 12  1  0  0  0  0
 36 41  1  0  0  0  0
 17 25  1  0  0  0  0
M  END
$$$$

  -OEChem-05262214473D

 51 50  0     1  0  0  0  0  0999 V2000
    1.3524   -3.0009    1.4091 C   0  0  0  0  0  0  0  0  0  0  0  0
    1.8758   -1.9880    0.9598 O   0  0  0  0  0  0  0  0  0  0  0  0
    2.2030   -4.1782    1.7536 C   0  0  0  0  0  0  0  0  0  0  0  0
    2.3264   -4.8705    0.9053 H   0  0  0  0  0  0  0  0  0  0  0  0
    3.2257   -3.8876    2.0432 H   0  0  0  0  0  0  0  0  0  0  0  0
    1.8327   -4.8004    2.5839 H   0  0  0  0  0  0  0  0  0  0  0  0
    0.0005   -3.1873    1.6465 N   0  0  0  0  0  0  0  0  0  0  0  0
   -0.9949   -2.1807    1.3864 C   0  0  2  0  0  0  0  0  0  0  0  0
   -0.3083   -0.8216    1.4164 C   0  0  0  0  0  0  0  0  0  0  0  0
    0.7533   -0.6191    2.0022 O   0  0  0  0  0  0  0  0  0  0  0  0
   -2.1232   -2.2423    2.4042 C   0  0  0  0  0  0  0  0  0  0  0  0
   -0.3048   -4.0823    2.0245 H   0  0  0  0  0  0  0  0  0  0  0  0
   -1.3830   -2.3724    0.3801 H   0  0  0  0  0  0  0  0  0  0  0  0
   -1.7534   -2.0527    3.4185 H   0  0  0  0  0  0  0  0  0  0  0  0
   -2.8936   -1.4947    2.1882 H   0  0  0  0  0  0  0  0  0  0  0  0
   -2.5964   -3.2301    2.4022 H   0  0  0  0  0  0  0  0  0  0  0  0
   -1.0412    0.1517    0.7482 N   0  0  0  0  0  0  0  0  0  0  0  0
   -0.6079    1.5223    0.6467 C   0  0  2  0  0  0  0  0  0  0  0  0
    0.8692    1.5847    1.0334 C   0  0  0  0  0  0  0  0  0  0  0  0
    1.3329    0.9804    1.9984 O   0  0  0  0  0  0  0  0  0  0  0  0
   -1.4792    2.4948    1.4778 C   0  0  2  0  0  0  0  0  0  0  0  0
   -2.9434    2.5330    0.9867 C   0  0  0  0  0  0  0  0  0  0  0  0
   -0.8484    3.8936    1.4863 C   0  0  0  0  0  0  0  0  0  0  0  0
   -3.8828    3.2670    1.9351 C   0  0  0  0  0  0  0  0  0  0  0  0
   -1.9022   -0.1128    0.2753 H   0  0  0  0  0  0  0  0  0  0  0  0
   -0.6781    1.7811   -0.4175 H   0  0  0  0  0  0  0  0  0  0  0  0
   -1.4855    2.1397    2.5170 H   0  0  0  0  0  0  0  0  0  0  0  0
   -2.9919    3.0377    0.0150 H   0  0  0  0  0  0  0  0  0  0  0  0
   -3.3225    1.5154    0.8349 H   0  0  0  0  0  0  0  0  0  0  0  0
   -0.8108    4.3098    0.4738 H   0  0  0  0  0  0  0  0  0  0  0  0
   -1.4336    4.5884    2.0964 H   0  0  0  0  0  0  0  0  0  0  0  0
    0.1718    3.8717    1.8830 H   0  0  0  0  0  0  0  0  0  0  0  0
   -3.8848    2.8142    2.9307 H   0  0  0  0  0  0  0  0  0  0  0  0
   -4.9080    3.2251    1.5529 H   0  0  0  0  0  0  0  0  0  0  0  0
   -3.6009    4.3201    2.0312 H   0  0  0  0  0  0  0  0  0  0  0  0
    1.6077    2.3656    0.1558 N   0  0  0  0  0  0  0  0  0  0  0  0
    3.0323    2.5721    0.2847 C   0  0  2  0  0  0  0  0  0  0  0  0
    3.5925    2.8639   -1.1011 C   0  0  0  0  0  0  0  0  0  0  0  0
    3.0272    2.5240   -2.1384 O   0  0  0  0  0  0  0  0  0  0  0  0
    3.7133    1.3607    0.9023 C   0  0  0  0  0  0  0  0  0  0  0  0
    1.1230    2.8144   -0.6157 H   0  0  0  0  0  0  0  0  0  0  0  0
    3.1679    3.4496    0.9263 H   0  0  0  0  0  0  0  0  0  0  0  0
    3.5883    0.4716    0.2736 H   0  0  0  0  0  0  0  0  0  0  0  0
    4.7882    1.5297    1.0256 H   0  0  0  0  0  0  0  0  0  0  0  0
    3.2886    1.1343    1.8863 H   0  0  0  0  0  0  0  0  0  0  0  0
    4.8193    3.5103   -1.0426 N   0  0  0  0  0  0  0  0  0  0  0  0
    5.5606    3.8843   -2.2244 C   0  0  0  0  0  0  0  0  0  0  0  0
    5.2044    3.7705   -0.1395 H   0  0  0  0  0  0  0  0  0  0  0  0
    6.2647    3.0806   -2.4858 H   0  0  0  0  0  0  0  0  0  0  0  0
    4.8626    4.0459   -3.0591 H   0  0  0  0  0  0  0  0  0  0  0  0
    6.1190    4.8115   -2.0286 H   0  0  0  0  0  0  0  0  0  0  0  0
  1  3  1  0  0  0  0
  1  7  1  0  0  0  0
  1  2  2  0  0  0  0
 37 38  1  0  0  0  0
 38 46  1  0  0  0  0
 38 39  2  0  0  0  0
  8  9  1  0  0  0  0
  9 17  1  0  0  0  0
  9 10  2  0  0  0  0
 18 19  1  0  0  0  0
 19 36  1  0  0  0  0
 19 20  2  0  0  0  0
 22 24  1  0  0  0  0
 37 40  1  0  0  0  0
  8 11  1  0  0  0  0
 21 23  1  0  0  0  0
 46 47  1  0  0  0  0
 21 22  1  0  0  0  0
 36 37  1  0  0  0  0
  7  8  1  0  0  0  0
 18 21  1  0  0  0  0
 17 18  1  0  0  0  0
  3  4  1  0  0  0  0
  3  5  1  0  0  0  0
  3  6  1  0  0  0  0
 24 33  1  0  0  0  0
 24 34  1  0  0  0  0
 24 35  1  0  0  0  0
 40 43  1  0  0  0  0
 40 44  1  0  0  0  0
 40 45  1  0  0  0  0
 11 14  1  0  0  0  0
 11 15  1  0  0  0  0
 11 16  1  0  0  0  0
 23 30  1  0  0  0  0
 23 31  1  0  0  0  0
 23 32  1  0  0  0  0
 47 49  1  0  0  0  0
 47 50  1  0  0  0  0
 47 51  1  0  0  0  0
 22 28  1  0  0  0  0
 22 29  1  0  0  0  0
 37 42  1  0  0  0  0
  8 13  1  0  0  0  0
 18 26  1  0  0  0  0
 21 27  1  0  0  0  0
 46 48  1  0  0  0  0
  7 12  1  0  0  0  0
 36 41  1  0  0  0  0
 17 25  1  0  0  0  0
M  END
$$$$

  -OEChem-05262214473D

 51 50  0     1  0  0  0  0  0999 V2000
    1.3524   -3.0009    1.4091 C   0  0  0  0  0  0  0  0  0  0  0  0
    1.8758   -1.9880    0.9598 O   0  0  0  0  0  0  0  0  0  0  0  0
    2.2030   -4.1782    1.7536 C   0  0  0  0  0  0  0  0  0  0  0  0
    2.3264   -4.8705    0.9053 H   0  0  0  0  0  0  0  0  0  0  0  0
    3.2257   -3.8876    2.0432 H   0  0  0  0  0  0  0  0  0  0  0  0
    1.8327   -4.8004    2.5839 H   0  0  0  0  0  0  0  0  0  0  0  0
    0.0005   -3.1873    1.6465 N   0  0  0  0  0  0  0  0  0  0  0  0
   -0.9949   -2.1807    1.3864 C   0  0  2  0  0  0  0  0  0  0  0  0
   -0.3083   -0.8216    1.4164 C   0  0  0  0  0  0  0  0  0  0  0  0
    0.7533   -0.6191    2.0022 O   0  0  0  0  0  0  0  0  0  0  0  0
   -2.1232   -2.2423    2.4042 C   0  0  0  0  0  0  0  0  0  0  0  0
   -0.3048   -4.0823    2.0245 H   0  0  0  0  0  0  0  0  0  0  0  0
   -1.3830   -2.3724    0.3801 H   0  0  0  0  0  0  0  0  0  0  0  0
   -1.7534   -2.0527    3.4185 H   0  0  0  0  0  0  0  0  0  0  0  0
   -2.8936   -1.4947    2.1882 H   0  0  0  0  0  0  0  0  0  0  0  0
   -2.5964   -3.2301    2.4022 H   0  0  0  0  0  0  0  0  0  0  0  0
   -1.0412    0.1517    0.7482 N   0  0  0  0  0  0  0  0  0  0  0  0
   -0.6079    1.5223    0.6467 C   0  0  2  0  0  0  0  0  0  0  0  0
    0.8692    1.5847    1.0334 C   0  0  0  0  0  0  0  0  0  0  0  0
    1.3889    0.7909    1.8152 O   0  0  0  0  0  0  0  0  0  0  0  0
   -1.4792    2.4948    1.4778 C   0  0  2  0  0  0  0  0  0  0  0  0
   -2.9434    2.5330    0.9867 C   0  0  0  0  0  0  0  0  0  0  0  0
   -0.8484    3.8936    1.4863 C   0  0  0  0  0  0  0  0  0  0  0  0
   -3.8828    3.2670    1.9351 C   0  0  0  0  0  0  0  0  0  0  0  0
   -1.9022   -0.1128    0.2753 H   0  0  0  0  0  0  0  0  0  0  0  0
   -0.6781    1.7811   -0.4175 H   0  0  0  0  0  0  0  0  0  0  0  0
   -1.4855    2.1397    2.5170 H   0  0  0  0  0  0  0  0  0  0  0  0
   -2.9919    3.0377    0.0150 H   0  0  0  0  0  0  0  0  0  0  0  0
   -3.3225    1.5154    0.8349 H   0  0  0  0  0  0  0  0  0  0  0  0
   -0.8108    4.3098    0.4738 H   0  0  0  0  0  0  0  0  0  0  0  0
   -1.4336    4.5884    2.0964 H   0  0  0  0  0  0  0  0  0  0  0  0
    0.1718    3.8717    1.8830 H   0  0  0  0  0  0  0  0  0  0  0  0
   -3.8848    2.8142    2.9307 H   0  0  0  0  0  0  0  0  0  0  0  0
   -4.9080    3.2251    1.5529 H   0  0  0  0  0  0  0  0  0  0  0  0
   -3.6009    4.3201    2.0312 H   0  0  0  0  0  0  0  0  0  0  0  0
    1.5394    2.6076    0.3778 N   0  0  0  0  0  0  0  0  0  0  0  0
    2.9500    2.8701    0.5511 C   0  0  2  0  0  0  0  0  0  0  0  0
    3.4640    3.5356   -0.7186 C   0  0  0  0  0  0  0  0  0  0  0  0
    2.9021    3.4287   -1.8067 O   0  0  0  0  0  0  0  0  0  0  0  0
    3.7189    1.5912    0.8440 C   0  0  0  0  0  0  0  0  0  0  0  0
    1.0124    3.2016   -0.2556 H   0  0  0  0  0  0  0  0  0  0  0  0
    3.0411    3.5665    1.3918 H   0  0  0  0  0  0  0  0  0  0  0  0
    3.6392    0.8810    0.0129 H   0  0  0  0  0  0  0  0  0  0  0  0
    4.7828    1.7955    1.0034 H   0  0  0  0  0  0  0  0  0  0  0  0
    3.3282    1.0983    1.7409 H   0  0  0  0  0  0  0  0  0  0  0  0
    4.6477    4.2274   -0.5028 N   0  0  0  0  0  0  0  0  0  0  0  0
    5.3410    4.9334   -1.5548 C   0  0  0  0  0  0  0  0  0  0  0  0
    5.0323    4.2789    0.4359 H   0  0  0  0  0  0  0  0  0  0  0  0
    6.0901    4.2695   -2.0108 H   0  0  0  0  0  0  0  0  0  0  0  0
    4.6184    5.2515   -2.3208 H   0  0  0  0  0  0  0  0  0  0  0  0
    5.8424    5.8176   -1.1342 H   0  0  0  0  0  0  0  0  0  0  0  0
  1  3  1  0  0  0  0
  1  7  1  0  0  0  0
  1  2  2  0  0  0  0
 37 38  1  0  0  0  0
 38 46  1  0  0  0  0
 38 39  2  0  0  0  0
  8  9  1  0  0  0  0
  9 17  1  0  0  0  0
  9 10  2  0  0  0  0
 18 19  1  0  0  0  0
 19 36  1  0  0  0  0
 19 20  2  0  0  0  0
 22 24  1  0  0  0  0
 37 40  1  0  0  0  0
  8 11  1  0  0  0  0
 21 23  1  0  0  0  0
 46 47  1  0  0  0  0
 21 22  1  0  0  0  0
 36 37  1  0  0  0  0
  7  8  1  0  0  0  0
 18 21  1  0  0  0  0
 17 18  1  0  0  0  0
  3  4  1  0  0  0  0
  3  5  1  0  0  0  0
  3  6  1  0  0  0  0
 24 33  1  0  0  0  0
 24 34  1  0  0  0  0
 24 35  1  0  0  0  0
 40 43  1  0  0  0  0
 40 44  1  0  0  0  0
 40 45  1  0  0  0  0
 11 14  1  0  0  0  0
 11 15  1  0  0  0  0
 11 16  1  0  0  0  0
 23 30  1  0  0  0  0
 23 31  1  0  0  0  0
 23 32  1  0  0  0  0
 47 49  1  0  0  0  0
 47 50  1  0  0  0  0
 47 51  1  0  0  0  0
 22 28  1  0  0  0  0
 22 29  1  0  0  0  0
 37 42  1  0  0  0  0
  8 13  1  0  0  0  0
 18 26  1  0  0  0  0
 21 27  1  0  0  0  0
 46 48  1  0  0  0  0
  7 12  1  0  0  0  0
 36 41  1  0  0  0  0
 17 25  1  0  0  0  0
M  END
$$$$

  -OEChem-05262214473D

 51 50  0     1  0  0  0  0  0999 V2000
    1.3524   -3.0009    1.4091 C   0  0  0  0  0  0  0  0  0  0  0  0
    1.8758   -1.9880    0.9598 O   0  0  0  0  0  0  0  0  0  0  0  0
    2.2030   -4.1782    1.7536 C   0  0  0  0  0  0  0  0  0  0  0  0
    2.3264   -4.8705    0.9053 H   0  0  0  0  0  0  0  0  0  0  0  0
    3.2257   -3.8876    2.0432 H   0  0  0  0  0  0  0  0  0  0  0  0
    1.8327   -4.8004    2.5839 H   0  0  0  0  0  0  0  0  0  0  0  0
    0.0005   -3.1873    1.6465 N   0  0  0  0  0  0  0  0  0  0  0  0
   -0.9949   -2.1807    1.3864 C   0  0  2  0  0  0  0  0  0  0  0  0
   -0.3083   -0.8216    1.4164 C   0  0  0  0  0  0  0  0  0  0  0  0
    0.7533   -0.6191    2.0022 O   0  0  0  0  0  0  0  0  0  0  0  0
   -2.1232   -2.2423    2.4042 C   0  0  0  0  0  0  0  0  0  0  0  0
   -0.3048   -4.0823    2.0245 H   0  0  0  0  0  0  0  0  0  0  0  0
   -1.3830   -2.3724    0.3801 H   0  0  0  0  0  0  0  0  0  0  0  0
   -1.7534   -2.0527    3.4185 H   0  0  0  0  0  0  0  0  0  0  0  0
   -2.8936   -1.4947    2.1882 H   0  0  0  0  0  0  0  0  0  0  0  0
   -2.5964   -3.2301    2.4022 H   0  0  0  0  0  0  0  0  0  0  0  0
   -1.0412    0.1517    0.7482 N   0  0  0  0  0  0  0  0  0  0  0  0
   -0.6079    1.5223    0.6467 C   0  0  2  0  0  0  0  0  0  0  0  0
    0.8692    1.5847    1.0334 C   0  0  0  0  0  0  0  0  0  0  0  0
    1.4534    0.6573    1.5902 O   0  0  0  0  0  0  0  0  0  0  0  0
   -1.4792    2.4948    1.4778 C   0  0  2  0  0  0  0  0  0  0  0  0
   -2.9434    2.5330    0.9867 C   0  0  0  0  0  0  0  0  0  0  0  0
   -0.8484    3.8936    1.4863 C   0  0  0  0  0  0  0  0  0  0  0  0
   -3.8828    3.2670    1.9351 C   0  0  0  0  0  0  0  0  0  0  0  0
   -1.9022   -0.1128    0.2753 H   0  0  0  0  0  0  0  0  0  0  0  0
   -0.6781    1.7811   -0.4175 H   0  0  0  0  0  0  0  0  0  0  0  0
   -1.4855    2.1397    2.5170 H   0  0  0  0  0  0  0  0  0  0  0  0
   -2.9919    3.0377    0.0150 H   0  0  0  0  0  0  0  0  0  0  0  0
   -3.3225    1.5154    0.8349 H   0  0  0  0  0  0  0  0  0  0  0  0
   -0.8108    4.3098    0.4738 H   0  0  0  0  0  0  0  0  0  0  0  0
   -1.4336    4.5884    2.0964 H   0  0  0  0  0  0  0  0  0  0  0  0
    0.1718    3.8717    1.8830 H   0  0  0  0  0  0  0  0  0  0  0  0
   -3.8848    2.8142    2.9307 H   0  0  0  0  0  0  0  0  0  0  0  0
   -4.9080    3.2251    1.5529 H   0  0  0  0  0  0  0  0  0  0  0  0
   -3.6009    4.3201    2.0312 H   0  0  0  0  0  0  0  0  0  0  0  0
    1.4599    2.7814    0.6535 N   0  0  0  0  0  0  0  0  0  0  0  0
    2.8537    3.0859    0.8839 C   0  0  2  0  0  0  0  0  0  0  0  0
    3.3000    4.0804   -0.1798 C   0  0  0  0  0  0  0  0  0  0  0  0
    2.7256    4.2114   -1.2587 O   0  0  0  0  0  0  0  0  0  0  0  0
    3.7085    1.8287    0.8454 C   0  0  0  0  0  0  0  0  0  0  0  0
    0.8840    3.4781    0.1903 H   0  0  0  0  0  0  0  0  0  0  0  0
    2.9159    3.5547    1.8720 H   0  0  0  0  0  0  0  0  0  0  0  0
    3.6589    1.3450   -0.1370 H   0  0  0  0  0  0  0  0  0  0  0  0
    4.7599    2.0574    1.0484 H   0  0  0  0  0  0  0  0  0  0  0  0
    3.3673    1.1024    1.5910 H   0  0  0  0  0  0  0  0  0  0  0  0
    4.4407    4.7738    0.1998 N   0  0  0  0  0  0  0  0  0  0  0  0
    5.0673    5.7650   -0.6433 C   0  0  0  0  0  0  0  0  0  0  0  0
    4.8389    4.6147    1.1206 H   0  0  0  0  0  0  0  0  0  0  0  0
    5.8487    5.2876   -1.2528 H   0  0  0  0  0  0  0  0  0  0  0  0
    4.3114    6.2153   -1.3036 H   0  0  0  0  0  0  0  0  0  0  0  0
    5.5188    6.5475   -0.0158 H   0  0  0  0  0  0  0  0  0  0  0  0
  1  3  1  0  0  0  0
  1  7  1  0  0  0  0
  1  2  2  0  0  0  0
 37 38  1  0  0  0  0
 38 46  1  0  0  0  0
 38 39  2  0  0  0  0
  8  9  1  0  0  0  0
  9 17  1  0  0  0  0
  9 10  2  0  0  0  0
 18 19  1  0  0  0  0
 19 36  1  0  0  0  0
 19 20  2  0  0  0  0
 22 24  1  0  0  0  0
 37 40  1  0  0  0  0
  8 11  1  0  0  0  0
 21 23  1  0  0  0  0
 46 47  1  0  0  0  0
 21 22  1  0  0  0  0
 36 37  1  0  0  0  0
  7  8  1  0  0  0  0
 18 21  1  0  0  0  0
 17 18  1  0  0  0  0
  3  4  1  0  0  0  0
  3  5  1  0  0  0  0
  3  6  1  0  0  0  0
 24 33  1  0  0  0  0
 24 34  1  0  0  0  0
 24 35  1  0  0  0  0
 40 43  1  0  0  0  0
 40 44  1  0  0  0  0
 40 45  1  0  0  0  0
 11 14  1  0  0  0  0
 11 15  1  0  0  0  0
 11 16  1  0  0  0  0
 23 30  1  0  0  0  0
 23 31  1  0  0  0  0
 23 32  1  0  0  0  0
 47 49  1  0  0  0  0
 47 50  1  0  0  0  0
 47 51  1  0  0  0  0
 22 28  1  0  0  0  0
 22 29  1  0  0  0  0
 37 42  1  0  0  0  0
  8 13  1  0  0  0  0
 18 26  1  0  0  0  0
 21 27  1  0  0  0  0
 46 48  1  0  0  0  0
  7 12  1  0  0  0  0
 36 41  1  0  0  0  0
 17 25  1  0  0  0  0
M  END
$$$$

  -OEChem-05262214473D

 51 50  0     1  0  0  0  0  0999 V2000
    1.3524   -3.0009    1.4091 C   0  0  0  0  0  0  0  0  0  0  0  0
    1.8758   -1.9880    0.9598 O   0  0  0  0  0  0  0  0  0  0  0  0
    2.2030   -4.1782    1.7536 C   0  0  0  0  0  0  0  0  0  0  0  0
    2.3264   -4.8705    0.9053 H   0  0  0  0  0  0  0  0  0  0  0  0
    3.2257   -3.8876    2.0432 H   0  0  0  0  0  0  0  0  0  0  0  0
    1.8327   -4.8004    2.5839 H   0  0  0  0  0  0  0  0  0  0  0  0
    0.0005   -3.1873    1.6465 N   0  0  0  0  0  0  0  0  0  0  0  0
   -0.9949   -2.1807    1.3864 C   0  0  2  0  0  0  0  0  0  0  0  0
   -0.3083   -0.8216    1.4164 C   0  0  0  0  0  0  0  0  0  0  0  0
    0.7533   -0.6191    2.0022 O   0  0  0  0  0  0  0  0  0  0  0  0
   -2.1232   -2.2423    2.4042 C   0  0  0  0  0  0  0  0  0  0  0  0
   -0.3048   -4.0823    2.0245 H   0  0  0  0  0  0  0  0  0  0  0  0
   -1.3830   -2.3724    0.3801 H   0  0  0  0  0  0  0  0  0  0  0  0
   -1.7534   -2.0527    3.4185 H   0  0  0  0  0  0  0  0  0  0  0  0
   -2.8936   -1.4947    2.1882 H   0  0  0  0  0  0  0  0  0  0  0  0
   -2.5964   -3.2301    2.4022 H   0  0  0  0  0  0  0  0  0  0  0  0
   -1.0412    0.1517    0.7482 N   0  0  0  0  0  0  0  0  0  0  0  0
   -0.6079    1.5223    0.6467 C   0  0  2  0  0  0  0  0  0  0  0  0
    0.9200    1.5410    0.6603 C   0  0  0  0  0  0  0  0  0  0  0  0
    1.5998    0.5183    0.7190 O   0  0  0  0  0  0  0  0  0  0  0  0
   -1.2210    2.4325    1.7382 C   0  0  2  0  0  0  0  0  0  0  0  0
   -2.7593    2.5223    1.6282 C   0  0  0  0  0  0  0  0  0  0  0  0
   -0.5686    3.8207    1.6963 C   0  0  0  0  0  0  0  0  0  0  0  0
   -3.4163    3.1859    2.8318 C   0  0  0  0  0  0  0  0  0  0  0  0
   -1.9022   -0.1128    0.2753 H   0  0  0  0  0  0  0  0  0  0  0  0
   -0.9299    1.8661   -0.3446 H   0  0  0  0  0  0  0  0  0  0  0  0
   -0.9819    1.9953    2.7169 H   0  0  0  0  0  0  0  0  0  0  0  0
   -3.0307    3.1035    0.7394 H   0  0  0  0  0  0  0  0  0  0  0  0
   -3.1923    1.5233    1.4982 H   0  0  0  0  0  0  0  0  0  0  0  0
   -0.7690    4.3163    0.7403 H   0  0  0  0  0  0  0  0  0  0  0  0
   -0.9665    4.4693    2.4827 H   0  0  0  0  0  0  0  0  0  0  0  0
    0.5168    3.7585    1.8261 H   0  0  0  0  0  0  0  0  0  0  0  0
   -3.1866    2.6549    3.7599 H   0  0  0  0  0  0  0  0  0  0  0  0
   -4.5047    3.1834    2.7125 H   0  0  0  0  0  0  0  0  0  0  0  0
   -3.0901    4.2255    2.9346 H   0  0  0  0  0  0  0  0  0  0  0  0
    1.4289    2.8285    0.5660 N   0  0  0  0  0  0  0  0  0  0  0  0
    2.8438    3.1217    0.5376 C   0  0  2  0  0  0  0  0  0  0  0  0
    3.0372    4.4334   -0.2119 C   0  0  0  0  0  0  0  0  0  0  0  0
    2.2160    4.8760   -1.0124 O   0  0  0  0  0  0  0  0  0  0  0  0
    3.6286    1.9982   -0.1216 C   0  0  0  0  0  0  0  0  0  0  0  0
    0.7744    3.6034    0.5144 H   0  0  0  0  0  0  0  0  0  0  0  0
    3.1623    3.2448    1.5785 H   0  0  0  0  0  0  0  0  0  0  0  0
    3.3232    1.8601   -1.1652 H   0  0  0  0  0  0  0  0  0  0  0  0
    4.7031    2.2089   -0.1168 H   0  0  0  0  0  0  0  0  0  0  0  0
    3.4647    1.0496    0.4010 H   0  0  0  0  0  0  0  0  0  0  0  0
    4.2543    5.0301    0.0860 N   0  0  0  0  0  0  0  0  0  0  0  0
    4.6772    6.2771   -0.5074 C   0  0  0  0  0  0  0  0  0  0  0  0
    4.8649    4.6024    0.7759 H   0  0  0  0  0  0  0  0  0  0  0  0
    5.2695    6.0714   -1.4112 H   0  0  0  0  0  0  0  0  0  0  0  0
    3.7929    6.8735   -0.7764 H   0  0  0  0  0  0  0  0  0  0  0  0
    5.2912    6.8365    0.2137 H   0  0  0  0  0  0  0  0  0  0  0  0
  1  3  1  0  0  0  0
  1  7  1  0  0  0  0
  1  2  2  0  0  0  0
 37 38  1  0  0  0  0
 38 46  1  0  0  0  0
 38 39  2  0  0  0  0
  8  9  1  0  0  0  0
  9 17  1  0  0  0  0
  9 10  2  0  0  0  0
 18 19  1  0  0  0  0
 19 36  1  0  0  0  0
 19 20  2  0  0  0  0
 22 24  1  0  0  0  0
 37 40  1  0  0  0  0
  8 11  1  0  0  0  0
 21 23  1  0  0  0  0
 46 47  1  0  0  0  0
 21 22  1  0  0  0  0
 36 37  1  0  0  0  0
  7  8  1  0  0  0  0
 18 21  1  0  0  0  0
 17 18  1  0  0  0  0
  3  4  1  0  0  0  0
  3  5  1  0  0  0  0
  3  6  1  0  0  0  0
 24 33  1  0  0  0  0
 24 34  1  0  0  0  0
 24 35  1  0  0  0  0
 40 43  1  0  0  0  0
 40 44  1  0  0  0  0
 40 45  1  0  0  0  0
 11 14  1  0  0  0  0
 11 15  1  0  0  0  0
 11 16  1  0  0  0  0
 23 30  1  0  0  0  0
 23 31  1  0  0  0  0
 23 32  1  0  0  0  0
 47 49  1  0  0  0  0
 47 50  1  0  0  0  0
 47 51  1  0  0  0  0
 22 28  1  0  0  0  0
 22 29  1  0  0  0  0
 37 42  1  0  0  0  0
  8 13  1  0  0  0  0
 18 26  1  0  0  0  0
 21 27  1  0  0  0  0
 46 48  1  0  0  0  0
  7 12  1  0  0  0  0
 36 41  1  0  0  0  0
 17 25  1  0  0  0  0
M  END
$$$$

  -OEChem-05262214473D

 51 50  0     1  0  0  0  0  0999 V2000
    1.3524   -3.0009    1.4091 C   0  0  0  0  0  0  0  0  0  0  0  0
    1.8758   -1.9880    0.9598 O   0  0  0  0  0  0  0  0  0  0  0  0
    2.2030   -4.1782    1.7536 C   0  0  0  0  0  0  0  0  0  0  0  0
    2.3264   -4.8705    0.9053 H   0  0  0  0  0  0  0  0  0  0  0  0
    3.2257   -3.8876    2.0432 H   0  0  0  0  0  0  0  0  0  0  0  0
    1.8327   -4.8004    2.5839 H   0  0  0  0  0  0  0  0  0  0  0  0
    0.0005   -3.1873    1.6465 N   0  0  0  0  0  0  0  0  0  0  0  0
   -0.9949   -2.1807    1.3864 C   0  0  2  0  0  0  0  0  0  0  0  0
   -0.3083   -0.8216    1.4164 C   0  0  0  0  0  0  0  0  0  0  0  0
    0.7533   -0.6191    2.0022 O   0  0  0  0  0  0  0  0  0  0  0  0
   -2.1232   -2.2423    2.4042 C   0  0  0  0  0  0  0  0  0  0  0  0
   -0.3048   -4.0823    2.0245 H   0  0  0  0  0  0  0  0  0  0  0  0
   -1.3830   -2.3724    0.3801 H   0  0  0  0  0  0  0  0  0  0  0  0
   -1.7534   -2.0527    3.4185 H   0  0  0  0  0  0  0  0  0  0  0  0
   -2.8936   -1.4947    2.1882 H   0  0  0  0  0  0  0  0  0  0  0  0
   -2.5964   -3.2301    2.4022 H   0  0  0  0  0  0  0  0  0  0  0  0
   -1.0412    0.1517    0.7482 N   0  0  0  0  0  0  0  0  0  0  0  0
   -0.6079    1.5223    0.6467 C   0  0  2  0  0  0  0  0  0  0  0  0
    0.9200    1.5410    0.6603 C   0  0  0  0  0  0  0  0  0  0  0  0
    1.6020    0.5398    0.4504 O   0  0  0  0  0  0  0  0  0  0  0  0
   -1.2210    2.4325    1.7382 C   0  0  2  0  0  0  0  0  0  0  0  0
   -2.7593    2.5223    1.6282 C   0  0  0  0  0  0  0  0  0  0  0  0
   -0.5686    3.8207    1.6963 C   0  0  0  0  0  0  0  0  0  0  0  0
   -3.4163    3.1859    2.8318 C   0  0  0  0  0  0  0  0  0  0  0  0
   -1.9022   -0.1128    0.2753 H   0  0  0  0  0  0  0  0  0  0  0  0
   -0.9299    1.8661   -0.3446 H   0  0  0  0  0  0  0  0  0  0  0  0
   -0.9819    1.9953    2.7169 H   0  0  0  0  0  0  0  0  0  0  0  0
   -3.0307    3.1035    0.7394 H   0  0  0  0  0  0  0  0  0  0  0  0
   -3.1923    1.5233    1.4982 H   0  0  0  0  0  0  0  0  0  0  0  0
   -0.7690    4.3163    0.7403 H   0  0  0  0  0  0  0  0  0  0  0  0
   -0.9665    4.4693    2.4827 H   0  0  0  0  0  0  0  0  0  0  0  0
    0.5168    3.7585    1.8261 H   0  0  0  0  0  0  0  0  0  0  0  0
   -3.1866    2.6549    3.7599 H   0  0  0  0  0  0  0  0  0  0  0  0
   -4.5047    3.1834    2.7125 H   0  0  0  0  0  0  0  0  0  0  0  0
   -3.0901    4.2255    2.9346 H   0  0  0  0  0  0  0  0  0  0  0  0
    1.4262    2.8104    0.9010 N   0  0  0  0  0  0  0  0  0  0  0  0
    2.8403    3.1049    0.9453 C   0  0  2  0  0  0  0  0  0  0  0  0
    3.0287    4.5663    0.5603 C   0  0  0  0  0  0  0  0  0  0  0  0
    2.2039    5.1987   -0.0961 O   0  0  0  0  0  0  0  0  0  0  0  0
    3.6250    2.1924    0.0156 C   0  0  0  0  0  0  0  0  0  0  0  0
    0.7700    3.5705    1.0536 H   0  0  0  0  0  0  0  0  0  0  0  0
    3.1622    2.9552    1.9817 H   0  0  0  0  0  0  0  0  0  0  0  0
    3.3163    2.3282   -1.0273 H   0  0  0  0  0  0  0  0  0  0  0  0
    4.6991    2.3976    0.0717 H   0  0  0  0  0  0  0  0  0  0  0  0
    3.4647    1.1404    0.2754 H   0  0  0  0  0  0  0  0  0  0  0  0
    4.2457    5.0689    0.9990 N   0  0  0  0  0  0  0  0  0  0  0  0
    4.6642    6.4281    0.7473 C   0  0  0  0  0  0  0  0  0  0  0  0
    4.8595    4.4789    1.5530 H   0  0  0  0  0  0  0  0  0  0  0  0
    5.2537    6.4650   -0.1807 H   0  0  0  0  0  0  0  0  0  0  0  0
    3.7779    7.0714    0.6443 H   0  0  0  0  0  0  0  0  0  0  0  0
    5.2797    6.7836    1.5869 H   0  0  0  0  0  0  0  0  0  0  0  0
  1  3  1  0  0  0  0
  1  7  1  0  0  0  0
  1  2  2  0  0  0  0
 37 38  1  0  0  0  0
 38 46  1  0  0  0  0
 38 39  2  0  0  0  0
  8  9  1  0  0  0  0
  9 17  1  0  0  0  0
  9 10  2  0  0  0  0
 18 19  1  0  0  0  0
 19 36  1  0  0  0  0
 19 20  2  0  0  0  0
 22 24  1  0  0  0  0
 37 40  1  0  0  0  0
  8 11  1  0  0  0  0
 21 23  1  0  0  0  0
 46 47  1  0  0  0  0
 21 22  1  0  0  0  0
 36 37  1  0  0  0  0
  7  8  1  0  0  0  0
 18 21  1  0  0  0  0
 17 18  1  0  0  0  0
  3  4  1  0  0  0  0
  3  5  1  0  0  0  0
  3  6  1  0  0  0  0
 24 33  1  0  0  0  0
 24 34  1  0  0  0  0
 24 35  1  0  0  0  0
 40 43  1  0  0  0  0
 40 44  1  0  0  0  0
 40 45  1  0  0  0  0
 11 14  1  0  0  0  0
 11 15  1  0  0  0  0
 11 16  1  0  0  0  0
 23 30  1  0  0  0  0
 23 31  1  0  0  0  0
 23 32  1  0  0  0  0
 47 49  1  0  0  0  0
 47 50  1  0  0  0  0
 47 51  1  0  0  0  0
 22 28  1  0  0  0  0
 22 29  1  0  0  0  0
 37 42  1  0  0  0  0
  8 13  1  0  0  0  0
 18 26  1  0  0  0  0
 21 27  1  0  0  0  0
 46 48  1  0  0  0  0
  7 12  1  0  0  0  0
 36 41  1  0  0  0  0
 17 25  1  0  0  0  0
M  END
$$$$

  -OEChem-05262214473D

 51 50  0     1  0  0  0  0  0999 V2000
    1.3524   -3.0009    1.4091 C   0  0  0  0  0  0  0  0  0  0  0  0
    1.8758   -1.9880    0.9598 O   0  0  0  0  0  0  0  0  0  0  0  0
    2.2030   -4.1782    1.7536 C   0  0  0  0  0  0  0  0  0  0  0  0
    2.3264   -4.8705    0.9053 H   0  0  0  0  0  0  0  0  0  0  0  0
    3.2257   -3.8876    2.0432 H   0  0  0  0  0  0  0  0  0  0  0  0
    1.8327   -4.8004    2.5839 H   0  0  0  0  0  0  0  0  0  0  0  0
    0.0005   -3.1873    1.6465 N   0  0  0  0  0  0  0  0  0  0  0  0
   -0.9949   -2.1807    1.3864 C   0  0  2  0  0  0  0  0  0  0  0  0
   -0.3083   -0.8216    1.4164 C   0  0  0  0  0  0  0  0  0  0  0  0
    0.7533   -0.6191    2.0022 O   0  0  0  0  0  0  0  0  0  0  0  0
   -2.1232   -2.2423    2.4042 C   0  0  0  0  0  0  0  0  0  0  0  0
   -0.3048   -4.0823    2.0245 H   0  0  0  0  0  0  0  0  0  0  0  0
   -1.3830   -2.3724    0.3801 H   0  0  0  0  0  0  0  0  0  0  0  0
   -1.7534   -2.0527    3.4185 H   0  0  0  0  0  0  0  0  0  0  0  0
   -2.8936   -1.4947    2.1882 H   0  0  0  0  0  0  0  0  0  0  0  0
   -2.5964   -3.2301    2.4022 H   0  0  0  0  0  0  0  0  0  0  0  0
   -1.0412    0.1517    0.7482 N   0  0  0  0  0  0  0  0  0  0  0  0
   -0.6079    1.5223    0.6467 C   0  0  2  0  0  0  0  0  0  0  0  0
    0.9200    1.5410    0.6603 C   0  0  0  0  0  0  0  0  0  0  0  0
    1.6031    0.6301    0.1965 O   0  0  0  0  0  0  0  0  0  0  0  0
   -1.2210    2.4325    1.7382 C   0  0  2  0  0  0  0  0  0  0  0  0
   -2.7593    2.5223    1.6282 C   0  0  0  0  0  0  0  0  0  0  0  0
   -0.5686    3.8207    1.6963 C   0  0  0  0  0  0  0  0  0  0  0  0
   -3.4163    3.1859    2.8318 C   0  0  0  0  0  0  0  0  0  0  0  0
   -1.9022   -0.1128    0.2753 H   0  0  0  0  0  0  0  0  0  0  0  0
   -0.9299    1.8661   -0.3446 H   0  0  0  0  0  0  0  0  0  0  0  0
   -0.9819    1.9953    2.7169 H   0  0  0  0  0  0  0  0  0  0  0  0
   -3.0307    3.1035    0.7394 H   0  0  0  0  0  0  0  0  0  0  0  0
   -3.1923    1.5233    1.4982 H   0  0  0  0  0  0  0  0  0  0  0  0
   -0.7690    4.3163    0.7403 H   0  0  0  0  0  0  0  0  0  0  0  0
   -0.9665    4.4693    2.4827 H   0  0  0  0  0  0  0  0  0  0  0  0
    0.5168    3.7585    1.8261 H   0  0  0  0  0  0  0  0  0  0  0  0
   -3.1866    2.6549    3.7599 H   0  0  0  0  0  0  0  0  0  0  0  0
   -4.5047    3.1834    2.7125 H   0  0  0  0  0  0  0  0  0  0  0  0
   -3.0901    4.2255    2.9346 H   0  0  0  0  0  0  0  0  0  0  0  0
    1.4246    2.7063    1.2198 N   0  0  0  0  0  0  0  0  0  0  0  0
    2.8384    2.9831    1.3349 C   0  0  2  0  0  0  0  0  0  0  0  0
    3.0226    4.4949    1.3406 C   0  0  0  0  0  0  0  0  0  0  0  0
    2.1944    5.2733    0.8726 O   0  0  0  0  0  0  0  0  0  0  0  0
    3.6215    2.3444    0.1984 C   0  0  0  0  0  0  0  0  0  0  0  0
    0.7675    3.3992    1.5658 H   0  0  0  0  0  0  0  0  0  0  0  0
    3.1641    2.5712    2.2963 H   0  0  0  0  0  0  0  0  0  0  0  0
    3.3089    2.7446   -0.7730 H   0  0  0  0  0  0  0  0  0  0  0  0
    4.6954    2.5310    0.3027 H   0  0  0  0  0  0  0  0  0  0  0  0
    3.4641    1.2606    0.1776 H   0  0  0  0  0  0  0  0  0  0  0  0
    4.2402    4.8701    1.8909 N   0  0  0  0  0  0  0  0  0  0  0  0
    4.6553    6.2493    1.9984 C   0  0  0  0  0  0  0  0  0  0  0  0
    4.8570    4.1585    2.2716 H   0  0  0  0  0  0  0  0  0  0  0  0
    5.2415    6.5267    1.1099 H   0  0  0  0  0  0  0  0  0  0  0  0
    3.7674    6.8949    2.0679 H   0  0  0  0  0  0  0  0  0  0  0  0
    5.2730    6.3770    2.8996 H   0  0  0  0  0  0  0  0  0  0  0  0
  1  3  1  0  0  0  0
  1  7  1  0  0  0  0
  1  2  2  0  0  0  0
 37 38  1  0  0  0  0
 38 46  1  0  0  0  0
 38 39  2  0  0  0  0
  8  9  1  0  0  0  0
  9 17  1  0  0  0  0
  9 10  2  0  0  0  0
 18 19  1  0  0  0  0
 19 36  1  0  0  0  0
 19 20  2  0  0  0  0
 22 24  1  0  0  0  0
 37 40  1  0  0  0  0
  8 11  1  0  0  0  0
 21 23  1  0  0  0  0
 46 47  1  0  0  0  0
 21 22  1  0  0  0  0
 36 37  1  0  0  0  0
  7  8  1  0  0  0  0
 18 21  1  0  0  0  0
 17 18  1  0  0  0  0
  3  4  1  0  0  0  0
  3  5  1  0  0  0  0
  3  6  1  0  0  0  0
 24 33  1  0  0  0  0
 24 34  1  0  0  0  0
 24 35  1  0  0  0  0
 40 43  1  0  0  0  0
 40 44  1  0  0  0  0
 40 45  1  0  0  0  0
 11 14  1  0  0  0  0
 11 15  1  0  0  0  0
 11 16  1  0  0  0  0
 23 30  1  0  0  0  0
 23 31  1  0  0  0  0
 23 32  1  0  0  0  0
 47 49  1  0  0  0  0
 47 50  1  0  0  0  0
 47 51  1  0  0  0  0
 22 28  1  0  0  0  0
 22 29  1  0  0  0  0
 37 42  1  0  0  0  0
  8 13  1  0  0  0  0
 18 26  1  0  0  0  0
 21 27  1  0  0  0  0
 46 48  1  0  0  0  0
  7 12  1  0  0  0  0
 36 41  1  0  0  0  0
 17 25  1  0  0  0  0
M  END
$$$$

  -OEChem-05262214473D

 51 50  0     1  0  0  0  0  0999 V2000
    1.3524   -3.0009    1.4091 C   0  0  0  0  0  0  0  0  0  0  0  0
    1.8758   -1.9880    0.9598 O   0  0  0  0  0  0  0  0  0  0  0  0
    2.2030   -4.1782    1.7536 C   0  0  0  0  0  0  0  0  0  0  0  0
    2.3264   -4.8705    0.9053 H   0  0  0  0  0  0  0  0  0  0  0  0
    3.2257   -3.8876    2.0432 H   0  0  0  0  0  0  0  0  0  0  0  0
    1.8327   -4.8004    2.5839 H   0  0  0  0  0  0  0  0  0  0  0  0
    0.0005   -3.1873    1.6465 N   0  0  0  0  0  0  0  0  0  0  0  0
   -0.9949   -2.1807    1.3864 C   0  0  2  0  0  0  0  0  0  0  0  0
   -0.3083   -0.8216    1.4164 C   0  0  0  0  0  0  0  0  0  0  0  0
    0.7533   -0.6191    2.0022 O   0  0  0  0  0  0  0  0  0  0  0  0
   -2.1232   -2.2423    2.4042 C   0  0  0  0  0  0  0  0  0  0  0  0
   -0.3048   -4.0823    2.0245 H   0  0  0  0  0  0  0  0  0  0  0  0
   -1.3830   -2.3724    0.3801 H   0  0  0  0  0  0  0  0  0  0  0  0
   -1.7534   -2.0527    3.4185 H   0  0  0  0  0  0  0  0  0  0  0  0
   -2.8936   -1.4947    2.1882 H   0  0  0  0  0  0  0  0  0  0  0  0
   -2.5964   -3.2301    2.4022 H   0  0  0  0  0  0  0  0  0  0  0  0
   -1.0412    0.1517    0.7482 N   0  0  0  0  0  0  0  0  0  0  0  0
   -0.6079    1.5223    0.6467 C   0  0  2  0  0  0  0  0  0  0  0  0
    0.9200    1.5410    0.6603 C   0  0  0  0  0  0  0  0  0  0  0  0
    1.6032    0.7831   -0.0254 O   0  0  0  0  0  0  0  0  0  0  0  0
   -1.2210    2.4325    1.7382 C   0  0  2  0  0  0  0  0  0  0  0  0
   -2.7593    2.5223    1.6282 C   0  0  0  0  0  0  0  0  0  0  0  0
   -0.5686    3.8207    1.6963 C   0  0  0  0  0  0  0  0  0  0  0  0
   -3.4163    3.1859    2.8318 C   0  0  0  0  0  0  0  0  0  0  0  0
   -1.9022   -0.1128    0.2753 H   0  0  0  0  0  0  0  0  0  0  0  0
   -0.9299    1.8661   -0.3446 H   0  0  0  0  0  0  0  0  0  0  0  0
   -0.9819    1.9953    2.7169 H   0  0  0  0  0  0  0  0  0  0  0  0
   -3.0307    3.1035    0.7394 H   0  0  0  0  0  0  0  0  0  0  0  0
   -3.1923    1.5233    1.4982 H   0  0  0  0  0  0  0  0  0  0  0  0
   -0.7690    4.3163    0.7403 H   0  0  0  0  0  0  0  0  0  0  0  0
   -0.9665    4.4693    2.4827 H   0  0  0  0  0  0  0  0  0  0  0  0
    0.5168    3.7585    1.8261 H   0  0  0  0  0  0  0  0  0  0  0  0
   -3.1866    2.6549    3.7599 H   0  0  0  0  0  0  0  0  0  0  0  0
   -4.5047    3.1834    2.7125 H   0  0  0  0  0  0  0  0  0  0  0  0
   -3.0901    4.2255    2.9346 H   0  0  0  0  0  0  0  0  0  0  0  0
    1.4243    2.5231    1.5009 N   0  0  0  0  0  0  0  0  0  0  0  0
    2.8380    2.7646    1.6796 C   0  0  2  0  0  0  0  0  0  0  0  0
    3.0194    4.2239    2.0759 C   0  0  0  0  0  0  0  0  0  0  0  0
    2.1881    5.0947    1.8277 O   0  0  0  0  0  0  0  0  0  0  0  0
    3.6184    2.4439    0.4144 C   0  0  0  0  0  0  0  0  0  0  0  0
    0.7672    3.1012    2.0163 H   0  0  0  0  0  0  0  0  0  0  0  0
    3.1678    2.1188    2.5007 H   0  0  0  0  0  0  0  0  0  0  0  0
    3.3017    3.0810   -0.4195 H   0  0  0  0  0  0  0  0  0  0  0  0
    4.6923    2.6001    0.5603 H   0  0  0  0  0  0  0  0  0  0  0  0
    3.4630    1.4020    0.1142 H   0  0  0  0  0  0  0  0  0  0  0  0
    4.2382    4.4472    2.7010 N   0  0  0  0  0  0  0  0  0  0  0  0
    4.6510    5.7527    3.1606 C   0  0  0  0  0  0  0  0  0  0  0  0
    4.8577    3.6630    2.8828 H   0  0  0  0  0  0  0  0  0  0  0  0
    5.2336    6.2522    2.3725 H   0  0  0  0  0  0  0  0  0  0  0  0
    3.7621    6.3560    3.3974 H   0  0  0  0  0  0  0  0  0  0  0  0
    5.2716    5.6446    4.0624 H   0  0  0  0  0  0  0  0  0  0  0  0
  1  3  1  0  0  0  0
  1  7  1  0  0  0  0
  1  2  2  0  0  0  0
 37 38  1  0  0  0  0
 38 46  1  0  0  0  0
 38 39  2  0  0  0  0
  8  9  1  0  0  0  0
  9 17  1  0  0  0  0
  9 10  2  0  0  0  0
 18 19  1  0  0  0  0
 19 36  1  0  0  0  0
 19 20  2  0  0  0  0
 22 24  1  0  0  0  0
 37 40  1  0  0  0  0
  8 11  1  0  0  0  0
 21 23  1  0  0  0  0
 46 47  1  0  0  0  0
 21 22  1  0  0  0  0
 36 37  1  0  0  0  0
  7  8  1  0  0  0  0
 18 21  1  0  0  0  0
 17 18  1  0  0  0  0
  3  4  1  0  0  0  0
  3  5  1  0  0  0  0
  3  6  1  0  0  0  0
 24 33  1  0  0  0  0
 24 34  1  0  0  0  0
 24 35  1  0  0  0  0
 40 43  1  0  0  0  0
 40 44  1  0  0  0  0
 40 45  1  0  0  0  0
 11 14  1  0  0  0  0
 11 15  1  0  0  0  0
 11 16  1  0  0  0  0
 23 30  1  0  0  0  0
 23 31  1  0  0  0  0
 23 32  1  0  0  0  0
 47 49  1  0  0  0  0
 47 50  1  0  0  0  0
 47 51  1  0  0  0  0
 22 28  1  0  0  0  0
 22 29  1  0  0  0  0
 37 42  1  0  0  0  0
  8 13  1  0  0  0  0
 18 26  1  0  0  0  0
 21 27  1  0  0  0  0
 46 48  1  0  0  0  0
  7 12  1  0  0  0  0
 36 41  1  0  0  0  0
 17 25  1  0  0  0  0
M  END
$$$$

  -OEChem-05262214473D

 51 50  0     1  0  0  0  0  0999 V2000
    1.3524   -3.0009    1.4091 C   0  0  0  0  0  0  0  0  0  0  0  0
    1.8758   -1.9880    0.9598 O   0  0  0  0  0  0  0  0  0  0  0  0
    2.2030   -4.1782    1.7536 C   0  0  0  0  0  0  0  0  0  0  0  0
    2.3264   -4.8705    0.9053 H   0  0  0  0  0  0  0  0  0  0  0  0
    3.2257   -3.8876    2.0432 H   0  0  0  0  0  0  0  0  0  0  0  0
    1.8327   -4.8004    2.5839 H   0  0  0  0  0  0  0  0  0  0  0  0
    0.0005   -3.1873    1.6465 N   0  0  0  0  0  0  0  0  0  0  0  0
   -0.9949   -2.1807    1.3864 C   0  0  2  0  0  0  0  0  0  0  0  0
   -0.3083   -0.8216    1.4164 C   0  0  0  0  0  0  0  0  0  0  0  0
    0.7533   -0.6191    2.0022 O   0  0  0  0  0  0  0  0  0  0  0  0
   -2.1232   -2.2423    2.4042 C   0  0  0  0  0  0  0  0  0  0  0  0
   -0.3048   -4.0823    2.0245 H   0  0  0  0  0  0  0  0  0  0  0  0
   -1.3830   -2.3724    0.3801 H   0  0  0  0  0  0  0  0  0  0  0  0
   -1.7534   -2.0527    3.4185 H   0  0  0  0  0  0  0  0  0  0  0  0
   -2.8936   -1.4947    2.1882 H   0  0  0  0  0  0  0  0  0  0  0  0
   -2.5964   -3.2301    2.4022 H   0  0  0  0  0  0  0  0  0  0  0  0
   -1.0412    0.1517    0.7482 N   0  0  0  0  0  0  0  0  0  0  0  0
   -0.6079    1.5223    0.6467 C   0  0  2  0  0  0  0  0  0  0  0  0
    0.9200    1.5410    0.6603 C   0  0  0  0  0  0  0  0  0  0  0  0
    1.6023    0.9882   -0.2001 O   0  0  0  0  0  0  0  0  0  0  0  0
   -1.2210    2.4325    1.7382 C   0  0  2  0  0  0  0  0  0  0  0  0
   -2.7593    2.5223    1.6282 C   0  0  0  0  0  0  0  0  0  0  0  0
   -0.5686    3.8207    1.6963 C   0  0  0  0  0  0  0  0  0  0  0  0
   -3.4163    3.1859    2.8318 C   0  0  0  0  0  0  0  0  0  0  0  0
   -1.9022   -0.1128    0.2753 H   0  0  0  0  0  0  0  0  0  0  0  0
   -0.9299    1.8661   -0.3446 H   0  0  0  0  0  0  0  0  0  0  0  0
   -0.9819    1.9953    2.7169 H   0  0  0  0  0  0  0  0  0  0  0  0
   -3.0307    3.1035    0.7394 H   0  0  0  0  0  0  0  0  0  0  0  0
   -3.1923    1.5233    1.4982 H   0  0  0  0  0  0  0  0  0  0  0  0
   -0.7690    4.3163    0.7403 H   0  0  0  0  0  0  0  0  0  0  0  0
   -0.9665    4.4693    2.4827 H   0  0  0  0  0  0  0  0  0  0  0  0
    0.5168    3.7585    1.8261 H   0  0  0  0  0  0  0  0  0  0  0  0
   -3.1866    2.6549    3.7599 H   0  0  0  0  0  0  0  0  0  0  0  0
   -4.5047    3.1834    2.7125 H   0  0  0  0  0  0  0  0  0  0  0  0
   -3.0901    4.2255    2.9346 H   0  0  0  0  0  0  0  0  0  0  0  0
    1.4254    2.2735    1.7250 N   0  0  0  0  0  0  0  0  0  0  0  0
    2.8392    2.4643    1.9560 C   0  0  2  0  0  0  0  0  0  0  0  0
    3.0192    3.7718    2.7160 C   0  0  0  0  0  0  0  0  0  0  0  0
    2.1854    4.6750    2.7039 O   0  0  0  0  0  0  0  0  0  0  0  0
    3.6158    2.4841    0.6487 C   0  0  0  0  0  0  0  0  0  0  0  0
    0.7689    2.6967    2.3743 H   0  0  0  0  0  0  0  0  0  0  0  0
    3.1731    1.6290    2.5811 H   0  0  0  0  0  0  0  0  0  0  0  0
    3.2950    3.3144    0.0090 H   0  0  0  0  0  0  0  0  0  0  0  0
    4.6899    2.6001    0.8270 H   0  0  0  0  0  0  0  0  0  0  0  0
    3.4613    1.5550    0.0895 H   0  0  0  0  0  0  0  0  0  0  0  0
    4.2398    3.8291    3.3741 N   0  0  0  0  0  0  0  0  0  0  0  0
    4.6517    4.9724    4.1547 C   0  0  0  0  0  0  0  0  0  0  0  0
    4.8613    3.0263    3.3450 H   0  0  0  0  0  0  0  0  0  0  0  0
    5.2306    5.6603    3.5211 H   0  0  0  0  0  0  0  0  0  0  0  0
    3.7625    5.4913    4.5421 H   0  0  0  0  0  0  0  0  0  0  0  0
    5.2756    4.6362    4.9960 H   0  0  0  0  0  0  0  0  0  0  0  0
  1  3  1  0  0  0  0
  1  7  1  0  0  0  0
  1  2  2  0  0  0  0
 37 38  1  0  0  0  0
 38 46  1  0  0  0  0
 38 39  2  0  0  0  0
  8  9  1  0  0  0  0
  9 17  1  0  0  0  0
  9 10  2  0  0  0  0
 18 19  1  0  0  0  0
 19 36  1  0  0  0  0
 19 20  2  0  0  0  0
 22 24  1  0  0  0  0
 37 40  1  0  0  0  0
  8 11  1  0  0  0  0
 21 23  1  0  0  0  0
 46 47  1  0  0  0  0
 21 22  1  0  0  0  0
 36 37  1  0  0  0  0
  7  8  1  0  0  0  0
 18 21  1  0  0  0  0
 17 18  1  0  0  0  0
  3  4  1  0  0  0  0
  3  5  1  0  0  0  0
  3  6  1  0  0  0  0
 24 33  1  0  0  0  0
 24 34  1  0  0  0  0
 24 35  1  0  0  0  0
 40 43  1  0  0  0  0
 40 44  1  0  0  0  0
 40 45  1  0  0  0  0
 11 14  1  0  0  0  0
 11 15  1  0  0  0  0
 11 16  1  0  0  0  0
 23 30  1  0  0  0  0
 23 31  1  0  0  0  0
 23 32  1  0  0  0  0
 47 49  1  0  0  0  0
 47 50  1  0  0  0  0
 47 51  1  0  0  0  0
 22 28  1  0  0  0  0
 22 29  1  0  0  0  0
 37 42  1  0  0  0  0
  8 13  1  0  0  0  0
 18 26  1  0  0  0  0
 21 27  1  0  0  0  0
 46 48  1  0  0  0  0
  7 12  1  0  0  0  0
 36 41  1  0  0  0  0
 17 25  1  0  0  0  0
M  END
$$$$

  -OEChem-05262214473D

 51 50  0     1  0  0  0  0  0999 V2000
    1.3524   -3.0009    1.4091 C   0  0  0  0  0  0  0  0  0  0  0  0
    1.8758   -1.9880    0.9598 O   0  0  0  0  0  0  0  0  0  0  0  0
    2.2030   -4.1782    1.7536 C   0  0  0  0  0  0  0  0  0  0  0  0
    2.3264   -4.8705    0.9053 H   0  0  0  0  0  0  0  0  0  0  0  0
    3.2257   -3.8876    2.0432 H   0  0  0  0  0  0  0  0  0  0  0  0
    1.8327   -4.8004    2.5839 H   0  0  0  0  0  0  0  0  0  0  0  0
    0.0005   -3.1873    1.6465 N   0  0  0  0  0  0  0  0  0  0  0  0
   -0.9949   -2.1807    1.3864 C   0  0  2  0  0  0  0  0  0  0  0  0
   -0.3083   -0.8216    1.4164 C   0  0  0  0  0  0  0  0  0  0  0  0
    0.7533   -0.6191    2.0022 O   0  0  0  0  0  0  0  0  0  0  0  0
   -2.1232   -2.2423    2.4042 C   0  0  0  0  0  0  0  0  0  0  0  0
   -0.3048   -4.0823    2.0245 H   0  0  0  0  0  0  0  0  0  0  0  0
   -1.3830   -2.3724    0.3801 H   0  0  0  0  0  0  0  0  0  0  0  0
   -1.7534   -2.0527    3.4185 H   0  0  0  0  0  0  0  0  0  0  0  0
   -2.8936   -1.4947    2.1882 H   0  0  0  0  0  0  0  0  0  0  0  0
   -2.5964   -3.2301    2.4022 H   0  0  0  0  0  0  0  0  0  0  0  0
   -1.0412    0.1517    0.7482 N   0  0  0  0  0  0  0  0  0  0  0  0
   -0.6079    1.5223    0.6467 C   0  0  2  0  0  0  0  0  0  0  0  0
    0.9200    1.5410    0.6603 C   0  0  0  0  0  0  0  0  0  0  0  0
    1.6003    1.2316   -0.3158 O   0  0  0  0  0  0  0  0  0  0  0  0
   -1.2210    2.4325    1.7382 C   0  0  2  0  0  0  0  0  0  0  0  0
   -2.7593    2.5223    1.6282 C   0  0  0  0  0  0  0  0  0  0  0  0
   -0.5686    3.8207    1.6963 C   0  0  0  0  0  0  0  0  0  0  0  0
   -3.4163    3.1859    2.8318 C   0  0  0  0  0  0  0  0  0  0  0  0
   -1.9022   -0.1128    0.2753 H   0  0  0  0  0  0  0  0  0  0  0  0
   -0.9299    1.8661   -0.3446 H   0  0  0  0  0  0  0  0  0  0  0  0
   -0.9819    1.9953    2.7169 H   0  0  0  0  0  0  0  0  0  0  0  0
   -3.0307    3.1035    0.7394 H   0  0  0  0  0  0  0  0  0  0  0  0
   -3.1923    1.5233    1.4982 H   0  0  0  0  0  0  0  0  0  0  0  0
   -0.7690    4.3163    0.7403 H   0  0  0  0  0  0  0  0  0  0  0  0
   -0.9665    4.4693    2.4827 H   0  0  0  0  0  0  0  0  0  0  0  0
    0.5168    3.7585    1.8261 H   0  0  0  0  0  0  0  0  0  0  0  0
   -3.1866    2.6549    3.7599 H   0  0  0  0  0  0  0  0  0  0  0  0
   -4.5047    3.1834    2.7125 H   0  0  0  0  0  0  0  0  0  0  0  0
   -3.0901    4.2255    2.9346 H   0  0  0  0  0  0  0  0  0  0  0  0
    1.4277    1.9744    1.8768 N   0  0  0  0  0  0  0  0  0  0  0  0
    2.8419    2.1028    2.1454 C   0  0  2  0  0  0  0  0  0  0  0  0
    3.0221    3.1696    3.2172 C   0  0  0  0  0  0  0  0  0  0  0  0
    2.1866    4.0428    3.4418 O   0  0  0  0  0  0  0  0  0  0  0  0
    3.6140    2.4623    0.8854 C   0  0  0  0  0  0  0  0  0  0  0  0
    0.7727    2.2133    2.6154 H   0  0  0  0  0  0  0  0  0  0  0  0
    3.1796    1.1350    2.5320 H   0  0  0  0  0  0  0  0  0  0  0  0
    3.2894    3.4290    0.4834 H   0  0  0  0  0  0  0  0  0  0  0  0
    4.6885    2.5312    1.0846 H   0  0  0  0  0  0  0  0  0  0  0  0
    3.4593    1.7091    0.1053 H   0  0  0  0  0  0  0  0  0  0  0  0
    4.2448    3.0579    3.8643 N   0  0  0  0  0  0  0  0  0  0  0  0
    4.6573    3.9613    4.9130 C   0  0  0  0  0  0  0  0  0  0  0  0
    4.8678    2.2916    3.6267 H   0  0  0  0  0  0  0  0  0  0  0  0
    5.2327    4.7914    4.4773 H   0  0  0  0  0  0  0  0  0  0  0  0
    3.7685    4.3599    5.4240 H   0  0  0  0  0  0  0  0  0  0  0  0
    5.2847    3.4206    5.6369 H   0  0  0  0  0  0  0  0  0  0  0  0
  1  3  1  0  0  0  0
  1  7  1  0  0  0  0
  1  2  2  0  0  0  0
 37 38  1  0  0  0  0
 38 46  1  0  0  0  0
 38 39  2  0  0  0  0
  8  9  1  0  0  0  0
  9 17  1  0  0  0  0
  9 10  2  0  0  0  0
 18 19  1  0  0  0  0
 19 36  1  0  0  0  0
 19 20  2  0  0  0  0
 22 24  1  0  0  0  0
 37 40  1  0  0  0  0
  8 11  1  0  0  0  0
 21 23  1  0  0  0  0
 46 47  1  0  0  0  0
 21 22  1  0  0  0  0
 36 37  1  0  0  0  0
  7  8  1  0  0  0  0
 18 21  1  0  0  0  0
 17 18  1  0  0  0  0
  3  4  1  0  0  0  0
  3  5  1  0  0  0  0
  3  6  1  0  0  0  0
 24 33  1  0  0  0  0
 24 34  1  0  0  0  0
 24 35  1  0  0  0  0
 40 43  1  0  0  0  0
 40 44  1  0  0  0  0
 40 45  1  0  0  0  0
 11 14  1  0  0  0  0
 11 15  1  0  0  0  0
 11 16  1  0  0  0  0
 23 30  1  0  0  0  0
 23 31  1  0  0  0  0
 23 32  1  0  0  0  0
 47 49  1  0  0  0  0
 47 50  1  0  0  0  0
 47 51  1  0  0  0  0
 22 28  1  0  0  0  0
 22 29  1  0  0  0  0
 37 42  1  0  0  0  0
  8 13  1  0  0  0  0
 18 26  1  0  0  0  0
 21 27  1  0  0  0  0
 46 48  1  0  0  0  0
  7 12  1  0  0  0  0
 36 41  1  0  0  0  0
 17 25  1  0  0  0  0
M  END
$$$$

  -OEChem-05262214473D

 51 50  0     1  0  0  0  0  0999 V2000
    1.3524   -3.0009    1.4091 C   0  0  0  0  0  0  0  0  0  0  0  0
    1.8758   -1.9880    0.9598 O   0  0  0  0  0  0  0  0  0  0  0  0
    2.2030   -4.1782    1.7536 C   0  0  0  0  0  0  0  0  0  0  0  0
    2.3264   -4.8705    0.9053 H   0  0  0  0  0  0  0  0  0  0  0  0
    3.2257   -3.8876    2.0432 H   0  0  0  0  0  0  0  0  0  0  0  0
    1.8327   -4.8004    2.5839 H   0  0  0  0  0  0  0  0  0  0  0  0
    0.0005   -3.1873    1.6465 N   0  0  0  0  0  0  0  0  0  0  0  0
   -0.9949   -2.1807    1.3864 C   0  0  2  0  0  0  0  0  0  0  0  0
   -0.3083   -0.8216    1.4164 C   0  0  0  0  0  0  0  0  0  0  0  0
    0.7533   -0.6191    2.0022 O   0  0  0  0  0  0  0  0  0  0  0  0
   -2.1232   -2.2423    2.4042 C   0  0  0  0  0  0  0  0  0  0  0  0
   -0.3048   -4.0823    2.0245 H   0  0  0  0  0  0  0  0  0  0  0  0
   -1.3830   -2.3724    0.3801 H   0  0  0  0  0  0  0  0  0  0  0  0
   -1.7534   -2.0527    3.4185 H   0  0  0  0  0  0  0  0  0  0  0  0
   -2.8936   -1.4947    2.1882 H   0  0  0  0  0  0  0  0  0  0  0  0
   -2.5964   -3.2301    2.4022 H   0  0  0  0  0  0  0  0  0  0  0  0
   -1.0412    0.1517    0.7482 N   0  0  0  0  0  0  0  0  0  0  0  0
   -0.6079    1.5223    0.6467 C   0  0  2  0  0  0  0  0  0  0  0  0
    0.9200    1.5410    0.6603 C   0  0  0  0  0  0  0  0  0  0  0  0
    1.5975    1.4966   -0.3646 O   0  0  0  0  0  0  0  0  0  0  0  0
   -1.2210    2.4325    1.7382 C   0  0  2  0  0  0  0  0  0  0  0  0
   -2.7593    2.5223    1.6282 C   0  0  0  0  0  0  0  0  0  0  0  0
   -0.5686    3.8207    1.6963 C   0  0  0  0  0  0  0  0  0  0  0  0
   -3.4163    3.1859    2.8318 C   0  0  0  0  0  0  0  0  0  0  0  0
   -1.9022   -0.1128    0.2753 H   0  0  0  0  0  0  0  0  0  0  0  0
   -0.9299    1.8661   -0.3446 H   0  0  0  0  0  0  0  0  0  0  0  0
   -0.9819    1.9953    2.7169 H   0  0  0  0  0  0  0  0  0  0  0  0
   -3.0307    3.1035    0.7394 H   0  0  0  0  0  0  0  0  0  0  0  0
   -3.1923    1.5233    1.4982 H   0  0  0  0  0  0  0  0  0  0  0  0
   -0.7690    4.3163    0.7403 H   0  0  0  0  0  0  0  0  0  0  0  0
   -0.9665    4.4693    2.4827 H   0  0  0  0  0  0  0  0  0  0  0  0
    0.5168    3.7585    1.8261 H   0  0  0  0  0  0  0  0  0  0  0  0
   -3.1866    2.6549    3.7599 H   0  0  0  0  0  0  0  0  0  0  0  0
   -4.5047    3.1834    2.7125 H   0  0  0  0  0  0  0  0  0  0  0  0
   -3.0901    4.2255    2.9346 H   0  0  0  0  0  0  0  0  0  0  0  0
    1.4311    1.6462    1.9461 N   0  0  0  0  0  0  0  0  0  0  0  0
    2.8460    1.7046    2.2347 C   0  0  2  0  0  0  0  0  0  0  0  0
    3.0279    2.4581    3.5456 C   0  0  0  0  0  0  0  0  0  0  0  0
    2.1915    3.2412    3.9908 O   0  0  0  0  0  0  0  0  0  0  0  0
    3.6130    2.3800    1.1085 C   0  0  0  0  0  0  0  0  0  0  0  0
    0.7782    1.6841    2.7232 H   0  0  0  0  0  0  0  0  0  0  0  0
    3.1868    0.6706    2.3567 H   0  0  0  0  0  0  0  0  0  0  0  0
    3.2852    3.4169    0.9713 H   0  0  0  0  0  0  0  0  0  0  0  0
    4.6881    2.3979    1.3156 H   0  0  0  0  0  0  0  0  0  0  0  0
    3.4570    1.8539    0.1605 H   0  0  0  0  0  0  0  0  0  0  0  0
    4.2531    2.1861    4.1382 N   0  0  0  0  0  0  0  0  0  0  0  0
    4.6675    2.7885    5.3838 C   0  0  0  0  0  0  0  0  0  0  0  0
    4.8766    1.5091    3.7086 H   0  0  0  0  0  0  0  0  0  0  0  0
    5.2398    3.7046    5.1761 H   0  0  0  0  0  0  0  0  0  0  0  0
    3.7797    3.0389    5.9831 H   0  0  0  0  0  0  0  0  0  0  0  0
    5.2984    2.0805    5.9412 H   0  0  0  0  0  0  0  0  0  0  0  0
  1  3  1  0  0  0  0
  1  7  1  0  0  0  0
  1  2  2  0  0  0  0
 37 38  1  0  0  0  0
 38 46  1  0  0  0  0
 38 39  2  0  0  0  0
  8  9  1  0  0  0  0
  9 17  1  0  0  0  0
  9 10  2  0  0  0  0
 18 19  1  0  0  0  0
 19 36  1  0  0  0  0
 19 20  2  0  0  0  0
 22 24  1  0  0  0  0
 37 40  1  0  0  0  0
  8 11  1  0  0  0  0
 21 23  1  0  0  0  0
 46 47  1  0  0  0  0
 21 22  1  0  0  0  0
 36 37  1  0  0  0  0
  7  8  1  0  0  0  0
 18 21  1  0  0  0  0
 17 18  1  0  0  0  0
  3  4  1  0  0  0  0
  3  5  1  0  0  0  0
  3  6  1  0  0  0  0
 24 33  1  0  0  0  0
 24 34  1  0  0  0  0
 24 35  1  0  0  0  0
 40 43  1  0  0  0  0
 40 44  1  0  0  0  0
 40 45  1  0  0  0  0
 11 14  1  0  0  0  0
 11 15  1  0  0  0  0
 11 16  1  0  0  0  0
 23 30  1  0  0  0  0
 23 31  1  0  0  0  0
 23 32  1  0  0  0  0
 47 49  1  0  0  0  0
 47 50  1  0  0  0  0
 47 51  1  0  0  0  0
 22 28  1  0  0  0  0
 22 29  1  0  0  0  0
 37 42  1  0  0  0  0
  8 13  1  0  0  0  0
 18 26  1  0  0  0  0
 21 27  1  0  0  0  0
 46 48  1  0  0  0  0
  7 12  1  0  0  0  0
 36 41  1  0  0  0  0
 17 25  1  0  0  0  0
M  END
$$$$

  -OEChem-05262214473D

 51 50  0     1  0  0  0  0  0999 V2000
    1.3524   -3.0009    1.4091 C   0  0  0  0  0  0  0  0  0  0  0  0
    1.8758   -1.9880    0.9598 O   0  0  0  0  0  0  0  0  0  0  0  0
    2.2030   -4.1782    1.7536 C   0  0  0  0  0  0  0  0  0  0  0  0
    2.3264   -4.8705    0.9053 H   0  0  0  0  0  0  0  0  0  0  0  0
    3.2257   -3.8876    2.0432 H   0  0  0  0  0  0  0  0  0  0  0  0
    1.8327   -4.8004    2.5839 H   0  0  0  0  0  0  0  0  0  0  0  0
    0.0005   -3.1873    1.6465 N   0  0  0  0  0  0  0  0  0  0  0  0
   -0.9949   -2.1807    1.3864 C   0  0  2  0  0  0  0  0  0  0  0  0
   -0.3083   -0.8216    1.4164 C   0  0  0  0  0  0  0  0  0  0  0  0
    0.7533   -0.6191    2.0022 O   0  0  0  0  0  0  0  0  0  0  0  0
   -2.1232   -2.2423    2.4042 C   0  0  0  0  0  0  0  0  0  0  0  0
   -0.3048   -4.0823    2.0245 H   0  0  0  0  0  0  0  0  0  0  0  0
   -1.3830   -2.3724    0.3801 H   0  0  0  0  0  0  0  0  0  0  0  0
   -1.7534   -2.0527    3.4185 H   0  0  0  0  0  0  0  0  0  0  0  0
   -2.8936   -1.4947    2.1882 H   0  0  0  0  0  0  0  0  0  0  0  0
   -2.5964   -3.2301    2.4022 H   0  0  0  0  0  0  0  0  0  0  0  0
   -1.0412    0.1517    0.7482 N   0  0  0  0  0  0  0  0  0  0  0  0
   -0.6079    1.5223    0.6467 C   0  0  2  0  0  0  0  0  0  0  0  0
    0.9200    1.5410    0.6603 C   0  0  0  0  0  0  0  0  0  0  0  0
    1.5941    1.7652   -0.3431 O   0  0  0  0  0  0  0  0  0  0  0  0
   -1.2210    2.4325    1.7382 C   0  0  2  0  0  0  0  0  0  0  0  0
   -2.7593    2.5223    1.6282 C   0  0  0  0  0  0  0  0  0  0  0  0
   -0.5686    3.8207    1.6963 C   0  0  0  0  0  0  0  0  0  0  0  0
   -3.4163    3.1859    2.8318 C   0  0  0  0  0  0  0  0  0  0  0  0
   -1.9022   -0.1128    0.2753 H   0  0  0  0  0  0  0  0  0  0  0  0
   -0.9299    1.8661   -0.3446 H   0  0  0  0  0  0  0  0  0  0  0  0
   -0.9819    1.9953    2.7169 H   0  0  0  0  0  0  0  0  0  0  0  0
   -3.0307    3.1035    0.7394 H   0  0  0  0  0  0  0  0  0  0  0  0
   -3.1923    1.5233    1.4982 H   0  0  0  0  0  0  0  0  0  0  0  0
   -0.7690    4.3163    0.7403 H   0  0  0  0  0  0  0  0  0  0  0  0
   -0.9665    4.4693    2.4827 H   0  0  0  0  0  0  0  0  0  0  0  0
    0.5168    3.7585    1.8261 H   0  0  0  0  0  0  0  0  0  0  0  0
   -3.1866    2.6549    3.7599 H   0  0  0  0  0  0  0  0  0  0  0  0
   -4.5047    3.1834    2.7125 H   0  0  0  0  0  0  0  0  0  0  0  0
   -3.0901    4.2255    2.9346 H   0  0  0  0  0  0  0  0  0  0  0  0
    1.4354    1.3113    1.9281 N   0  0  0  0  0  0  0  0  0  0  0  0
    2.8511    1.2968    2.2178 C   0  0  2  0  0  0  0  0  0  0  0  0
    3.0362    1.6859    3.6786 C   0  0  0  0  0  0  0  0  0  0  0  0
    2.1998    2.3249    4.3137 O   0  0  0  0  0  0  0  0  0  0  0  0
    3.6129    2.2427    1.3026 C   0  0  0  0  0  0  0  0  0  0  0  0
    0.7851    1.1450    2.6904 H   0  0  0  0  0  0  0  0  0  0  0  0
    3.1943    0.2674    2.0672 H   0  0  0  0  0  0  0  0  0  0  0  0
    3.2827    3.2790    1.4394 H   0  0  0  0  0  0  0  0  0  0  0  0
    4.6887    2.2093    1.5043 H   0  0  0  0  0  0  0  0  0  0  0  0
    3.4547    1.9795    0.2512 H   0  0  0  0  0  0  0  0  0  0  0  0
    4.2639    1.2731    4.1772 N   0  0  0  0  0  0  0  0  0  0  0  0
    4.6814    1.5338    5.5350 C   0  0  0  0  0  0  0  0  0  0  0  0
    4.8872    0.7321    3.5852 H   0  0  0  0  0  0  0  0  0  0  0  0
    5.2513    2.4740    5.5698 H   0  0  0  0  0  0  0  0  0  0  0  0
    3.7953    1.6181    6.1812 H   0  0  0  0  0  0  0  0  0  0  0  0
    5.3157    0.7074    5.8884 H   0  0  0  0  0  0  0  0  0  0  0  0
  1  3  1  0  0  0  0
  1  7  1  0  0  0  0
  1  2  2  0  0  0  0
 37 38  1  0  0  0  0
 38 46  1  0  0  0  0
 38 39  2  0  0  0  0
  8  9  1  0  0  0  0
  9 17  1  0  0  0  0
  9 10  2  0  0  0  0
 18 19  1  0  0  0  0
 19 36  1  0  0  0  0
 19 20  2  0  0  0  0
 22 24  1  0  0  0  0
 37 40  1  0  0  0  0
  8 11  1  0  0  0  0
 21 23  1  0  0  0  0
 46 47  1  0  0  0  0
 21 22  1  0  0  0  0
 36 37  1  0  0  0  0
  7  8  1  0  0  0  0
 18 21  1  0  0  0  0
 17 18  1  0  0  0  0
  3  4  1  0  0  0  0
  3  5  1  0  0  0  0
  3  6  1  0  0  0  0
 24 33  1  0  0  0  0
 24 34  1  0  0  0  0
 24 35  1  0  0  0  0
 40 43  1  0  0  0  0
 40 44  1  0  0  0  0
 40 45  1  0  0  0  0
 11 14  1  0  0  0  0
 11 15  1  0  0  0  0
 11 16  1  0  0  0  0
 23 30  1  0  0  0  0
 23 31  1  0  0  0  0
 23 32  1  0  0  0  0
 47 49  1  0  0  0  0
 47 50  1  0  0  0  0
 47 51  1  0  0  0  0
 22 28  1  0  0  0  0
 22 29  1  0  0  0  0
 37 42  1  0  0  0  0
  8 13  1  0  0  0  0
 18 26  1  0  0  0  0
 21 27  1  0  0  0  0
 46 48  1  0  0  0  0
  7 12  1  0  0  0  0
 36 41  1  0  0  0  0
 17 25  1  0  0  0  0
M  END
$$$$

  -OEChem-05262214473D

 51 50  0     1  0  0  0  0  0999 V2000
    1.3524   -3.0009    1.4091 C   0  0  0  0  0  0  0  0  0  0  0  0
    1.8758   -1.9880    0.9598 O   0  0  0  0  0  0  0  0  0  0  0  0
    2.2030   -4.1782    1.7536 C   0  0  0  0  0  0  0  0  0  0  0  0
    2.3264   -4.8705    0.9053 H   0  0  0  0  0  0  0  0  0  0  0  0
    3.2257   -3.8876    2.0432 H   0  0  0  0  0  0  0  0  0  0  0  0
    1.8327   -4.8004    2.5839 H   0  0  0  0  0  0  0  0  0  0  0  0
    0.0005   -3.1873    1.6465 N   0  0  0  0  0  0  0  0  0  0  0  0
   -0.9949   -2.1807    1.3864 C   0  0  2  0  0  0  0  0  0  0  0  0
   -0.3083   -0.8216    1.4164 C   0  0  0  0  0  0  0  0  0  0  0  0
    0.7533   -0.6191    2.0022 O   0  0  0  0  0  0  0  0  0  0  0  0
   -2.1232   -2.2423    2.4042 C   0  0  0  0  0  0  0  0  0  0  0  0
   -0.3048   -4.0823    2.0245 H   0  0  0  0  0  0  0  0  0  0  0  0
   -1.3830   -2.3724    0.3801 H   0  0  0  0  0  0  0  0  0  0  0  0
   -1.7534   -2.0527    3.4185 H   0  0  0  0  0  0  0  0  0  0  0  0
   -2.8936   -1.4947    2.1882 H   0  0  0  0  0  0  0  0  0  0  0  0
   -2.5964   -3.2301    2.4022 H   0  0  0  0  0  0  0  0  0  0  0  0
   -1.0412    0.1517    0.7482 N   0  0  0  0  0  0  0  0  0  0  0  0
   -0.6079    1.5223    0.6467 C   0  0  2  0  0  0  0  0  0  0  0  0
    0.9200    1.5410    0.6603 C   0  0  0  0  0  0  0  0  0  0  0  0
    1.5901    2.0190   -0.2528 O   0  0  0  0  0  0  0  0  0  0  0  0
   -1.2210    2.4325    1.7382 C   0  0  2  0  0  0  0  0  0  0  0  0
   -2.7593    2.5223    1.6282 C   0  0  0  0  0  0  0  0  0  0  0  0
   -0.5686    3.8207    1.6963 C   0  0  0  0  0  0  0  0  0  0  0  0
   -3.4163    3.1859    2.8318 C   0  0  0  0  0  0  0  0  0  0  0  0
   -1.9022   -0.1128    0.2753 H   0  0  0  0  0  0  0  0  0  0  0  0
   -0.9299    1.8661   -0.3446 H   0  0  0  0  0  0  0  0  0  0  0  0
   -0.9819    1.9953    2.7169 H   0  0  0  0  0  0  0  0  0  0  0  0
   -3.0307    3.1035    0.7394 H   0  0  0  0  0  0  0  0  0  0  0  0
   -3.1923    1.5233    1.4982 H   0  0  0  0  0  0  0  0  0  0  0  0
   -0.7690    4.3163    0.7403 H   0  0  0  0  0  0  0  0  0  0  0  0
   -0.9665    4.4693    2.4827 H   0  0  0  0  0  0  0  0  0  0  0  0
    0.5168    3.7585    1.8261 H   0  0  0  0  0  0  0  0  0  0  0  0
   -3.1866    2.6549    3.7599 H   0  0  0  0  0  0  0  0  0  0  0  0
   -4.5047    3.1834    2.7125 H   0  0  0  0  0  0  0  0  0  0  0  0
   -3.0901    4.2255    2.9346 H   0  0  0  0  0  0  0  0  0  0  0  0
    1.4402    0.9924    1.8239 N   0  0  0  0  0  0  0  0  0  0  0  0
    2.8570    0.9073    2.0961 C   0  0  2  0  0  0  0  0  0  0  0  0
    3.0463    0.9057    3.6072 C   0  0  0  0  0  0  0  0  0  0  0  0
    2.2110    1.3562    4.3884 O   0  0  0  0  0  0  0  0  0  0  0  0
    3.6138    2.0599    1.4547 C   0  0  0  0  0  0  0  0  0  0  0  0
    0.7929    0.6327    2.5191 H   0  0  0  0  0  0  0  0  0  0  0  0
    3.2015   -0.0471    1.6832 H   0  0  0  0  0  0  0  0  0  0  0  0
    3.2821    3.0246    1.8558 H   0  0  0  0  0  0  0  0  0  0  0  0
    4.6903    1.9784    1.6377 H   0  0  0  0  0  0  0  0  0  0  0  0
    3.4524    2.0773    0.3714 H   0  0  0  0  0  0  0  0  0  0  0  0
    4.2765    0.3813    3.9785 N   0  0  0  0  0  0  0  0  0  0  0  0
    4.6983    0.2827    5.3563 C   0  0  0  0  0  0  0  0  0  0  0  0
    4.8989    0.0136    3.2648 H   0  0  0  0  0  0  0  0  0  0  0  0
    5.2666    1.1835    5.6316 H   0  0  0  0  0  0  0  0  0  0  0  0
    3.8142    0.1946    6.0048 H   0  0  0  0  0  0  0  0  0  0  0  0
    5.3353   -0.6052    5.4820 H   0  0  0  0  0  0  0  0  0  0  0  0
  1  3  1  0  0  0  0
  1  7  1  0  0  0  0
  1  2  2  0  0  0  0
 37 38  1  0  0  0  0
 38 46  1  0  0  0  0
 38 39  2  0  0  0  0
  8  9  1  0  0  0  0
  9 17  1  0  0  0  0
  9 10  2  0  0  0  0
 18 19  1  0  0  0  0
 19 36  1  0  0  0  0
 19 20  2  0  0  0  0
 22 24  1  0  0  0  0
 37 40  1  0  0  0  0
  8 11  1  0  0  0  0
 21 23  1  0  0  0  0
 46 47  1  0  0  0  0
 21 22  1  0  0  0  0
 36 37  1  0  0  0  0
  7  8  1  0  0  0  0
 18 21  1  0  0  0  0
 17 18  1  0  0  0  0
  3  4  1  0  0  0  0
  3  5  1  0  0  0  0
  3  6  1  0  0  0  0
 24 33  1  0  0  0  0
 24 34  1  0  0  0  0
 24 35  1  0  0  0  0
 40 43  1  0  0  0  0
 40 44  1  0  0  0  0
 40 45  1  0  0  0  0
 11 14  1  0  0  0  0
 11 15  1  0  0  0  0
 11 16  1  0  0  0  0
 23 30  1  0  0  0  0
 23 31  1  0  0  0  0
 23 32  1  0  0  0  0
 47 49  1  0  0  0  0
 47 50  1  0  0  0  0
 47 51  1  0  0  0  0
 22 28  1  0  0  0  0
 22 29  1  0  0  0  0
 37 42  1  0  0  0  0
  8 13  1  0  0  0  0
 18 26  1  0  0  0  0
 21 27  1  0  0  0  0
 46 48  1  0  0  0  0
  7 12  1  0  0  0  0
 36 41  1  0  0  0  0
 17 25  1  0  0  0  0
M  END
$$$$

  -OEChem-05262214473D

 51 50  0     1  0  0  0  0  0999 V2000
    1.3524   -3.0009    1.4091 C   0  0  0  0  0  0  0  0  0  0  0  0
    1.8758   -1.9880    0.9598 O   0  0  0  0  0  0  0  0  0  0  0  0
    2.2030   -4.1782    1.7536 C   0  0  0  0  0  0  0  0  0  0  0  0
    2.3264   -4.8705    0.9053 H   0  0  0  0  0  0  0  0  0  0  0  0
    3.2257   -3.8876    2.0432 H   0  0  0  0  0  0  0  0  0  0  0  0
    1.8327   -4.8004    2.5839 H   0  0  0  0  0  0  0  0  0  0  0  0
    0.0005   -3.1873    1.6465 N   0  0  0  0  0  0  0  0  0  0  0  0
   -0.9949   -2.1807    1.3864 C   0  0  2  0  0  0  0  0  0  0  0  0
   -0.3083   -0.8216    1.4164 C   0  0  0  0  0  0  0  0  0  0  0  0
    0.7533   -0.6191    2.0022 O   0  0  0  0  0  0  0  0  0  0  0  0
   -2.1232   -2.2423    2.4042 C   0  0  0  0  0  0  0  0  0  0  0  0
   -0.3048   -4.0823    2.0245 H   0  0  0  0  0  0  0  0  0  0  0  0
   -1.3830   -2.3724    0.3801 H   0  0  0  0  0  0  0  0  0  0  0  0
   -1.7534   -2.0527    3.4185 H   0  0  0  0  0  0  0  0  0  0  0  0
   -2.8936   -1.4947    2.1882 H   0  0  0  0  0  0  0  0  0  0  0  0
   -2.5964   -3.2301    2.4022 H   0  0  0  0  0  0  0  0  0  0  0  0
   -1.0412    0.1517    0.7482 N   0  0  0  0  0  0  0  0  0  0  0  0
   -0.6079    1.5223    0.6467 C   0  0  2  0  0  0  0  0  0  0  0  0
    0.9200    1.5410    0.6603 C   0  0  0  0  0  0  0  0  0  0  0  0
    1.5861    2.2409   -0.0999 O   0  0  0  0  0  0  0  0  0  0  0  0
   -1.2210    2.4325    1.7382 C   0  0  2  0  0  0  0  0  0  0  0  0
   -2.7593    2.5223    1.6282 C   0  0  0  0  0  0  0  0  0  0  0  0
   -0.5686    3.8207    1.6963 C   0  0  0  0  0  0  0  0  0  0  0  0
   -3.4163    3.1859    2.8318 C   0  0  0  0  0  0  0  0  0  0  0  0
   -1.9022   -0.1128    0.2753 H   0  0  0  0  0  0  0  0  0  0  0  0
   -0.9299    1.8661   -0.3446 H   0  0  0  0  0  0  0  0  0  0  0  0
   -0.9819    1.9953    2.7169 H   0  0  0  0  0  0  0  0  0  0  0  0
   -3.0307    3.1035    0.7394 H   0  0  0  0  0  0  0  0  0  0  0  0
   -3.1923    1.5233    1.4982 H   0  0  0  0  0  0  0  0  0  0  0  0
   -0.7690    4.3163    0.7403 H   0  0  0  0  0  0  0  0  0  0  0  0
   -0.9665    4.4693    2.4827 H   0  0  0  0  0  0  0  0  0  0  0  0
    0.5168    3.7585    1.8261 H   0  0  0  0  0  0  0  0  0  0  0  0
   -3.1866    2.6549    3.7599 H   0  0  0  0  0  0  0  0  0  0  0  0
   -4.5047    3.1834    2.7125 H   0  0  0  0  0  0  0  0  0  0  0  0
   -3.0901    4.2255    2.9346 H   0  0  0  0  0  0  0  0  0  0  0  0
    1.4452    0.7114    1.6408 N   0  0  0  0  0  0  0  0  0  0  0  0
    2.8631    0.5626    1.8776 C   0  0  2  0  0  0  0  0  0  0  0  0
    3.0577    0.1705    3.3363 C   0  0  0  0  0  0  0  0  0  0  0  0
    2.2242    0.4012    4.2099 O   0  0  0  0  0  0  0  0  0  0  0  0
    3.6156    1.8440    1.5542 C   0  0  0  0  0  0  0  0  0  0  0  0
    0.8010    0.1823    2.2211 H   0  0  0  0  0  0  0  0  0  0  0  0
    3.2081   -0.2515    1.2308 H   0  0  0  0  0  0  0  0  0  0  0  0
    3.2835    2.6710    2.1923 H   0  0  0  0  0  0  0  0  0  0  0  0
    4.6929    1.7208    1.7068 H   0  0  0  0  0  0  0  0  0  0  0  0
    3.4504    2.1407    0.5128 H   0  0  0  0  0  0  0  0  0  0  0  0
    4.2902   -0.4288    3.5557 N   0  0  0  0  0  0  0  0  0  0  0  0
    4.7169   -0.8794    4.8598 C   0  0  0  0  0  0  0  0  0  0  0  0
    4.9107   -0.5976    2.7694 H   0  0  0  0  0  0  0  0  0  0  0  0
    5.2844   -0.0791    5.3573 H   0  0  0  0  0  0  0  0  0  0  0  0
    3.8353   -1.1348    5.4660 H   0  0  0  0  0  0  0  0  0  0  0  0
    5.3560   -1.7679    4.7497 H   0  0  0  0  0  0  0  0  0  0  0  0
  1  3  1  0  0  0  0
  1  7  1  0  0  0  0
  1  2  2  0  0  0  0
 37 38  1  0  0  0  0
 38 46  1  0  0  0  0
 38 39  2  0  0  0  0
  8  9  1  0  0  0  0
  9 17  1  0  0  0  0
  9 10  2  0  0  0  0
 18 19  1  0  0  0  0
 19 36  1  0  0  0  0
 19 20  2  0  0  0  0
 22 24  1  0  0  0  0
 37 40  1  0  0  0  0
  8 11  1  0  0  0  0
 21 23  1  0  0  0  0
 46 47  1  0  0  0  0
 21 22  1  0  0  0  0
 36 37  1  0  0  0  0
  7  8  1  0  0  0  0
 18 21  1  0  0  0  0
 17 18  1  0  0  0  0
  3  4  1  0  0  0  0
  3  5  1  0  0  0  0
  3  6  1  0  0  0  0
 24 33  1  0  0  0  0
 24 34  1  0  0  0  0
 24 35  1  0  0  0  0
 40 43  1  0  0  0  0
 40 44  1  0  0  0  0
 40 45  1  0  0  0  0
 11 14  1  0  0  0  0
 11 15  1  0  0  0  0
 11 16  1  0  0  0  0
 23 30  1  0  0  0  0
 23 31  1  0  0  0  0
 23 32  1  0  0  0  0
 47 49  1  0  0  0  0
 47 50  1  0  0  0  0
 47 51  1  0  0  0  0
 22 28  1  0  0  0  0
 22 29  1  0  0  0  0
 37 42  1  0  0  0  0
  8 13  1  0  0  0  0
 18 26  1  0  0  0  0
 21 27  1  0  0  0  0
 46 48  1  0  0  0  0
  7 12  1  0  0  0  0
 36 41  1  0  0  0  0
 17 25  1  0  0  0  0
M  END
$$$$

  -OEChem-05262214473D

 51 50  0     1  0  0  0  0  0999 V2000
    1.3524   -3.0009    1.4091 C   0  0  0  0  0  0  0  0  0  0  0  0
    1.8758   -1.9880    0.9598 O   0  0  0  0  0  0  0  0  0  0  0  0
    2.2030   -4.1782    1.7536 C   0  0  0  0  0  0  0  0  0  0  0  0
    2.3264   -4.8705    0.9053 H   0  0  0  0  0  0  0  0  0  0  0  0
    3.2257   -3.8876    2.0432 H   0  0  0  0  0  0  0  0  0  0  0  0
    1.8327   -4.8004    2.5839 H   0  0  0  0  0  0  0  0  0  0  0  0
    0.0005   -3.1873    1.6465 N   0  0  0  0  0  0  0  0  0  0  0  0
   -0.9949   -2.1807    1.3864 C   0  0  2  0  0  0  0  0  0  0  0  0
   -0.3083   -0.8216    1.4164 C   0  0  0  0  0  0  0  0  0  0  0  0
    0.7533   -0.6191    2.0022 O   0  0  0  0  0  0  0  0  0  0  0  0
   -2.1232   -2.2423    2.4042 C   0  0  0  0  0  0  0  0  0  0  0  0
   -0.3048   -4.0823    2.0245 H   0  0  0  0  0  0  0  0  0  0  0  0
   -1.3830   -2.3724    0.3801 H   0  0  0  0  0  0  0  0  0  0  0  0
   -1.7534   -2.0527    3.4185 H   0  0  0  0  0  0  0  0  0  0  0  0
   -2.8936   -1.4947    2.1882 H   0  0  0  0  0  0  0  0  0  0  0  0
   -2.5964   -3.2301    2.4022 H   0  0  0  0  0  0  0  0  0  0  0  0
   -1.0412    0.1517    0.7482 N   0  0  0  0  0  0  0  0  0  0  0  0
   -0.6079    1.5223    0.6467 C   0  0  2  0  0  0  0  0  0  0  0  0
    0.9200    1.5410    0.6603 C   0  0  0  0  0  0  0  0  0  0  0  0
    1.5821    2.4156    0.1052 O   0  0  0  0  0  0  0  0  0  0  0  0
   -1.2210    2.4325    1.7382 C   0  0  2  0  0  0  0  0  0  0  0  0
   -2.7593    2.5223    1.6282 C   0  0  0  0  0  0  0  0  0  0  0  0
   -0.5686    3.8207    1.6963 C   0  0  0  0  0  0  0  0  0  0  0  0
   -3.4163    3.1859    2.8318 C   0  0  0  0  0  0  0  0  0  0  0  0
   -1.9022   -0.1128    0.2753 H   0  0  0  0  0  0  0  0  0  0  0  0
   -0.9299    1.8661   -0.3446 H   0  0  0  0  0  0  0  0  0  0  0  0
   -0.9819    1.9953    2.7169 H   0  0  0  0  0  0  0  0  0  0  0  0
   -3.0307    3.1035    0.7394 H   0  0  0  0  0  0  0  0  0  0  0  0
   -3.1923    1.5233    1.4982 H   0  0  0  0  0  0  0  0  0  0  0  0
   -0.7690    4.3163    0.7403 H   0  0  0  0  0  0  0  0  0  0  0  0
   -0.9665    4.4693    2.4827 H   0  0  0  0  0  0  0  0  0  0  0  0
    0.5168    3.7585    1.8261 H   0  0  0  0  0  0  0  0  0  0  0  0
   -3.1866    2.6549    3.7599 H   0  0  0  0  0  0  0  0  0  0  0  0
   -4.5047    3.1834    2.7125 H   0  0  0  0  0  0  0  0  0  0  0  0
   -3.0901    4.2255    2.9346 H   0  0  0  0  0  0  0  0  0  0  0  0
    1.4502    0.4873    1.3912 N   0  0  0  0  0  0  0  0  0  0  0  0
    2.8692    0.2862    1.5774 C   0  0  2  0  0  0  0  0  0  0  0  0
    3.0696   -0.4695    2.8843 C   0  0  0  0  0  0  0  0  0  0  0  0
    2.2387   -0.4750    3.7902 O   0  0  0  0  0  0  0  0  0  0  0  0
    3.6181    1.6097    1.5945 C   0  0  0  0  0  0  0  0  0  0  0  0
    0.8090   -0.1756    1.8166 H   0  0  0  0  0  0  0  0  0  0  0  0
    3.2134   -0.3318    0.7410 H   0  0  0  0  0  0  0  0  0  0  0  0
    3.2866    2.2425    2.4258 H   0  0  0  0  0  0  0  0  0  0  0  0
    4.6961    1.4541    1.7069 H   0  0  0  0  0  0  0  0  0  0  0  0
    3.4487    2.1653    0.6658 H   0  0  0  0  0  0  0  0  0  0  0  0
    4.3039   -1.1018    2.9376 N   0  0  0  0  0  0  0  0  0  0  0  0
    4.7360   -1.8734    4.0795 C   0  0  0  0  0  0  0  0  0  0  0  0
    4.9220   -1.0597    2.1327 H   0  0  0  0  0  0  0  0  0  0  0  0
    5.3037   -1.2275    4.7655 H   0  0  0  0  0  0  0  0  0  0  0  0
    3.8569   -2.2793    4.6015 H   0  0  0  0  0  0  0  0  0  0  0  0
    5.3764   -2.7013    3.7414 H   0  0  0  0  0  0  0  0  0  0  0  0
  1  3  1  0  0  0  0
  1  7  1  0  0  0  0
  1  2  2  0  0  0  0
 37 38  1  0  0  0  0
 38 46  1  0  0  0  0
 38 39  2  0  0  0  0
  8  9  1  0  0  0  0
  9 17  1  0  0  0  0
  9 10  2  0  0  0  0
 18 19  1  0  0  0  0
 19 36  1  0  0  0  0
 19 20  2  0  0  0  0
 22 24  1  0  0  0  0
 37 40  1  0  0  0  0
  8 11  1  0  0  0  0
 21 23  1  0  0  0  0
 46 47  1  0  0  0  0
 21 22  1  0  0  0  0
 36 37  1  0  0  0  0
  7  8  1  0  0  0  0
 18 21  1  0  0  0  0
 17 18  1  0  0  0  0
  3  4  1  0  0  0  0
  3  5  1  0  0  0  0
  3  6  1  0  0  0  0
 24 33  1  0  0  0  0
 24 34  1  0  0  0  0
 24 35  1  0  0  0  0
 40 43  1  0  0  0  0
 40 44  1  0  0  0  0
 40 45  1  0  0  0  0
 11 14  1  0  0  0  0
 11 15  1  0  0  0  0
 11 16  1  0  0  0  0
 23 30  1  0  0  0  0
 23 31  1  0  0  0  0
 23 32  1  0  0  0  0
 47 49  1  0  0  0  0
 47 50  1  0  0  0  0
 47 51  1  0  0  0  0
 22 28  1  0  0  0  0
 22 29  1  0  0  0  0
 37 42  1  0  0  0  0
  8 13  1  0  0  0  0
 18 26  1  0  0  0  0
 21 27  1  0  0  0  0
 46 48  1  0  0  0  0
  7 12  1  0  0  0  0
 36 41  1  0  0  0  0
 17 25  1  0  0  0  0
M  END
$$$$

  -OEChem-05262214473D

 51 50  0     1  0  0  0  0  0999 V2000
    1.3524   -3.0009    1.4091 C   0  0  0  0  0  0  0  0  0  0  0  0
    1.8758   -1.9880    0.9598 O   0  0  0  0  0  0  0  0  0  0  0  0
    2.2030   -4.1782    1.7536 C   0  0  0  0  0  0  0  0  0  0  0  0
    2.3264   -4.8705    0.9053 H   0  0  0  0  0  0  0  0  0  0  0  0
    3.2257   -3.8876    2.0432 H   0  0  0  0  0  0  0  0  0  0  0  0
    1.8327   -4.8004    2.5839 H   0  0  0  0  0  0  0  0  0  0  0  0
    0.0005   -3.1873    1.6465 N   0  0  0  0  0  0  0  0  0  0  0  0
   -0.9949   -2.1807    1.3864 C   0  0  2  0  0  0  0  0  0  0  0  0
   -0.3083   -0.8216    1.4164 C   0  0  0  0  0  0  0  0  0  0  0  0
    0.7533   -0.6191    2.0022 O   0  0  0  0  0  0  0  0  0  0  0  0
   -2.1232   -2.2423    2.4042 C   0  0  0  0  0  0  0  0  0  0  0  0
   -0.3048   -4.0823    2.0245 H   0  0  0  0  0  0  0  0  0  0  0  0
   -1.3830   -2.3724    0.3801 H   0  0  0  0  0  0  0  0  0  0  0  0
   -1.7534   -2.0527    3.4185 H   0  0  0  0  0  0  0  0  0  0  0  0
   -2.8936   -1.4947    2.1882 H   0  0  0  0  0  0  0  0  0  0  0  0
   -2.5964   -3.2301    2.4022 H   0  0  0  0  0  0  0  0  0  0  0  0
   -1.0412    0.1517    0.7482 N   0  0  0  0  0  0  0  0  0  0  0  0
   -0.6079    1.5223    0.6467 C   0  0  2  0  0  0  0  0  0  0  0  0
    0.9200    1.5410    0.6603 C   0  0  0  0  0  0  0  0  0  0  0  0
    1.5785    2.5313    0.3485 O   0  0  0  0  0  0  0  0  0  0  0  0
   -1.2210    2.4325    1.7382 C   0  0  2  0  0  0  0  0  0  0  0  0
   -2.7593    2.5223    1.6282 C   0  0  0  0  0  0  0  0  0  0  0  0
   -0.5686    3.8207    1.6963 C   0  0  0  0  0  0  0  0  0  0  0  0
   -3.4163    3.1859    2.8318 C   0  0  0  0  0  0  0  0  0  0  0  0
   -1.9022   -0.1128    0.2753 H   0  0  0  0  0  0  0  0  0  0  0  0
   -0.9299    1.8661   -0.3446 H   0  0  0  0  0  0  0  0  0  0  0  0
   -0.9819    1.9953    2.7169 H   0  0  0  0  0  0  0  0  0  0  0  0
   -3.0307    3.1035    0.7394 H   0  0  0  0  0  0  0  0  0  0  0  0
   -3.1923    1.5233    1.4982 H   0  0  0  0  0  0  0  0  0  0  0  0
   -0.7690    4.3163    0.7403 H   0  0  0  0  0  0  0  0  0  0  0  0
   -0.9665    4.4693    2.4827 H   0  0  0  0  0  0  0  0  0  0  0  0
    0.5168    3.7585    1.8261 H   0  0  0  0  0  0  0  0  0  0  0  0
   -3.1866    2.6549    3.7599 H   0  0  0  0  0  0  0  0  0  0  0  0
   -4.5047    3.1834    2.7125 H   0  0  0  0  0  0  0  0  0  0  0  0
   -3.0901    4.2255    2.9346 H   0  0  0  0  0  0  0  0  0  0  0  0
    1.4547    0.3355    1.0921 N   0  0  0  0  0  0  0  0  0  0  0  0
    2.8747    0.0969    1.2158 C   0  0  2  0  0  0  0  0  0  0  0  0
    3.0810   -0.9708    2.2821 C   0  0  0  0  0  0  0  0  0  0  0  0
    2.2533   -1.2127    3.1581 O   0  0  0  0  0  0  0  0  0  0  0  0
    3.6212    1.3729    1.5727 C   0  0  0  0  0  0  0  0  0  0  0  0
    0.8162   -0.4167    1.3333 H   0  0  0  0  0  0  0  0  0  0  0  0
    3.2172   -0.2827    0.2470 H   0  0  0  0  0  0  0  0  0  0  0  0
    3.2914    1.7682    2.5404 H   0  0  0  0  0  0  0  0  0  0  0  0
    4.6999    1.1965    1.6380 H   0  0  0  0  0  0  0  0  0  0  0  0
    3.4476    2.1495    0.8199 H   0  0  0  0  0  0  0  0  0  0  0  0
    4.3167   -1.5919    2.1664 N   0  0  0  0  0  0  0  0  0  0  0  0
    4.7543   -2.6315    3.0685 C   0  0  0  0  0  0  0  0  0  0  0  0
    4.9320   -1.3413    1.3981 H   0  0  0  0  0  0  0  0  0  0  0  0
    5.3231   -2.1836    3.8966 H   0  0  0  0  0  0  0  0  0  0  0  0
    3.8778   -3.1611    3.4701 H   0  0  0  0  0  0  0  0  0  0  0  0
    5.3950   -3.3420    2.5257 H   0  0  0  0  0  0  0  0  0  0  0  0
  1  3  1  0  0  0  0
  1  7  1  0  0  0  0
  1  2  2  0  0  0  0
 37 38  1  0  0  0  0
 38 46  1  0  0  0  0
 38 39  2  0  0  0  0
  8  9  1  0  0  0  0
  9 17  1  0  0  0  0
  9 10  2  0  0  0  0
 18 19  1  0  0  0  0
 19 36  1  0  0  0  0
 19 20  2  0  0  0  0
 22 24  1  0  0  0  0
 37 40  1  0  0  0  0
  8 11  1  0  0  0  0
 21 23  1  0  0  0  0
 46 47  1  0  0  0  0
 21 22  1  0  0  0  0
 36 37  1  0  0  0  0
  7  8  1  0  0  0  0
 18 21  1  0  0  0  0
 17 18  1  0  0  0  0
  3  4  1  0  0  0  0
  3  5  1  0  0  0  0
  3  6  1  0  0  0  0
 24 33  1  0  0  0  0
 24 34  1  0  0  0  0
 24 35  1  0  0  0  0
 40 43  1  0  0  0  0
 40 44  1  0  0  0  0
 40 45  1  0  0  0  0
 11 14  1  0  0  0  0
 11 15  1  0  0  0  0
 11 16  1  0  0  0  0
 23 30  1  0  0  0  0
 23 31  1  0  0  0  0
 23 32  1  0  0  0  0
 47 49  1  0  0  0  0
 47 50  1  0  0  0  0
 47 51  1  0  0  0  0
 22 28  1  0  0  0  0
 22 29  1  0  0  0  0
 37 42  1  0  0  0  0
  8 13  1  0  0  0  0
 18 26  1  0  0  0  0
 21 27  1  0  0  0  0
 46 48  1  0  0  0  0
  7 12  1  0  0  0  0
 36 41  1  0  0  0  0
 17 25  1  0  0  0  0
M  END
$$$$

  -OEChem-05262214473D

 51 50  0     1  0  0  0  0  0999 V2000
    1.3524   -3.0009    1.4091 C   0  0  0  0  0  0  0  0  0  0  0  0
    1.8758   -1.9880    0.9598 O   0  0  0  0  0  0  0  0  0  0  0  0
    2.2030   -4.1782    1.7536 C   0  0  0  0  0  0  0  0  0  0  0  0
    2.3264   -4.8705    0.9053 H   0  0  0  0  0  0  0  0  0  0  0  0
    3.2257   -3.8876    2.0432 H   0  0  0  0  0  0  0  0  0  0  0  0
    1.8327   -4.8004    2.5839 H   0  0  0  0  0  0  0  0  0  0  0  0
    0.0005   -3.1873    1.6465 N   0  0  0  0  0  0  0  0  0  0  0  0
   -0.9949   -2.1807    1.3864 C   0  0  2  0  0  0  0  0  0  0  0  0
   -0.3083   -0.8216    1.4164 C   0  0  0  0  0  0  0  0  0  0  0  0
    0.7533   -0.6191    2.0022 O   0  0  0  0  0  0  0  0  0  0  0  0
   -2.1232   -2.2423    2.4042 C   0  0  0  0  0  0  0  0  0  0  0  0
   -0.3048   -4.0823    2.0245 H   0  0  0  0  0  0  0  0  0  0  0  0
   -1.3830   -2.3724    0.3801 H   0  0  0  0  0  0  0  0  0  0  0  0
   -1.7534   -2.0527    3.4185 H   0  0  0  0  0  0  0  0  0  0  0  0
   -2.8936   -1.4947    2.1882 H   0  0  0  0  0  0  0  0  0  0  0  0
   -2.5964   -3.2301    2.4022 H   0  0  0  0  0  0  0  0  0  0  0  0
   -1.0412    0.1517    0.7482 N   0  0  0  0  0  0  0  0  0  0  0  0
   -0.6079    1.5223    0.6467 C   0  0  2  0  0  0  0  0  0  0  0  0
    0.9200    1.5410    0.6603 C   0  0  0  0  0  0  0  0  0  0  0  0
    1.5756    2.5800    0.6136 O   0  0  0  0  0  0  0  0  0  0  0  0
   -1.2210    2.4325    1.7382 C   0  0  2  0  0  0  0  0  0  0  0  0
   -2.7593    2.5223    1.6282 C   0  0  0  0  0  0  0  0  0  0  0  0
   -0.5686    3.8207    1.6963 C   0  0  0  0  0  0  0  0  0  0  0  0
   -3.4163    3.1859    2.8318 C   0  0  0  0  0  0  0  0  0  0  0  0
   -1.9022   -0.1128    0.2753 H   0  0  0  0  0  0  0  0  0  0  0  0
   -0.9299    1.8661   -0.3446 H   0  0  0  0  0  0  0  0  0  0  0  0
   -0.9819    1.9953    2.7169 H   0  0  0  0  0  0  0  0  0  0  0  0
   -3.0307    3.1035    0.7394 H   0  0  0  0  0  0  0  0  0  0  0  0
   -3.1923    1.5233    1.4982 H   0  0  0  0  0  0  0  0  0  0  0  0
   -0.7690    4.3163    0.7403 H   0  0  0  0  0  0  0  0  0  0  0  0
   -0.9665    4.4693    2.4827 H   0  0  0  0  0  0  0  0  0  0  0  0
    0.5168    3.7585    1.8261 H   0  0  0  0  0  0  0  0  0  0  0  0
   -3.1866    2.6549    3.7599 H   0  0  0  0  0  0  0  0  0  0  0  0
   -4.5047    3.1834    2.7125 H   0  0  0  0  0  0  0  0  0  0  0  0
   -3.0901    4.2255    2.9346 H   0  0  0  0  0  0  0  0  0  0  0  0
    1.4585    0.2663    0.7639 N   0  0  0  0  0  0  0  0  0  0  0  0
    2.8793    0.0077    0.8176 C   0  0  2  0  0  0  0  0  0  0  0  0
    3.0914   -1.2990    1.5706 C   0  0  0  0  0  0  0  0  0  0  0  0
    2.2671   -1.7617    2.3566 O   0  0  0  0  0  0  0  0  0  0  0  0
    3.6246    1.1499    1.4904 C   0  0  0  0  0  0  0  0  0  0  0  0
    0.8223   -0.5244    0.8040 H   0  0  0  0  0  0  0  0  0  0  0  0
    3.2192   -0.1073   -0.2174 H   0  0  0  0  0  0  0  0  0  0  0  0
    3.2975    1.2803    2.5284 H   0  0  0  0  0  0  0  0  0  0  0  0
    4.7039    0.9655    1.5047 H   0  0  0  0  0  0  0  0  0  0  0  0
    3.4470    2.0943    0.9648 H   0  0  0  0  0  0  0  0  0  0  0  0
    4.3278   -1.8657    1.2946 N   0  0  0  0  0  0  0  0  0  0  0  0
    4.7704   -3.1021    1.8957 C   0  0  0  0  0  0  0  0  0  0  0  0
    4.9400   -1.4231    0.6155 H   0  0  0  0  0  0  0  0  0  0  0  0
    5.3413   -2.8823    2.8099 H   0  0  0  0  0  0  0  0  0  0  0  0
    3.8963   -3.7200    2.1491 H   0  0  0  0  0  0  0  0  0  0  0  0
    5.4107   -3.6463    1.1857 H   0  0  0  0  0  0  0  0  0  0  0  0
  1  3  1  0  0  0  0
  1  7  1  0  0  0  0
  1  2  2  0  0  0  0
 37 38  1  0  0  0  0
 38 46  1  0  0  0  0
 38 39  2  0  0  0  0
  8  9  1  0  0  0  0
  9 17  1  0  0  0  0
  9 10  2  0  0  0  0
 18 19  1  0  0  0  0
 19 36  1  0  0  0  0
 19 20  2  0  0  0  0
 22 24  1  0  0  0  0
 37 40  1  0  0  0  0
  8 11  1  0  0  0  0
 21 23  1  0  0  0  0
 46 47  1  0  0  0  0
 21 22  1  0  0  0  0
 36 37  1  0  0  0  0
  7  8  1  0  0  0  0
 18 21  1  0  0  0  0
 17 18  1  0  0  0  0
  3  4  1  0  0  0  0
  3  5  1  0  0  0  0
  3  6  1  0  0  0  0
 24 33  1  0  0  0  0
 24 34  1  0  0  0  0
 24 35  1  0  0  0  0
 40 43  1  0  0  0  0
 40 44  1  0  0  0  0
 40 45  1  0  0  0  0
 11 14  1  0  0  0  0
 11 15  1  0  0  0  0
 11 16  1  0  0  0  0
 23 30  1  0  0  0  0
 23 31  1  0  0  0  0
 23 32  1  0  0  0  0
 47 49  1  0  0  0  0
 47 50  1  0  0  0  0
 47 51  1  0  0  0  0
 22 28  1  0  0  0  0
 22 29  1  0  0  0  0
 37 42  1  0  0  0  0
  8 13  1  0  0  0  0
 18 26  1  0  0  0  0
 21 27  1  0  0  0  0
 46 48  1  0  0  0  0
  7 12  1  0  0  0  0
 36 41  1  0  0  0  0
 17 25  1  0  0  0  0
M  END
$$$$

  -OEChem-05262214473D

 51 50  0     1  0  0  0  0  0999 V2000
    1.3524   -3.0009    1.4091 C   0  0  0  0  0  0  0  0  0  0  0  0
    1.8758   -1.9880    0.9598 O   0  0  0  0  0  0  0  0  0  0  0  0
    2.2030   -4.1782    1.7536 C   0  0  0  0  0  0  0  0  0  0  0  0
    2.3264   -4.8705    0.9053 H   0  0  0  0  0  0  0  0  0  0  0  0
    3.2257   -3.8876    2.0432 H   0  0  0  0  0  0  0  0  0  0  0  0
    1.8327   -4.8004    2.5839 H   0  0  0  0  0  0  0  0  0  0  0  0
    0.0005   -3.1873    1.6465 N   0  0  0  0  0  0  0  0  0  0  0  0
   -0.9949   -2.1807    1.3864 C   0  0  2  0  0  0  0  0  0  0  0  0
   -0.3083   -0.8216    1.4164 C   0  0  0  0  0  0  0  0  0  0  0  0
    0.7533   -0.6191    2.0022 O   0  0  0  0  0  0  0  0  0  0  0  0
   -2.1232   -2.2423    2.4042 C   0  0  0  0  0  0  0  0  0  0  0  0
   -0.3048   -4.0823    2.0245 H   0  0  0  0  0  0  0  0  0  0  0  0
   -1.3830   -2.3724    0.3801 H   0  0  0  0  0  0  0  0  0  0  0  0
   -1.7534   -2.0527    3.4185 H   0  0  0  0  0  0  0  0  0  0  0  0
   -2.8936   -1.4947    2.1882 H   0  0  0  0  0  0  0  0  0  0  0  0
   -2.5964   -3.2301    2.4022 H   0  0  0  0  0  0  0  0  0  0  0  0
   -1.0412    0.1517    0.7482 N   0  0  0  0  0  0  0  0  0  0  0  0
   -0.6079    1.5223    0.6467 C   0  0  2  0  0  0  0  0  0  0  0  0
    0.9200    1.5410    0.6603 C   0  0  0  0  0  0  0  0  0  0  0  0
    1.5735    2.5585    0.8822 O   0  0  0  0  0  0  0  0  0  0  0  0
   -1.2210    2.4325    1.7382 C   0  0  2  0  0  0  0  0  0  0  0  0
   -2.7593    2.5223    1.6282 C   0  0  0  0  0  0  0  0  0  0  0  0
   -0.5686    3.8207    1.6963 C   0  0  0  0  0  0  0  0  0  0  0  0
   -3.4163    3.1859    2.8318 C   0  0  0  0  0  0  0  0  0  0  0  0
   -1.9022   -0.1128    0.2753 H   0  0  0  0  0  0  0  0  0  0  0  0
   -0.9299    1.8661   -0.3446 H   0  0  0  0  0  0  0  0  0  0  0  0
   -0.9819    1.9953    2.7169 H   0  0  0  0  0  0  0  0  0  0  0  0
   -3.0307    3.1035    0.7394 H   0  0  0  0  0  0  0  0  0  0  0  0
   -3.1923    1.5233    1.4982 H   0  0  0  0  0  0  0  0  0  0  0  0
   -0.7690    4.3163    0.7403 H   0  0  0  0  0  0  0  0  0  0  0  0
   -0.9665    4.4693    2.4827 H   0  0  0  0  0  0  0  0  0  0  0  0
    0.5168    3.7585    1.8261 H   0  0  0  0  0  0  0  0  0  0  0  0
   -3.1866    2.6549    3.7599 H   0  0  0  0  0  0  0  0  0  0  0  0
   -4.5047    3.1834    2.7125 H   0  0  0  0  0  0  0  0  0  0  0  0
   -3.0901    4.2255    2.9346 H   0  0  0  0  0  0  0  0  0  0  0  0
    1.4612    0.2844    0.4290 N   0  0  0  0  0  0  0  0  0  0  0  0
    2.8827    0.0245    0.4098 C   0  0  2  0  0  0  0  0  0  0  0  0
    3.0999   -1.4319    0.7985 C   0  0  0  0  0  0  0  0  0  0  0  0
    2.2792   -2.0845    1.4402 O   0  0  0  0  0  0  0  0  0  0  0  0
    3.6282    0.9558    1.3532 C   0  0  0  0  0  0  0  0  0  0  0  0
    0.8266   -0.4915    0.2649 H   0  0  0  0  0  0  0  0  0  0  0  0
    3.2192    0.1822   -0.6207 H   0  0  0  0  0  0  0  0  0  0  0  0
    3.3044    0.8122    2.3905 H   0  0  0  0  0  0  0  0  0  0  0  0
    4.7079    0.7769    1.3162 H   0  0  0  0  0  0  0  0  0  0  0  0
    3.4469    2.0035    1.0903 H   0  0  0  0  0  0  0  0  0  0  0  0
    4.3364   -1.9045    0.3816 N   0  0  0  0  0  0  0  0  0  0  0  0
    4.7834   -3.2532    0.6410 C   0  0  0  0  0  0  0  0  0  0  0  0
    4.9454   -1.2996   -0.1615 H   0  0  0  0  0  0  0  0  0  0  0  0
    5.3571   -3.2759    1.5793 H   0  0  0  0  0  0  0  0  0  0  0  0
    3.9114   -3.9180    0.7283 H   0  0  0  0  0  0  0  0  0  0  0  0
    5.4222   -3.5933   -0.1875 H   0  0  0  0  0  0  0  0  0  0  0  0
  1  3  1  0  0  0  0
  1  7  1  0  0  0  0
  1  2  2  0  0  0  0
 37 38  1  0  0  0  0
 38 46  1  0  0  0  0
 38 39  2  0  0  0  0
  8  9  1  0  0  0  0
  9 17  1  0  0  0  0
  9 10  2  0  0  0  0
 18 19  1  0  0  0  0
 19 36  1  0  0  0  0
 19 20  2  0  0  0  0
 22 24  1  0  0  0  0
 37 40  1  0  0  0  0
  8 11  1  0  0  0  0
 21 23  1  0  0  0  0
 46 47  1  0  0  0  0
 21 22  1  0  0  0  0
 36 37  1  0  0  0  0
  7  8  1  0  0  0  0
 18 21  1  0  0  0  0
 17 18  1  0  0  0  0
  3  4  1  0  0  0  0
  3  5  1  0  0  0  0
  3  6  1  0  0  0  0
 24 33  1  0  0  0  0
 24 34  1  0  0  0  0
 24 35  1  0  0  0  0
 40 43  1  0  0  0  0
 40 44  1  0  0  0  0
 40 45  1  0  0  0  0
 11 14  1  0  0  0  0
 11 15  1  0  0  0  0
 11 16  1  0  0  0  0
 23 30  1  0  0  0  0
 23 31  1  0  0  0  0
 23 32  1  0  0  0  0
 47 49  1  0  0  0  0
 47 50  1  0  0  0  0
 47 51  1  0  0  0  0
 22 28  1  0  0  0  0
 22 29  1  0  0  0  0
 37 42  1  0  0  0  0
  8 13  1  0  0  0  0
 18 26  1  0  0  0  0
 21 27  1  0  0  0  0
 46 48  1  0  0  0  0
  7 12  1  0  0  0  0
 36 41  1  0  0  0  0
 17 25  1  0  0  0  0
M  END
$$$$

  -OEChem-05262214473D

 51 50  0     1  0  0  0  0  0999 V2000
    1.3524   -3.0009    1.4091 C   0  0  0  0  0  0  0  0  0  0  0  0
    1.8758   -1.9880    0.9598 O   0  0  0  0  0  0  0  0  0  0  0  0
    2.2030   -4.1782    1.7536 C   0  0  0  0  0  0  0  0  0  0  0  0
    2.3264   -4.8705    0.9053 H   0  0  0  0  0  0  0  0  0  0  0  0
    3.2257   -3.8876    2.0432 H   0  0  0  0  0  0  0  0  0  0  0  0
    1.8327   -4.8004    2.5839 H   0  0  0  0  0  0  0  0  0  0  0  0
    0.0005   -3.1873    1.6465 N   0  0  0  0  0  0  0  0  0  0  0  0
   -0.9949   -2.1807    1.3864 C   0  0  2  0  0  0  0  0  0  0  0  0
   -0.3083   -0.8216    1.4164 C   0  0  0  0  0  0  0  0  0  0  0  0
    0.7533   -0.6191    2.0022 O   0  0  0  0  0  0  0  0  0  0  0  0
   -2.1232   -2.2423    2.4042 C   0  0  0  0  0  0  0  0  0  0  0  0
   -0.3048   -4.0823    2.0245 H   0  0  0  0  0  0  0  0  0  0  0  0
   -1.3830   -2.3724    0.3801 H   0  0  0  0  0  0  0  0  0  0  0  0
   -1.7534   -2.0527    3.4185 H   0  0  0  0  0  0  0  0  0  0  0  0
   -2.8936   -1.4947    2.1882 H   0  0  0  0  0  0  0  0  0  0  0  0
   -2.5964   -3.2301    2.4022 H   0  0  0  0  0  0  0  0  0  0  0  0
   -1.0412    0.1517    0.7482 N   0  0  0  0  0  0  0  0  0  0  0  0
   -0.6079    1.5223    0.6467 C   0  0  2  0  0  0  0  0  0  0  0  0
    0.9200    1.5410    0.6603 C   0  0  0  0  0  0  0  0  0  0  0  0
    1.5723    2.4682    1.1360 O   0  0  0  0  0  0  0  0  0  0  0  0
   -1.2210    2.4325    1.7382 C   0  0  2  0  0  0  0  0  0  0  0  0
   -2.7593    2.5223    1.6282 C   0  0  0  0  0  0  0  0  0  0  0  0
   -0.5686    3.8207    1.6963 C   0  0  0  0  0  0  0  0  0  0  0  0
   -3.4163    3.1859    2.8318 C   0  0  0  0  0  0  0  0  0  0  0  0
   -1.9022   -0.1128    0.2753 H   0  0  0  0  0  0  0  0  0  0  0  0
   -0.9299    1.8661   -0.3446 H   0  0  0  0  0  0  0  0  0  0  0  0
   -0.9819    1.9953    2.7169 H   0  0  0  0  0  0  0  0  0  0  0  0
   -3.0307    3.1035    0.7394 H   0  0  0  0  0  0  0  0  0  0  0  0
   -3.1923    1.5233    1.4982 H   0  0  0  0  0  0  0  0  0  0  0  0
   -0.7690    4.3163    0.7403 H   0  0  0  0  0  0  0  0  0  0  0  0
   -0.9665    4.4693    2.4827 H   0  0  0  0  0  0  0  0  0  0  0  0
    0.5168    3.7585    1.8261 H   0  0  0  0  0  0  0  0  0  0  0  0
   -3.1866    2.6549    3.7599 H   0  0  0  0  0  0  0  0  0  0  0  0
   -4.5047    3.1834    2.7125 H   0  0  0  0  0  0  0  0  0  0  0  0
   -3.0901    4.2255    2.9346 H   0  0  0  0  0  0  0  0  0  0  0  0
    1.4628    0.3885    0.1101 N   0  0  0  0  0  0  0  0  0  0  0  0
    2.8847    0.1464    0.0203 C   0  0  2  0  0  0  0  0  0  0  0  0
    3.1059   -1.3605    0.0181 C   0  0  0  0  0  0  0  0  0  0  0  0
    2.2888   -2.1591    0.4715 O   0  0  0  0  0  0  0  0  0  0  0  0
    3.6317    0.8038    1.1703 C   0  0  0  0  0  0  0  0  0  0  0  0
    0.8291   -0.3202   -0.2474 H   0  0  0  0  0  0  0  0  0  0  0  0
    3.2173    0.5663   -0.9352 H   0  0  0  0  0  0  0  0  0  0  0  0
    3.3118    0.3958    2.1361 H   0  0  0  0  0  0  0  0  0  0  0  0
    4.7115    0.6435    1.0853 H   0  0  0  0  0  0  0  0  0  0  0  0
    3.4475    1.8834    1.1882 H   0  0  0  0  0  0  0  0  0  0  0  0
    4.3419   -1.7057   -0.5103 N   0  0  0  0  0  0  0  0  0  0  0  0
    4.7924   -3.0743   -0.6101 C   0  0  0  0  0  0  0  0  0  0  0  0
    4.9478   -0.9792   -0.8801 H   0  0  0  0  0  0  0  0  0  0  0  0
    5.3693   -3.3375    0.2887 H   0  0  0  0  0  0  0  0  0  0  0  0
    3.9219   -3.7414   -0.6953 H   0  0  0  0  0  0  0  0  0  0  0  0
    5.4289   -3.1867   -1.5002 H   0  0  0  0  0  0  0  0  0  0  0  0
  1  3  1  0  0  0  0
  1  7  1  0  0  0  0
  1  2  2  0  0  0  0
 37 38  1  0  0  0  0
 38 46  1  0  0  0  0
 38 39  2  0  0  0  0
  8  9  1  0  0  0  0
  9 17  1  0  0  0  0
  9 10  2  0  0  0  0
 18 19  1  0  0  0  0
 19 36  1  0  0  0  0
 19 20  2  0  0  0  0
 22 24  1  0  0  0  0
 37 40  1  0  0  0  0
  8 11  1  0  0  0  0
 21 23  1  0  0  0  0
 46 47  1  0  0  0  0
 21 22  1  0  0  0  0
 36 37  1  0  0  0  0
  7  8  1  0  0  0  0
 18 21  1  0  0  0  0
 17 18  1  0  0  0  0
  3  4  1  0  0  0  0
  3  5  1  0  0  0  0
  3  6  1  0  0  0  0
 24 33  1  0  0  0  0
 24 34  1  0  0  0  0
 24 35  1  0  0  0  0
 40 43  1  0  0  0  0
 40 44  1  0  0  0  0
 40 45  1  0  0  0  0
 11 14  1  0  0  0  0
 11 15  1  0  0  0  0
 11 16  1  0  0  0  0
 23 30  1  0  0  0  0
 23 31  1  0  0  0  0
 23 32  1  0  0  0  0
 47 49  1  0  0  0  0
 47 50  1  0  0  0  0
 47 51  1  0  0  0  0
 22 28  1  0  0  0  0
 22 29  1  0  0  0  0
 37 42  1  0  0  0  0
  8 13  1  0  0  0  0
 18 26  1  0  0  0  0
 21 27  1  0  0  0  0
 46 48  1  0  0  0  0
  7 12  1  0  0  0  0
 36 41  1  0  0  0  0
 17 25  1  0  0  0  0
M  END
$$$$

  -OEChem-05262214473D

 51 50  0     1  0  0  0  0  0999 V2000
    1.3524   -3.0009    1.4091 C   0  0  0  0  0  0  0  0  0  0  0  0
    1.8758   -1.9880    0.9598 O   0  0  0  0  0  0  0  0  0  0  0  0
    2.2030   -4.1782    1.7536 C   0  0  0  0  0  0  0  0  0  0  0  0
    2.3264   -4.8705    0.9053 H   0  0  0  0  0  0  0  0  0  0  0  0
    3.2257   -3.8876    2.0432 H   0  0  0  0  0  0  0  0  0  0  0  0
    1.8327   -4.8004    2.5839 H   0  0  0  0  0  0  0  0  0  0  0  0
    0.0005   -3.1873    1.6465 N   0  0  0  0  0  0  0  0  0  0  0  0
   -0.9949   -2.1807    1.3864 C   0  0  2  0  0  0  0  0  0  0  0  0
   -0.3083   -0.8216    1.4164 C   0  0  0  0  0  0  0  0  0  0  0  0
    0.7533   -0.6191    2.0022 O   0  0  0  0  0  0  0  0  0  0  0  0
   -2.1232   -2.2423    2.4042 C   0  0  0  0  0  0  0  0  0  0  0  0
   -0.3048   -4.0823    2.0245 H   0  0  0  0  0  0  0  0  0  0  0  0
   -1.3830   -2.3724    0.3801 H   0  0  0  0  0  0  0  0  0  0  0  0
   -1.7534   -2.0527    3.4185 H   0  0  0  0  0  0  0  0  0  0  0  0
   -2.8936   -1.4947    2.1882 H   0  0  0  0  0  0  0  0  0  0  0  0
   -2.5964   -3.2301    2.4022 H   0  0  0  0  0  0  0  0  0  0  0  0
   -1.0412    0.1517    0.7482 N   0  0  0  0  0  0  0  0  0  0  0  0
   -0.6079    1.5223    0.6467 C   0  0  2  0  0  0  0  0  0  0  0  0
    0.9200    1.5410    0.6603 C   0  0  0  0  0  0  0  0  0  0  0  0
    1.5722    2.3152    1.3579 O   0  0  0  0  0  0  0  0  0  0  0  0
   -1.2210    2.4325    1.7382 C   0  0  2  0  0  0  0  0  0  0  0  0
   -2.7593    2.5223    1.6282 C   0  0  0  0  0  0  0  0  0  0  0  0
   -0.5686    3.8207    1.6963 C   0  0  0  0  0  0  0  0  0  0  0  0
   -3.4163    3.1859    2.8318 C   0  0  0  0  0  0  0  0  0  0  0  0
   -1.9022   -0.1128    0.2753 H   0  0  0  0  0  0  0  0  0  0  0  0
   -0.9299    1.8661   -0.3446 H   0  0  0  0  0  0  0  0  0  0  0  0
   -0.9819    1.9953    2.7169 H   0  0  0  0  0  0  0  0  0  0  0  0
   -3.0307    3.1035    0.7394 H   0  0  0  0  0  0  0  0  0  0  0  0
   -3.1923    1.5233    1.4982 H   0  0  0  0  0  0  0  0  0  0  0  0
   -0.7690    4.3163    0.7403 H   0  0  0  0  0  0  0  0  0  0  0  0
   -0.9665    4.4693    2.4827 H   0  0  0  0  0  0  0  0  0  0  0  0
    0.5168    3.7585    1.8261 H   0  0  0  0  0  0  0  0  0  0  0  0
   -3.1866    2.6549    3.7599 H   0  0  0  0  0  0  0  0  0  0  0  0
   -4.5047    3.1834    2.7125 H   0  0  0  0  0  0  0  0  0  0  0  0
   -3.0901    4.2255    2.9346 H   0  0  0  0  0  0  0  0  0  0  0  0
    1.4631    0.5717   -0.1709 N   0  0  0  0  0  0  0  0  0  0  0  0
    2.8851    0.3648   -0.3244 C   0  0  2  0  0  0  0  0  0  0  0  0
    3.1092   -1.0895   -0.7171 C   0  0  0  0  0  0  0  0  0  0  0  0
    2.2951   -1.9804   -0.4835 O   0  0  0  0  0  0  0  0  0  0  0  0
    3.6348    0.7043    0.9544 C   0  0  0  0  0  0  0  0  0  0  0  0
    0.8295   -0.0221   -0.6978 H   0  0  0  0  0  0  0  0  0  0  0  0
    3.2136    1.0186   -1.1397 H   0  0  0  0  0  0  0  0  0  0  0  0
    3.3190    0.0594    1.7826 H   0  0  0  0  0  0  0  0  0  0  0  0
    4.7147    0.5744    0.8277 H   0  0  0  0  0  0  0  0  0  0  0  0
    3.4487    1.7420    1.2516 H   0  0  0  0  0  0  0  0  0  0  0  0
    4.3440   -1.2829   -1.3204 N   0  0  0  0  0  0  0  0  0  0  0  0
    4.7966   -2.5778   -1.7723 C   0  0  0  0  0  0  0  0  0  0  0  0
    4.9472   -0.4837   -1.4914 H   0  0  0  0  0  0  0  0  0  0  0  0
    5.3772   -3.0630   -0.9739 H   0  0  0  0  0  0  0  0  0  0  0  0
    3.9271   -3.2025   -2.0247 H   0  0  0  0  0  0  0  0  0  0  0  0
    5.4303   -2.4543   -2.6630 H   0  0  0  0  0  0  0  0  0  0  0  0
  1  3  1  0  0  0  0
  1  7  1  0  0  0  0
  1  2  2  0  0  0  0
 37 38  1  0  0  0  0
 38 46  1  0  0  0  0
 38 39  2  0  0  0  0
  8  9  1  0  0  0  0
  9 17  1  0  0  0  0
  9 10  2  0  0  0  0
 18 19  1  0  0  0  0
 19 36  1  0  0  0  0
 19 20  2  0  0  0  0
 22 24  1  0  0  0  0
 37 40  1  0  0  0  0
  8 11  1  0  0  0  0
 21 23  1  0  0  0  0
 46 47  1  0  0  0  0
 21 22  1  0  0  0  0
 36 37  1  0  0  0  0
  7  8  1  0  0  0  0
 18 21  1  0  0  0  0
 17 18  1  0  0  0  0
  3  4  1  0  0  0  0
  3  5  1  0  0  0  0
  3  6  1  0  0  0  0
 24 33  1  0  0  0  0
 24 34  1  0  0  0  0
 24 35  1  0  0  0  0
 40 43  1  0  0  0  0
 40 44  1  0  0  0  0
 40 45  1  0  0  0  0
 11 14  1  0  0  0  0
 11 15  1  0  0  0  0
 11 16  1  0  0  0  0
 23 30  1  0  0  0  0
 23 31  1  0  0  0  0
 23 32  1  0  0  0  0
 47 49  1  0  0  0  0
 47 50  1  0  0  0  0
 47 51  1  0  0  0  0
 22 28  1  0  0  0  0
 22 29  1  0  0  0  0
 37 42  1  0  0  0  0
  8 13  1  0  0  0  0
 18 26  1  0  0  0  0
 21 27  1  0  0  0  0
 46 48  1  0  0  0  0
  7 12  1  0  0  0  0
 36 41  1  0  0  0  0
 17 25  1  0  0  0  0
M  END
$$$$

  -OEChem-05262214473D

 51 50  0     1  0  0  0  0  0999 V2000
    1.3524   -3.0009    1.4091 C   0  0  0  0  0  0  0  0  0  0  0  0
    1.8758   -1.9880    0.9598 O   0  0  0  0  0  0  0  0  0  0  0  0
    2.2030   -4.1782    1.7536 C   0  0  0  0  0  0  0  0  0  0  0  0
    2.3264   -4.8705    0.9053 H   0  0  0  0  0  0  0  0  0  0  0  0
    3.2257   -3.8876    2.0432 H   0  0  0  0  0  0  0  0  0  0  0  0
    1.8327   -4.8004    2.5839 H   0  0  0  0  0  0  0  0  0  0  0  0
    0.0005   -3.1873    1.6465 N   0  0  0  0  0  0  0  0  0  0  0  0
   -0.9949   -2.1807    1.3864 C   0  0  2  0  0  0  0  0  0  0  0  0
   -0.3083   -0.8216    1.4164 C   0  0  0  0  0  0  0  0  0  0  0  0
    0.7533   -0.6191    2.0022 O   0  0  0  0  0  0  0  0  0  0  0  0
   -2.1232   -2.2423    2.4042 C   0  0  0  0  0  0  0  0  0  0  0  0
   -0.3048   -4.0823    2.0245 H   0  0  0  0  0  0  0  0  0  0  0  0
   -1.3830   -2.3724    0.3801 H   0  0  0  0  0  0  0  0  0  0  0  0
   -1.7534   -2.0527    3.4185 H   0  0  0  0  0  0  0  0  0  0  0  0
   -2.8936   -1.4947    2.1882 H   0  0  0  0  0  0  0  0  0  0  0  0
   -2.5964   -3.2301    2.4022 H   0  0  0  0  0  0  0  0  0  0  0  0
   -1.0412    0.1517    0.7482 N   0  0  0  0  0  0  0  0  0  0  0  0
   -0.6079    1.5223    0.6467 C   0  0  2  0  0  0  0  0  0  0  0  0
    0.9200    1.5410    0.6603 C   0  0  0  0  0  0  0  0  0  0  0  0
    1.5732    2.1101    1.5327 O   0  0  0  0  0  0  0  0  0  0  0  0
   -1.2210    2.4325    1.7382 C   0  0  2  0  0  0  0  0  0  0  0  0
   -2.7593    2.5223    1.6282 C   0  0  0  0  0  0  0  0  0  0  0  0
   -0.5686    3.8207    1.6963 C   0  0  0  0  0  0  0  0  0  0  0  0
   -3.4163    3.1859    2.8318 C   0  0  0  0  0  0  0  0  0  0  0  0
   -1.9022   -0.1128    0.2753 H   0  0  0  0  0  0  0  0  0  0  0  0
   -0.9299    1.8661   -0.3446 H   0  0  0  0  0  0  0  0  0  0  0  0
   -0.9819    1.9953    2.7169 H   0  0  0  0  0  0  0  0  0  0  0  0
   -3.0307    3.1035    0.7394 H   0  0  0  0  0  0  0  0  0  0  0  0
   -3.1923    1.5233    1.4982 H   0  0  0  0  0  0  0  0  0  0  0  0
   -0.7690    4.3163    0.7403 H   0  0  0  0  0  0  0  0  0  0  0  0
   -0.9665    4.4693    2.4827 H   0  0  0  0  0  0  0  0  0  0  0  0
    0.5168    3.7585    1.8261 H   0  0  0  0  0  0  0  0  0  0  0  0
   -3.1866    2.6549    3.7599 H   0  0  0  0  0  0  0  0  0  0  0  0
   -4.5047    3.1834    2.7125 H   0  0  0  0  0  0  0  0  0  0  0  0
   -3.0901    4.2255    2.9346 H   0  0  0  0  0  0  0  0  0  0  0  0
    1.4620    0.8213   -0.3950 N   0  0  0  0  0  0  0  0  0  0  0  0
    2.8839    0.6651   -0.6009 C   0  0  2  0  0  0  0  0  0  0  0  0
    3.1093   -0.6375   -1.3572 C   0  0  0  0  0  0  0  0  0  0  0  0
    2.2977   -1.5607   -1.3598 O   0  0  0  0  0  0  0  0  0  0  0  0
    3.6374    0.6640    0.7201 C   0  0  0  0  0  0  0  0  0  0  0  0
    0.8277    0.3823   -1.0558 H   0  0  0  0  0  0  0  0  0  0  0  0
    3.2083    1.5085   -1.2201 H   0  0  0  0  0  0  0  0  0  0  0  0
    3.3257   -0.1740    1.3541 H   0  0  0  0  0  0  0  0  0  0  0  0
    4.7170    0.5743    0.5610 H   0  0  0  0  0  0  0  0  0  0  0  0
    3.4504    1.5890    1.2762 H   0  0  0  0  0  0  0  0  0  0  0  0
    4.3424   -0.6648   -1.9935 N   0  0  0  0  0  0  0  0  0  0  0  0
    4.7959   -1.7974   -2.7664 C   0  0  0  0  0  0  0  0  0  0  0  0
    4.9436    0.1530   -1.9536 H   0  0  0  0  0  0  0  0  0  0  0  0
    5.3802   -2.4712   -2.1224 H   0  0  0  0  0  0  0  0  0  0  0  0
    3.9267   -2.3379   -3.1694 H   0  0  0  0  0  0  0  0  0  0  0  0
    5.4263   -1.4459   -3.5966 H   0  0  0  0  0  0  0  0  0  0  0  0
  1  3  1  0  0  0  0
  1  7  1  0  0  0  0
  1  2  2  0  0  0  0
 37 38  1  0  0  0  0
 38 46  1  0  0  0  0
 38 39  2  0  0  0  0
  8  9  1  0  0  0  0
  9 17  1  0  0  0  0
  9 10  2  0  0  0  0
 18 19  1  0  0  0  0
 19 36  1  0  0  0  0
 19 20  2  0  0  0  0
 22 24  1  0  0  0  0
 37 40  1  0  0  0  0
  8 11  1  0  0  0  0
 21 23  1  0  0  0  0
 46 47  1  0  0  0  0
 21 22  1  0  0  0  0
 36 37  1  0  0  0  0
  7  8  1  0  0  0  0
 18 21  1  0  0  0  0
 17 18  1  0  0  0  0
  3  4  1  0  0  0  0
  3  5  1  0  0  0  0
  3  6  1  0  0  0  0
 24 33  1  0  0  0  0
 24 34  1  0  0  0  0
 24 35  1  0  0  0  0
 40 43  1  0  0  0  0
 40 44  1  0  0  0  0
 40 45  1  0  0  0  0
 11 14  1  0  0  0  0
 11 15  1  0  0  0  0
 11 16  1  0  0  0  0
 23 30  1  0  0  0  0
 23 31  1  0  0  0  0
 23 32  1  0  0  0  0
 47 49  1  0  0  0  0
 47 50  1  0  0  0  0
 47 51  1  0  0  0  0
 22 28  1  0  0  0  0
 22 29  1  0  0  0  0
 37 42  1  0  0  0  0
  8 13  1  0  0  0  0
 18 26  1  0  0  0  0
 21 27  1  0  0  0  0
 46 48  1  0  0  0  0
  7 12  1  0  0  0  0
 36 41  1  0  0  0  0
 17 25  1  0  0  0  0
M  END
$$$$

  -OEChem-05262214473D

 51 50  0     1  0  0  0  0  0999 V2000
    1.3524   -3.0009    1.4091 C   0  0  0  0  0  0  0  0  0  0  0  0
    1.8758   -1.9880    0.9598 O   0  0  0  0  0  0  0  0  0  0  0  0
    2.2030   -4.1782    1.7536 C   0  0  0  0  0  0  0  0  0  0  0  0
    2.3264   -4.8705    0.9053 H   0  0  0  0  0  0  0  0  0  0  0  0
    3.2257   -3.8876    2.0432 H   0  0  0  0  0  0  0  0  0  0  0  0
    1.8327   -4.8004    2.5839 H   0  0  0  0  0  0  0  0  0  0  0  0
    0.0005   -3.1873    1.6465 N   0  0  0  0  0  0  0  0  0  0  0  0
   -0.9949   -2.1807    1.3864 C   0  0  2  0  0  0  0  0  0  0  0  0
   -0.3083   -0.8216    1.4164 C   0  0  0  0  0  0  0  0  0  0  0  0
    0.7533   -0.6191    2.0022 O   0  0  0  0  0  0  0  0  0  0  0  0
   -2.1232   -2.2423    2.4042 C   0  0  0  0  0  0  0  0  0  0  0  0
   -0.3048   -4.0823    2.0245 H   0  0  0  0  0  0  0  0  0  0  0  0
   -1.3830   -2.3724    0.3801 H   0  0  0  0  0  0  0  0  0  0  0  0
   -1.7534   -2.0527    3.4185 H   0  0  0  0  0  0  0  0  0  0  0  0
   -2.8936   -1.4947    2.1882 H   0  0  0  0  0  0  0  0  0  0  0  0
   -2.5964   -3.2301    2.4022 H   0  0  0  0  0  0  0  0  0  0  0  0
   -1.0412    0.1517    0.7482 N   0  0  0  0  0  0  0  0  0  0  0  0
   -0.6079    1.5223    0.6467 C   0  0  2  0  0  0  0  0  0  0  0  0
    0.9200    1.5410    0.6603 C   0  0  0  0  0  0  0  0  0  0  0  0
    1.5751    1.8667    1.6484 O   0  0  0  0  0  0  0  0  0  0  0  0
   -1.2210    2.4325    1.7382 C   0  0  2  0  0  0  0  0  0  0  0  0
   -2.7593    2.5223    1.6282 C   0  0  0  0  0  0  0  0  0  0  0  0
   -0.5686    3.8207    1.6963 C   0  0  0  0  0  0  0  0  0  0  0  0
   -3.4163    3.1859    2.8318 C   0  0  0  0  0  0  0  0  0  0  0  0
   -1.9022   -0.1128    0.2753 H   0  0  0  0  0  0  0  0  0  0  0  0
   -0.9299    1.8661   -0.3446 H   0  0  0  0  0  0  0  0  0  0  0  0
   -0.9819    1.9953    2.7169 H   0  0  0  0  0  0  0  0  0  0  0  0
   -3.0307    3.1035    0.7394 H   0  0  0  0  0  0  0  0  0  0  0  0
   -3.1923    1.5233    1.4982 H   0  0  0  0  0  0  0  0  0  0  0  0
   -0.7690    4.3163    0.7403 H   0  0  0  0  0  0  0  0  0  0  0  0
   -0.9665    4.4693    2.4827 H   0  0  0  0  0  0  0  0  0  0  0  0
    0.5168    3.7585    1.8261 H   0  0  0  0  0  0  0  0  0  0  0  0
   -3.1866    2.6549    3.7599 H   0  0  0  0  0  0  0  0  0  0  0  0
   -4.5047    3.1834    2.7125 H   0  0  0  0  0  0  0  0  0  0  0  0
   -3.0901    4.2255    2.9346 H   0  0  0  0  0  0  0  0  0  0  0  0
    1.4597    1.1204   -0.5469 N   0  0  0  0  0  0  0  0  0  0  0  0
    2.8812    1.0266   -0.7902 C   0  0  2  0  0  0  0  0  0  0  0  0
    3.1064   -0.0352   -1.8585 C   0  0  0  0  0  0  0  0  0  0  0  0
    2.2966   -0.9285   -2.0976 O   0  0  0  0  0  0  0  0  0  0  0  0
    3.6392    0.6858    0.4833 C   0  0  0  0  0  0  0  0  0  0  0  0
    0.8239    0.8657   -1.2969 H   0  0  0  0  0  0  0  0  0  0  0  0
    3.2019    2.0024   -1.1710 H   0  0  0  0  0  0  0  0  0  0  0  0
    3.3313   -0.2886    0.8798 H   0  0  0  0  0  0  0  0  0  0  0  0
    4.7185    0.6433    0.3033 H   0  0  0  0  0  0  0  0  0  0  0  0
    3.4524    1.4348    1.2604 H   0  0  0  0  0  0  0  0  0  0  0  0
    4.3373    0.1065   -2.4837 N   0  0  0  0  0  0  0  0  0  0  0  0
    4.7903   -0.7864   -3.5247 C   0  0  0  0  0  0  0  0  0  0  0  0
    4.9371    0.8877   -2.2352 H   0  0  0  0  0  0  0  0  0  0  0  0
    5.3780   -1.6022   -3.0787 H   0  0  0  0  0  0  0  0  0  0  0  0
    3.9208   -1.2065   -4.0514 H   0  0  0  0  0  0  0  0  0  0  0  0
    5.4171   -0.2303   -4.2374 H   0  0  0  0  0  0  0  0  0  0  0  0
  1  3  1  0  0  0  0
  1  7  1  0  0  0  0
  1  2  2  0  0  0  0
 37 38  1  0  0  0  0
 38 46  1  0  0  0  0
 38 39  2  0  0  0  0
  8  9  1  0  0  0  0
  9 17  1  0  0  0  0
  9 10  2  0  0  0  0
 18 19  1  0  0  0  0
 19 36  1  0  0  0  0
 19 20  2  0  0  0  0
 22 24  1  0  0  0  0
 37 40  1  0  0  0  0
  8 11  1  0  0  0  0
 21 23  1  0  0  0  0
 46 47  1  0  0  0  0
 21 22  1  0  0  0  0
 36 37  1  0  0  0  0
  7  8  1  0  0  0  0
 18 21  1  0  0  0  0
 17 18  1  0  0  0  0
  3  4  1  0  0  0  0
  3  5  1  0  0  0  0
  3  6  1  0  0  0  0
 24 33  1  0  0  0  0
 24 34  1  0  0  0  0
 24 35  1  0  0  0  0
 40 43  1  0  0  0  0
 40 44  1  0  0  0  0
 40 45  1  0  0  0  0
 11 14  1  0  0  0  0
 11 15  1  0  0  0  0
 11 16  1  0  0  0  0
 23 30  1  0  0  0  0
 23 31  1  0  0  0  0
 23 32  1  0  0  0  0
 47 49  1  0  0  0  0
 47 50  1  0  0  0  0
 47 51  1  0  0  0  0
 22 28  1  0  0  0  0
 22 29  1  0  0  0  0
 37 42  1  0  0  0  0
  8 13  1  0  0  0  0
 18 26  1  0  0  0  0
 21 27  1  0  0  0  0
 46 48  1  0  0  0  0
  7 12  1  0  0  0  0
 36 41  1  0  0  0  0
 17 25  1  0  0  0  0
M  END
$$$$

  -OEChem-05262214473D

 51 50  0     1  0  0  0  0  0999 V2000
    1.3524   -3.0009    1.4091 C   0  0  0  0  0  0  0  0  0  0  0  0
    1.8758   -1.9880    0.9598 O   0  0  0  0  0  0  0  0  0  0  0  0
    2.2030   -4.1782    1.7536 C   0  0  0  0  0  0  0  0  0  0  0  0
    2.3264   -4.8705    0.9053 H   0  0  0  0  0  0  0  0  0  0  0  0
    3.2257   -3.8876    2.0432 H   0  0  0  0  0  0  0  0  0  0  0  0
    1.8327   -4.8004    2.5839 H   0  0  0  0  0  0  0  0  0  0  0  0
    0.0005   -3.1873    1.6465 N   0  0  0  0  0  0  0  0  0  0  0  0
   -0.9949   -2.1807    1.3864 C   0  0  2  0  0  0  0  0  0  0  0  0
   -0.3083   -0.8216    1.4164 C   0  0  0  0  0  0  0  0  0  0  0  0
    0.7533   -0.6191    2.0022 O   0  0  0  0  0  0  0  0  0  0  0  0
   -2.1232   -2.2423    2.4042 C   0  0  0  0  0  0  0  0  0  0  0  0
   -0.3048   -4.0823    2.0245 H   0  0  0  0  0  0  0  0  0  0  0  0
   -1.3830   -2.3724    0.3801 H   0  0  0  0  0  0  0  0  0  0  0  0
   -1.7534   -2.0527    3.4185 H   0  0  0  0  0  0  0  0  0  0  0  0
   -2.8936   -1.4947    2.1882 H   0  0  0  0  0  0  0  0  0  0  0  0
   -2.5964   -3.2301    2.4022 H   0  0  0  0  0  0  0  0  0  0  0  0
   -1.0412    0.1517    0.7482 N   0  0  0  0  0  0  0  0  0  0  0  0
   -0.6079    1.5223    0.6467 C   0  0  2  0  0  0  0  0  0  0  0  0
    0.9200    1.5410    0.6603 C   0  0  0  0  0  0  0  0  0  0  0  0
    1.5779    1.6017    1.6971 O   0  0  0  0  0  0  0  0  0  0  0  0
   -1.2210    2.4325    1.7382 C   0  0  2  0  0  0  0  0  0  0  0  0
   -2.7593    2.5223    1.6282 C   0  0  0  0  0  0  0  0  0  0  0  0
   -0.5686    3.8207    1.6963 C   0  0  0  0  0  0  0  0  0  0  0  0
   -3.4163    3.1859    2.8318 C   0  0  0  0  0  0  0  0  0  0  0  0
   -1.9022   -0.1128    0.2753 H   0  0  0  0  0  0  0  0  0  0  0  0
   -0.9299    1.8661   -0.3446 H   0  0  0  0  0  0  0  0  0  0  0  0
   -0.9819    1.9953    2.7169 H   0  0  0  0  0  0  0  0  0  0  0  0
   -3.0307    3.1035    0.7394 H   0  0  0  0  0  0  0  0  0  0  0  0
   -3.1923    1.5233    1.4982 H   0  0  0  0  0  0  0  0  0  0  0  0
   -0.7690    4.3163    0.7403 H   0  0  0  0  0  0  0  0  0  0  0  0
   -0.9665    4.4693    2.4827 H   0  0  0  0  0  0  0  0  0  0  0  0
    0.5168    3.7585    1.8261 H   0  0  0  0  0  0  0  0  0  0  0  0
   -3.1866    2.6549    3.7599 H   0  0  0  0  0  0  0  0  0  0  0  0
   -4.5047    3.1834    2.7125 H   0  0  0  0  0  0  0  0  0  0  0  0
   -3.0901    4.2255    2.9346 H   0  0  0  0  0  0  0  0  0  0  0  0
    1.4563    1.4486   -0.6161 N   0  0  0  0  0  0  0  0  0  0  0  0
    2.8771    1.4249   -0.8795 C   0  0  2  0  0  0  0  0  0  0  0  0
    3.1007    0.6763   -2.1868 C   0  0  0  0  0  0  0  0  0  0  0  0
    2.2917   -0.1269   -2.6467 O   0  0  0  0  0  0  0  0  0  0  0  0
    3.6402    0.7681    0.2603 C   0  0  0  0  0  0  0  0  0  0  0  0
    0.8184    1.3949   -1.4048 H   0  0  0  0  0  0  0  0  0  0  0  0
    3.1946    2.4668   -0.9957 H   0  0  0  0  0  0  0  0  0  0  0  0
    3.3355   -0.2765    0.3919 H   0  0  0  0  0  0  0  0  0  0  0  0
    4.7189    0.7766    0.0723 H   0  0  0  0  0  0  0  0  0  0  0  0
    3.4546    1.2900    1.2053 H   0  0  0  0  0  0  0  0  0  0  0  0
    4.3291    0.9783   -2.7576 N   0  0  0  0  0  0  0  0  0  0  0  0
    4.7802    0.3865   -3.9955 C   0  0  0  0  0  0  0  0  0  0  0  0
    4.9282    1.6702   -2.3171 H   0  0  0  0  0  0  0  0  0  0  0  0
    5.3710   -0.5154   -3.7775 H   0  0  0  0  0  0  0  0  0  0  0  0
    3.9096    0.1146   -4.6104 H   0  0  0  0  0  0  0  0  0  0  0  0
    5.4035    1.1097   -4.5418 H   0  0  0  0  0  0  0  0  0  0  0  0
  1  3  1  0  0  0  0
  1  7  1  0  0  0  0
  1  2  2  0  0  0  0
 37 38  1  0  0  0  0
 38 46  1  0  0  0  0
 38 39  2  0  0  0  0
  8  9  1  0  0  0  0
  9 17  1  0  0  0  0
  9 10  2  0  0  0  0
 18 19  1  0  0  0  0
 19 36  1  0  0  0  0
 19 20  2  0  0  0  0
 22 24  1  0  0  0  0
 37 40  1  0  0  0  0
  8 11  1  0  0  0  0
 21 23  1  0  0  0  0
 46 47  1  0  0  0  0
 21 22  1  0  0  0  0
 36 37  1  0  0  0  0
  7  8  1  0  0  0  0
 18 21  1  0  0  0  0
 17 18  1  0  0  0  0
  3  4  1  0  0  0  0
  3  5  1  0  0  0  0
  3  6  1  0  0  0  0
 24 33  1  0  0  0  0
 24 34  1  0  0  0  0
 24 35  1  0  0  0  0
 40 43  1  0  0  0  0
 40 44  1  0  0  0  0
 40 45  1  0  0  0  0
 11 14  1  0  0  0  0
 11 15  1  0  0  0  0
 11 16  1  0  0  0  0
 23 30  1  0  0  0  0
 23 31  1  0  0  0  0
 23 32  1  0  0  0  0
 47 49  1  0  0  0  0
 47 50  1  0  0  0  0
 47 51  1  0  0  0  0
 22 28  1  0  0  0  0
 22 29  1  0  0  0  0
 37 42  1  0  0  0  0
  8 13  1  0  0  0  0
 18 26  1  0  0  0  0
 21 27  1  0  0  0  0
 46 48  1  0  0  0  0
  7 12  1  0  0  0  0
 36 41  1  0  0  0  0
 17 25  1  0  0  0  0
M  END
$$$$

  -OEChem-05262214473D

 51 50  0     1  0  0  0  0  0999 V2000
    1.3524   -3.0009    1.4091 C   0  0  0  0  0  0  0  0  0  0  0  0
    1.8758   -1.9880    0.9598 O   0  0  0  0  0  0  0  0  0  0  0  0
    2.2030   -4.1782    1.7536 C   0  0  0  0  0  0  0  0  0  0  0  0
    2.3264   -4.8705    0.9053 H   0  0  0  0  0  0  0  0  0  0  0  0
    3.2257   -3.8876    2.0432 H   0  0  0  0  0  0  0  0  0  0  0  0
    1.8327   -4.8004    2.5839 H   0  0  0  0  0  0  0  0  0  0  0  0
    0.0005   -3.1873    1.6465 N   0  0  0  0  0  0  0  0  0  0  0  0
   -0.9949   -2.1807    1.3864 C   0  0  2  0  0  0  0  0  0  0  0  0
   -0.3083   -0.8216    1.4164 C   0  0  0  0  0  0  0  0  0  0  0  0
    0.7533   -0.6191    2.0022 O   0  0  0  0  0  0  0  0  0  0  0  0
   -2.1232   -2.2423    2.4042 C   0  0  0  0  0  0  0  0  0  0  0  0
   -0.3048   -4.0823    2.0245 H   0  0  0  0  0  0  0  0  0  0  0  0
   -1.3830   -2.3724    0.3801 H   0  0  0  0  0  0  0  0  0  0  0  0
   -1.7534   -2.0527    3.4185 H   0  0  0  0  0  0  0  0  0  0  0  0
   -2.8936   -1.4947    2.1882 H   0  0  0  0  0  0  0  0  0  0  0  0
   -2.5964   -3.2301    2.4022 H   0  0  0  0  0  0  0  0  0  0  0  0
   -1.0412    0.1517    0.7482 N   0  0  0  0  0  0  0  0  0  0  0  0
   -0.6079    1.5223    0.6467 C   0  0  2  0  0  0  0  0  0  0  0  0
    0.9200    1.5410    0.6603 C   0  0  0  0  0  0  0  0  0  0  0  0
    1.5814    1.3331    1.6756 O   0  0  0  0  0  0  0  0  0  0  0  0
   -1.2210    2.4325    1.7382 C   0  0  2  0  0  0  0  0  0  0  0  0
   -2.7593    2.5223    1.6282 C   0  0  0  0  0  0  0  0  0  0  0  0
   -0.5686    3.8207    1.6963 C   0  0  0  0  0  0  0  0  0  0  0  0
   -3.4163    3.1859    2.8318 C   0  0  0  0  0  0  0  0  0  0  0  0
   -1.9022   -0.1128    0.2753 H   0  0  0  0  0  0  0  0  0  0  0  0
   -0.9299    1.8661   -0.3446 H   0  0  0  0  0  0  0  0  0  0  0  0
   -0.9819    1.9953    2.7169 H   0  0  0  0  0  0  0  0  0  0  0  0
   -3.0307    3.1035    0.7394 H   0  0  0  0  0  0  0  0  0  0  0  0
   -3.1923    1.5233    1.4982 H   0  0  0  0  0  0  0  0  0  0  0  0
   -0.7690    4.3163    0.7403 H   0  0  0  0  0  0  0  0  0  0  0  0
   -0.9665    4.4693    2.4827 H   0  0  0  0  0  0  0  0  0  0  0  0
    0.5168    3.7585    1.8261 H   0  0  0  0  0  0  0  0  0  0  0  0
   -3.1866    2.6549    3.7599 H   0  0  0  0  0  0  0  0  0  0  0  0
   -4.5047    3.1834    2.7125 H   0  0  0  0  0  0  0  0  0  0  0  0
   -3.0901    4.2255    2.9346 H   0  0  0  0  0  0  0  0  0  0  0  0
    1.4520    1.7835   -0.5981 N   0  0  0  0  0  0  0  0  0  0  0  0
    2.8720    1.8326   -0.8627 C   0  0  2  0  0  0  0  0  0  0  0  0
    3.0924    1.4485   -2.3198 C   0  0  0  0  0  0  0  0  0  0  0  0
    2.2833    0.7894   -2.9696 O   0  0  0  0  0  0  0  0  0  0  0  0
    3.6403    0.9054    0.0661 C   0  0  0  0  0  0  0  0  0  0  0  0
    0.8116    1.9341   -1.3719 H   0  0  0  0  0  0  0  0  0  0  0  0
    3.1871    2.8700   -0.7062 H   0  0  0  0  0  0  0  0  0  0  0  0
    3.3380   -0.1386   -0.0762 H   0  0  0  0  0  0  0  0  0  0  0  0
    4.7183    0.9651   -0.1164 H   0  0  0  0  0  0  0  0  0  0  0  0
    3.4570    1.1645    1.1145 H   0  0  0  0  0  0  0  0  0  0  0  0
    4.3183    1.8912   -2.7966 N   0  0  0  0  0  0  0  0  0  0  0  0
    4.7662    1.6412   -4.1467 C   0  0  0  0  0  0  0  0  0  0  0  0
    4.9177    2.4472   -2.1937 H   0  0  0  0  0  0  0  0  0  0  0  0
    5.3594    0.7152   -4.1712 H   0  0  0  0  0  0  0  0  0  0  0  0
    3.8940    1.5353   -4.8085 H   0  0  0  0  0  0  0  0  0  0  0  0
    5.3862    2.4828   -4.4890 H   0  0  0  0  0  0  0  0  0  0  0  0
  1  3  1  0  0  0  0
  1  7  1  0  0  0  0
  1  2  2  0  0  0  0
 37 38  1  0  0  0  0
 38 46  1  0  0  0  0
 38 39  2  0  0  0  0
  8  9  1  0  0  0  0
  9 17  1  0  0  0  0
  9 10  2  0  0  0  0
 18 19  1  0  0  0  0
 19 36  1  0  0  0  0
 19 20  2  0  0  0  0
 22 24  1  0  0  0  0
 37 40  1  0  0  0  0
  8 11  1  0  0  0  0
 21 23  1  0  0  0  0
 46 47  1  0  0  0  0
 21 22  1  0  0  0  0
 36 37  1  0  0  0  0
  7  8  1  0  0  0  0
 18 21  1  0  0  0  0
 17 18  1  0  0  0  0
  3  4  1  0  0  0  0
  3  5  1  0  0  0  0
  3  6  1  0  0  0  0
 24 33  1  0  0  0  0
 24 34  1  0  0  0  0
 24 35  1  0  0  0  0
 40 43  1  0  0  0  0
 40 44  1  0  0  0  0
 40 45  1  0  0  0  0
 11 14  1  0  0  0  0
 11 15  1  0  0  0  0
 11 16  1  0  0  0  0
 23 30  1  0  0  0  0
 23 31  1  0  0  0  0
 23 32  1  0  0  0  0
 47 49  1  0  0  0  0
 47 50  1  0  0  0  0
 47 51  1  0  0  0  0
 22 28  1  0  0  0  0
 22 29  1  0  0  0  0
 37 42  1  0  0  0  0
  8 13  1  0  0  0  0
 18 26  1  0  0  0  0
 21 27  1  0  0  0  0
 46 48  1  0  0  0  0
  7 12  1  0  0  0  0
 36 41  1  0  0  0  0
 17 25  1  0  0  0  0
M  END
$$$$

  -OEChem-05262214473D

 51 50  0     1  0  0  0  0  0999 V2000
    1.3524   -3.0009    1.4091 C   0  0  0  0  0  0  0  0  0  0  0  0
    1.8758   -1.9880    0.9598 O   0  0  0  0  0  0  0  0  0  0  0  0
    2.2030   -4.1782    1.7536 C   0  0  0  0  0  0  0  0  0  0  0  0
    2.3264   -4.8705    0.9053 H   0  0  0  0  0  0  0  0  0  0  0  0
    3.2257   -3.8876    2.0432 H   0  0  0  0  0  0  0  0  0  0  0  0
    1.8327   -4.8004    2.5839 H   0  0  0  0  0  0  0  0  0  0  0  0
    0.0005   -3.1873    1.6465 N   0  0  0  0  0  0  0  0  0  0  0  0
   -0.9949   -2.1807    1.3864 C   0  0  2  0  0  0  0  0  0  0  0  0
   -0.3083   -0.8216    1.4164 C   0  0  0  0  0  0  0  0  0  0  0  0
    0.7533   -0.6191    2.0022 O   0  0  0  0  0  0  0  0  0  0  0  0
   -2.1232   -2.2423    2.4042 C   0  0  0  0  0  0  0  0  0  0  0  0
   -0.3048   -4.0823    2.0245 H   0  0  0  0  0  0  0  0  0  0  0  0
   -1.3830   -2.3724    0.3801 H   0  0  0  0  0  0  0  0  0  0  0  0
   -1.7534   -2.0527    3.4185 H   0  0  0  0  0  0  0  0  0  0  0  0
   -2.8936   -1.4947    2.1882 H   0  0  0  0  0  0  0  0  0  0  0  0
   -2.5964   -3.2301    2.4022 H   0  0  0  0  0  0  0  0  0  0  0  0
   -1.0412    0.1517    0.7482 N   0  0  0  0  0  0  0  0  0  0  0  0
   -0.6079    1.5223    0.6467 C   0  0  2  0  0  0  0  0  0  0  0  0
    0.9200    1.5410    0.6603 C   0  0  0  0  0  0  0  0  0  0  0  0
    1.5853    1.0793    1.5854 O   0  0  0  0  0  0  0  0  0  0  0  0
   -1.2210    2.4325    1.7382 C   0  0  2  0  0  0  0  0  0  0  0  0
   -2.7593    2.5223    1.6282 C   0  0  0  0  0  0  0  0  0  0  0  0
   -0.5686    3.8207    1.6963 C   0  0  0  0  0  0  0  0  0  0  0  0
   -3.4163    3.1859    2.8318 C   0  0  0  0  0  0  0  0  0  0  0  0
   -1.9022   -0.1128    0.2753 H   0  0  0  0  0  0  0  0  0  0  0  0
   -0.9299    1.8661   -0.3446 H   0  0  0  0  0  0  0  0  0  0  0  0
   -0.9819    1.9953    2.7169 H   0  0  0  0  0  0  0  0  0  0  0  0
   -3.0307    3.1035    0.7394 H   0  0  0  0  0  0  0  0  0  0  0  0
   -3.1923    1.5233    1.4982 H   0  0  0  0  0  0  0  0  0  0  0  0
   -0.7690    4.3163    0.7403 H   0  0  0  0  0  0  0  0  0  0  0  0
   -0.9665    4.4693    2.4827 H   0  0  0  0  0  0  0  0  0  0  0  0
    0.5168    3.7585    1.8261 H   0  0  0  0  0  0  0  0  0  0  0  0
   -3.1866    2.6549    3.7599 H   0  0  0  0  0  0  0  0  0  0  0  0
   -4.5047    3.1834    2.7125 H   0  0  0  0  0  0  0  0  0  0  0  0
   -3.0901    4.2255    2.9346 H   0  0  0  0  0  0  0  0  0  0  0  0
    1.4472    2.1024   -0.4940 N   0  0  0  0  0  0  0  0  0  0  0  0
    2.8661    2.2221   -0.7409 C   0  0  2  0  0  0  0  0  0  0  0  0
    3.0822    2.2287   -2.2484 C   0  0  0  0  0  0  0  0  0  0  0  0
    2.2722    1.7581   -3.0443 O   0  0  0  0  0  0  0  0  0  0  0  0
    3.6394    1.0882   -0.0859 C   0  0  0  0  0  0  0  0  0  0  0  0
    0.8038    2.4463   -1.2006 H   0  0  0  0  0  0  0  0  0  0  0  0
    3.1799    3.1845   -0.3222 H   0  0  0  0  0  0  0  0  0  0  0  0
    3.3386    0.1158   -0.4927 H   0  0  0  0  0  0  0  0  0  0  0  0
    4.7167    1.1960   -0.2498 H   0  0  0  0  0  0  0  0  0  0  0  0
    3.4592    1.0667    0.9943 H   0  0  0  0  0  0  0  0  0  0  0  0
    4.3057    2.7831   -2.5979 N   0  0  0  0  0  0  0  0  0  0  0  0
    4.7493    2.8922   -3.9680 C   0  0  0  0  0  0  0  0  0  0  0  0
    4.9060    3.1657   -1.8734 H   0  0  0  0  0  0  0  0  0  0  0  0
    5.3442    2.0057   -4.2330 H   0  0  0  0  0  0  0  0  0  0  0  0
    3.8750    2.9589   -4.6322 H   0  0  0  0  0  0  0  0  0  0  0  0
    5.3666    3.7955   -4.0826 H   0  0  0  0  0  0  0  0  0  0  0  0
  1  3  1  0  0  0  0
  1  7  1  0  0  0  0
  1  2  2  0  0  0  0
 37 38  1  0  0  0  0
 38 46  1  0  0  0  0
 38 39  2  0  0  0  0
  8  9  1  0  0  0  0
  9 17  1  0  0  0  0
  9 10  2  0  0  0  0
 18 19  1  0  0  0  0
 19 36  1  0  0  0  0
 19 20  2  0  0  0  0
 22 24  1  0  0  0  0
 37 40  1  0  0  0  0
  8 11  1  0  0  0  0
 21 23  1  0  0  0  0
 46 47  1  0  0  0  0
 21 22  1  0  0  0  0
 36 37  1  0  0  0  0
  7  8  1  0  0  0  0
 18 21  1  0  0  0  0
 17 18  1  0  0  0  0
  3  4  1  0  0  0  0
  3  5  1  0  0  0  0
  3  6  1  0  0  0  0
 24 33  1  0  0  0  0
 24 34  1  0  0  0  0
 24 35  1  0  0  0  0
 40 43  1  0  0  0  0
 40 44  1  0  0  0  0
 40 45  1  0  0  0  0
 11 14  1  0  0  0  0
 11 15  1  0  0  0  0
 11 16  1  0  0  0  0
 23 30  1  0  0  0  0
 23 31  1  0  0  0  0
 23 32  1  0  0  0  0
 47 49  1  0  0  0  0
 47 50  1  0  0  0  0
 47 51  1  0  0  0  0
 22 28  1  0  0  0  0
 22 29  1  0  0  0  0
 37 42  1  0  0  0  0
  8 13  1  0  0  0  0
 18 26  1  0  0  0  0
 21 27  1  0  0  0  0
 46 48  1  0  0  0  0
  7 12  1  0  0  0  0
 36 41  1  0  0  0  0
 17 25  1  0  0  0  0
M  END
$$$$

  -OEChem-05262214473D

 51 50  0     1  0  0  0  0  0999 V2000
    1.3524   -3.0009    1.4091 C   0  0  0  0  0  0  0  0  0  0  0  0
    1.8758   -1.9880    0.9598 O   0  0  0  0  0  0  0  0  0  0  0  0
    2.2030   -4.1782    1.7536 C   0  0  0  0  0  0  0  0  0  0  0  0
    2.3264   -4.8705    0.9053 H   0  0  0  0  0  0  0  0  0  0  0  0
    3.2257   -3.8876    2.0432 H   0  0  0  0  0  0  0  0  0  0  0  0
    1.8327   -4.8004    2.5839 H   0  0  0  0  0  0  0  0  0  0  0  0
    0.0005   -3.1873    1.6465 N   0  0  0  0  0  0  0  0  0  0  0  0
   -0.9949   -2.1807    1.3864 C   0  0  2  0  0  0  0  0  0  0  0  0
   -0.3083   -0.8216    1.4164 C   0  0  0  0  0  0  0  0  0  0  0  0
    0.7533   -0.6191    2.0022 O   0  0  0  0  0  0  0  0  0  0  0  0
   -2.1232   -2.2423    2.4042 C   0  0  0  0  0  0  0  0  0  0  0  0
   -0.3048   -4.0823    2.0245 H   0  0  0  0  0  0  0  0  0  0  0  0
   -1.3830   -2.3724    0.3801 H   0  0  0  0  0  0  0  0  0  0  0  0
   -1.7534   -2.0527    3.4185 H   0  0  0  0  0  0  0  0  0  0  0  0
   -2.8936   -1.4947    2.1882 H   0  0  0  0  0  0  0  0  0  0  0  0
   -2.5964   -3.2301    2.4022 H   0  0  0  0  0  0  0  0  0  0  0  0
   -1.0412    0.1517    0.7482 N   0  0  0  0  0  0  0  0  0  0  0  0
   -0.6079    1.5223    0.6467 C   0  0  2  0  0  0  0  0  0  0  0  0
    0.9200    1.5410    0.6603 C   0  0  0  0  0  0  0  0  0  0  0  0
    1.5894    0.8574    1.4325 O   0  0  0  0  0  0  0  0  0  0  0  0
   -1.2210    2.4325    1.7382 C   0  0  2  0  0  0  0  0  0  0  0  0
   -2.7593    2.5223    1.6282 C   0  0  0  0  0  0  0  0  0  0  0  0
   -0.5686    3.8207    1.6963 C   0  0  0  0  0  0  0  0  0  0  0  0
   -3.4163    3.1859    2.8318 C   0  0  0  0  0  0  0  0  0  0  0  0
   -1.9022   -0.1128    0.2753 H   0  0  0  0  0  0  0  0  0  0  0  0
   -0.9299    1.8661   -0.3446 H   0  0  0  0  0  0  0  0  0  0  0  0
   -0.9819    1.9953    2.7169 H   0  0  0  0  0  0  0  0  0  0  0  0
   -3.0307    3.1035    0.7394 H   0  0  0  0  0  0  0  0  0  0  0  0
   -3.1923    1.5233    1.4982 H   0  0  0  0  0  0  0  0  0  0  0  0
   -0.7690    4.3163    0.7403 H   0  0  0  0  0  0  0  0  0  0  0  0
   -0.9665    4.4693    2.4827 H   0  0  0  0  0  0  0  0  0  0  0  0
    0.5168    3.7585    1.8261 H   0  0  0  0  0  0  0  0  0  0  0  0
   -3.1866    2.6549    3.7599 H   0  0  0  0  0  0  0  0  0  0  0  0
   -4.5047    3.1834    2.7125 H   0  0  0  0  0  0  0  0  0  0  0  0
   -3.0901    4.2255    2.9346 H   0  0  0  0  0  0  0  0  0  0  0  0
    1.4422    2.3834   -0.3109 N   0  0  0  0  0  0  0  0  0  0  0  0
    2.8600    2.5668   -0.5224 C   0  0  2  0  0  0  0  0  0  0  0  0
    3.0708    2.9639   -1.9775 C   0  0  0  0  0  0  0  0  0  0  0  0
    2.2589    2.7131   -2.8657 O   0  0  0  0  0  0  0  0  0  0  0  0
    3.6376    1.3041   -0.1854 C   0  0  0  0  0  0  0  0  0  0  0  0
    0.7956    2.8967   -0.9026 H   0  0  0  0  0  0  0  0  0  0  0  0
    3.1734    3.3889    0.1302 H   0  0  0  0  0  0  0  0  0  0  0  0
    3.3372    0.4694   -0.8291 H   0  0  0  0  0  0  0  0  0  0  0  0
    4.7141    1.4536   -0.3189 H   0  0  0  0  0  0  0  0  0  0  0  0
    3.4613    1.0033    0.8529 H   0  0  0  0  0  0  0  0  0  0  0  0
    4.2920    3.5932   -2.1751 N   0  0  0  0  0  0  0  0  0  0  0  0
    4.7307    4.0543   -3.4716 C   0  0  0  0  0  0  0  0  0  0  0  0
    4.8942    3.7769   -1.3780 H   0  0  0  0  0  0  0  0  0  0  0  0
    5.3264    3.2682   -3.9587 H   0  0  0  0  0  0  0  0  0  0  0  0
    3.8540    4.2882   -4.0934 H   0  0  0  0  0  0  0  0  0  0  0  0
    5.3459    4.9581   -3.3502 H   0  0  0  0  0  0  0  0  0  0  0  0
  1  3  1  0  0  0  0
  1  7  1  0  0  0  0
  1  2  2  0  0  0  0
 37 38  1  0  0  0  0
 38 46  1  0  0  0  0
 38 39  2  0  0  0  0
  8  9  1  0  0  0  0
  9 17  1  0  0  0  0
  9 10  2  0  0  0  0
 18 19  1  0  0  0  0
 19 36  1  0  0  0  0
 19 20  2  0  0  0  0
 22 24  1  0  0  0  0
 37 40  1  0  0  0  0
  8 11  1  0  0  0  0
 21 23  1  0  0  0  0
 46 47  1  0  0  0  0
 21 22  1  0  0  0  0
 36 37  1  0  0  0  0
  7  8  1  0  0  0  0
 18 21  1  0  0  0  0
 17 18  1  0  0  0  0
  3  4  1  0  0  0  0
  3  5  1  0  0  0  0
  3  6  1  0  0  0  0
 24 33  1  0  0  0  0
 24 34  1  0  0  0  0
 24 35  1  0  0  0  0
 40 43  1  0  0  0  0
 40 44  1  0  0  0  0
 40 45  1  0  0  0  0
 11 14  1  0  0  0  0
 11 15  1  0  0  0  0
 11 16  1  0  0  0  0
 23 30  1  0  0  0  0
 23 31  1  0  0  0  0
 23 32  1  0  0  0  0
 47 49  1  0  0  0  0
 47 50  1  0  0  0  0
 47 51  1  0  0  0  0
 22 28  1  0  0  0  0
 22 29  1  0  0  0  0
 37 42  1  0  0  0  0
  8 13  1  0  0  0  0
 18 26  1  0  0  0  0
 21 27  1  0  0  0  0
 46 48  1  0  0  0  0
  7 12  1  0  0  0  0
 36 41  1  0  0  0  0
 17 25  1  0  0  0  0
M  END
$$$$

  -OEChem-05262214473D

 51 50  0     1  0  0  0  0  0999 V2000
    1.3524   -3.0009    1.4091 C   0  0  0  0  0  0  0  0  0  0  0  0
    1.8758   -1.9880    0.9598 O   0  0  0  0  0  0  0  0  0  0  0  0
    2.2030   -4.1782    1.7536 C   0  0  0  0  0  0  0  0  0  0  0  0
    2.3264   -4.8705    0.9053 H   0  0  0  0  0  0  0  0  0  0  0  0
    3.2257   -3.8876    2.0432 H   0  0  0  0  0  0  0  0  0  0  0  0
    1.8327   -4.8004    2.5839 H   0  0  0  0  0  0  0  0  0  0  0  0
    0.0005   -3.1873    1.6465 N   0  0  0  0  0  0  0  0  0  0  0  0
   -0.9949   -2.1807    1.3864 C   0  0  2  0  0  0  0  0  0  0  0  0
   -0.3083   -0.8216    1.4164 C   0  0  0  0  0  0  0  0  0  0  0  0
    0.7533   -0.6191    2.0022 O   0  0  0  0  0  0  0  0  0  0  0  0
   -2.1232   -2.2423    2.4042 C   0  0  0  0  0  0  0  0  0  0  0  0
   -0.3048   -4.0823    2.0245 H   0  0  0  0  0  0  0  0  0  0  0  0
   -1.3830   -2.3724    0.3801 H   0  0  0  0  0  0  0  0  0  0  0  0
   -1.7534   -2.0527    3.4185 H   0  0  0  0  0  0  0  0  0  0  0  0
   -2.8936   -1.4947    2.1882 H   0  0  0  0  0  0  0  0  0  0  0  0
   -2.5964   -3.2301    2.4022 H   0  0  0  0  0  0  0  0  0  0  0  0
   -1.0412    0.1517    0.7482 N   0  0  0  0  0  0  0  0  0  0  0  0
   -0.6079    1.5223    0.6467 C   0  0  2  0  0  0  0  0  0  0  0  0
    0.9200    1.5410    0.6603 C   0  0  0  0  0  0  0  0  0  0  0  0
    1.5933    0.6827    1.2273 O   0  0  0  0  0  0  0  0  0  0  0  0
   -1.2210    2.4325    1.7382 C   0  0  2  0  0  0  0  0  0  0  0  0
   -2.7593    2.5223    1.6282 C   0  0  0  0  0  0  0  0  0  0  0  0
   -0.5686    3.8207    1.6963 C   0  0  0  0  0  0  0  0  0  0  0  0
   -3.4163    3.1859    2.8318 C   0  0  0  0  0  0  0  0  0  0  0  0
   -1.9022   -0.1128    0.2753 H   0  0  0  0  0  0  0  0  0  0  0  0
   -0.9299    1.8661   -0.3446 H   0  0  0  0  0  0  0  0  0  0  0  0
   -0.9819    1.9953    2.7169 H   0  0  0  0  0  0  0  0  0  0  0  0
   -3.0307    3.1035    0.7394 H   0  0  0  0  0  0  0  0  0  0  0  0
   -3.1923    1.5233    1.4982 H   0  0  0  0  0  0  0  0  0  0  0  0
   -0.7690    4.3163    0.7403 H   0  0  0  0  0  0  0  0  0  0  0  0
   -0.9665    4.4693    2.4827 H   0  0  0  0  0  0  0  0  0  0  0  0
    0.5168    3.7585    1.8261 H   0  0  0  0  0  0  0  0  0  0  0  0
   -3.1866    2.6549    3.7599 H   0  0  0  0  0  0  0  0  0  0  0  0
   -4.5047    3.1834    2.7125 H   0  0  0  0  0  0  0  0  0  0  0  0
   -3.0901    4.2255    2.9346 H   0  0  0  0  0  0  0  0  0  0  0  0
    1.4372    2.6074   -0.0613 N   0  0  0  0  0  0  0  0  0  0  0  0
    2.8539    2.8432   -0.2222 C   0  0  2  0  0  0  0  0  0  0  0  0
    3.0590    3.6039   -1.5256 C   0  0  0  0  0  0  0  0  0  0  0  0
    2.2445    3.5893   -2.4461 O   0  0  0  0  0  0  0  0  0  0  0  0
    3.6351    1.5385   -0.2257 C   0  0  0  0  0  0  0  0  0  0  0  0
    0.7877    3.2546   -0.4982 H   0  0  0  0  0  0  0  0  0  0  0  0
    3.1680    3.4693    0.6200 H   0  0  0  0  0  0  0  0  0  0  0  0
    3.3341    0.8979   -1.0626 H   0  0  0  0  0  0  0  0  0  0  0  0
    4.7109    1.7203   -0.3190 H   0  0  0  0  0  0  0  0  0  0  0  0
    3.4629    0.9787    0.6999 H   0  0  0  0  0  0  0  0  0  0  0  0
    4.2783    4.2662   -1.5570 N   0  0  0  0  0  0  0  0  0  0  0  0
    4.7116    5.0483   -2.6912 C   0  0  0  0  0  0  0  0  0  0  0  0
    4.8829    4.2390   -0.7412 H   0  0  0  0  0  0  0  0  0  0  0  0
    5.3071    4.4167   -3.3669 H   0  0  0  0  0  0  0  0  0  0  0  0
    3.8323    5.4328   -3.2288 H   0  0  0  0  0  0  0  0  0  0  0  0
    5.3255    5.8916   -2.3419 H   0  0  0  0  0  0  0  0  0  0  0  0
  1  3  1  0  0  0  0
  1  7  1  0  0  0  0
  1  2  2  0  0  0  0
 37 38  1  0  0  0  0
 38 46  1  0  0  0  0
 38 39  2  0  0  0  0
  8  9  1  0  0  0  0
  9 17  1  0  0  0  0
  9 10  2  0  0  0  0
 18 19  1  0  0  0  0
 19 36  1  0  0  0  0
 19 20  2  0  0  0  0
 22 24  1  0  0  0  0
 37 40  1  0  0  0  0
  8 11  1  0  0  0  0
 21 23  1  0  0  0  0
 46 47  1  0  0  0  0
 21 22  1  0  0  0  0
 36 37  1  0  0  0  0
  7  8  1  0  0  0  0
 18 21  1  0  0  0  0
 17 18  1  0  0  0  0
  3  4  1  0  0  0  0
  3  5  1  0  0  0  0
  3  6  1  0  0  0  0
 24 33  1  0  0  0  0
 24 34  1  0  0  0  0
 24 35  1  0  0  0  0
 40 43  1  0  0  0  0
 40 44  1  0  0  0  0
 40 45  1  0  0  0  0
 11 14  1  0  0  0  0
 11 15  1  0  0  0  0
 11 16  1  0  0  0  0
 23 30  1  0  0  0  0
 23 31  1  0  0  0  0
 23 32  1  0  0  0  0
 47 49  1  0  0  0  0
 47 50  1  0  0  0  0
 47 51  1  0  0  0  0
 22 28  1  0  0  0  0
 22 29  1  0  0  0  0
 37 42  1  0  0  0  0
  8 13  1  0  0  0  0
 18 26  1  0  0  0  0
 21 27  1  0  0  0  0
 46 48  1  0  0  0  0
  7 12  1  0  0  0  0
 36 41  1  0  0  0  0
 17 25  1  0  0  0  0
M  END
$$$$

  -OEChem-05262214473D

 51 50  0     1  0  0  0  0  0999 V2000
    1.3524   -3.0009    1.4091 C   0  0  0  0  0  0  0  0  0  0  0  0
    1.8758   -1.9880    0.9598 O   0  0  0  0  0  0  0  0  0  0  0  0
    2.2030   -4.1782    1.7536 C   0  0  0  0  0  0  0  0  0  0  0  0
    2.3264   -4.8705    0.9053 H   0  0  0  0  0  0  0  0  0  0  0  0
    3.2257   -3.8876    2.0432 H   0  0  0  0  0  0  0  0  0  0  0  0
    1.8327   -4.8004    2.5839 H   0  0  0  0  0  0  0  0  0  0  0  0
    0.0005   -3.1873    1.6465 N   0  0  0  0  0  0  0  0  0  0  0  0
   -0.9949   -2.1807    1.3864 C   0  0  2  0  0  0  0  0  0  0  0  0
   -0.3083   -0.8216    1.4164 C   0  0  0  0  0  0  0  0  0  0  0  0
    0.7533   -0.6191    2.0022 O   0  0  0  0  0  0  0  0  0  0  0  0
   -2.1232   -2.2423    2.4042 C   0  0  0  0  0  0  0  0  0  0  0  0
   -0.3048   -4.0823    2.0245 H   0  0  0  0  0  0  0  0  0  0  0  0
   -1.3830   -2.3724    0.3801 H   0  0  0  0  0  0  0  0  0  0  0  0
   -1.7534   -2.0527    3.4185 H   0  0  0  0  0  0  0  0  0  0  0  0
   -2.8936   -1.4947    2.1882 H   0  0  0  0  0  0  0  0  0  0  0  0
   -2.5964   -3.2301    2.4022 H   0  0  0  0  0  0  0  0  0  0  0  0
   -1.0412    0.1517    0.7482 N   0  0  0  0  0  0  0  0  0  0  0  0
   -0.6079    1.5223    0.6467 C   0  0  2  0  0  0  0  0  0  0  0  0
    0.9200    1.5410    0.6603 C   0  0  0  0  0  0  0  0  0  0  0  0
    1.5969    0.5671    0.9840 O   0  0  0  0  0  0  0  0  0  0  0  0
   -1.2210    2.4325    1.7382 C   0  0  2  0  0  0  0  0  0  0  0  0
   -2.7593    2.5223    1.6282 C   0  0  0  0  0  0  0  0  0  0  0  0
   -0.5686    3.8207    1.6963 C   0  0  0  0  0  0  0  0  0  0  0  0
   -3.4163    3.1859    2.8318 C   0  0  0  0  0  0  0  0  0  0  0  0
   -1.9022   -0.1128    0.2753 H   0  0  0  0  0  0  0  0  0  0  0  0
   -0.9299    1.8661   -0.3446 H   0  0  0  0  0  0  0  0  0  0  0  0
   -0.9819    1.9953    2.7169 H   0  0  0  0  0  0  0  0  0  0  0  0
   -3.0307    3.1035    0.7394 H   0  0  0  0  0  0  0  0  0  0  0  0
   -3.1923    1.5233    1.4982 H   0  0  0  0  0  0  0  0  0  0  0  0
   -0.7690    4.3163    0.7403 H   0  0  0  0  0  0  0  0  0  0  0  0
   -0.9665    4.4693    2.4827 H   0  0  0  0  0  0  0  0  0  0  0  0
    0.5168    3.7585    1.8261 H   0  0  0  0  0  0  0  0  0  0  0  0
   -3.1866    2.6549    3.7599 H   0  0  0  0  0  0  0  0  0  0  0  0
   -4.5047    3.1834    2.7125 H   0  0  0  0  0  0  0  0  0  0  0  0
   -3.0901    4.2255    2.9346 H   0  0  0  0  0  0  0  0  0  0  0  0
    1.4327    2.7593    0.2378 N   0  0  0  0  0  0  0  0  0  0  0  0
    2.8484    3.0325    0.1393 C   0  0  2  0  0  0  0  0  0  0  0  0
    3.0475    4.1051   -0.9233 C   0  0  0  0  0  0  0  0  0  0  0  0
    2.2298    4.3270   -1.8140 O   0  0  0  0  0  0  0  0  0  0  0  0
    3.6320    1.7752   -0.2039 C   0  0  0  0  0  0  0  0  0  0  0  0
    0.7804    3.4957   -0.0148 H   0  0  0  0  0  0  0  0  0  0  0  0
    3.1642    3.4201    1.1140 H   0  0  0  0  0  0  0  0  0  0  0  0
    3.3293    1.3722   -1.1773 H   0  0  0  0  0  0  0  0  0  0  0  0
    4.7071    1.9780   -0.2501 H   0  0  0  0  0  0  0  0  0  0  0  0
    3.4641    0.9945    0.5458 H   0  0  0  0  0  0  0  0  0  0  0  0
    4.2654    4.7563   -0.7858 N   0  0  0  0  0  0  0  0  0  0  0  0
    4.6934    5.8065   -1.6802 C   0  0  0  0  0  0  0  0  0  0  0  0
    4.8729    4.5206   -0.0066 H   0  0  0  0  0  0  0  0  0  0  0  0
    5.2877    5.3728   -2.4980 H   0  0  0  0  0  0  0  0  0  0  0  0
    3.8115    6.3146   -2.0975 H   0  0  0  0  0  0  0  0  0  0  0  0
    5.3069    6.5323   -1.1263 H   0  0  0  0  0  0  0  0  0  0  0  0
  1  3  1  0  0  0  0
  1  7  1  0  0  0  0
  1  2  2  0  0  0  0
 37 38  1  0  0  0  0
 38 46  1  0  0  0  0
 38 39  2  0  0  0  0
  8  9  1  0  0  0  0
  9 17  1  0  0  0  0
  9 10  2  0  0  0  0
 18 19  1  0  0  0  0
 19 36  1  0  0  0  0
 19 20  2  0  0  0  0
 22 24  1  0  0  0  0
 37 40  1  0  0  0  0
  8 11  1  0  0  0  0
 21 23  1  0  0  0  0
 46 47  1  0  0  0  0
 21 22  1  0  0  0  0
 36 37  1  0  0  0  0
  7  8  1  0  0  0  0
 18 21  1  0  0  0  0
 17 18  1  0  0  0  0
  3  4  1  0  0  0  0
  3  5  1  0  0  0  0
  3  6  1  0  0  0  0
 24 33  1  0  0  0  0
 24 34  1  0  0  0  0
 24 35  1  0  0  0  0
 40 43  1  0  0  0  0
 40 44  1  0  0  0  0
 40 45  1  0  0  0  0
 11 14  1  0  0  0  0
 11 15  1  0  0  0  0
 11 16  1  0  0  0  0
 23 30  1  0  0  0  0
 23 31  1  0  0  0  0
 23 32  1  0  0  0  0
 47 49  1  0  0  0  0
 47 50  1  0  0  0  0
 47 51  1  0  0  0  0
 22 28  1  0  0  0  0
 22 29  1  0  0  0  0
 37 42  1  0  0  0  0
  8 13  1  0  0  0  0
 18 26  1  0  0  0  0
 21 27  1  0  0  0  0
 46 48  1  0  0  0  0
  7 12  1  0  0  0  0
 36 41  1  0  0  0  0
 17 25  1  0  0  0  0
M  END
$$$$

  -OEChem-05262214473D

 51 50  0     1  0  0  0  0  0999 V2000
    1.3524   -3.0009    1.4091 C   0  0  0  0  0  0  0  0  0  0  0  0
    1.8758   -1.9880    0.9598 O   0  0  0  0  0  0  0  0  0  0  0  0
    2.2030   -4.1782    1.7536 C   0  0  0  0  0  0  0  0  0  0  0  0
    2.3264   -4.8705    0.9053 H   0  0  0  0  0  0  0  0  0  0  0  0
    3.2257   -3.8876    2.0432 H   0  0  0  0  0  0  0  0  0  0  0  0
    1.8327   -4.8004    2.5839 H   0  0  0  0  0  0  0  0  0  0  0  0
    0.0005   -3.1873    1.6465 N   0  0  0  0  0  0  0  0  0  0  0  0
   -0.9949   -2.1807    1.3864 C   0  0  2  0  0  0  0  0  0  0  0  0
   -0.3083   -0.8216    1.4164 C   0  0  0  0  0  0  0  0  0  0  0  0
    0.7533   -0.6191    2.0022 O   0  0  0  0  0  0  0  0  0  0  0  0
   -2.1232   -2.2423    2.4042 C   0  0  0  0  0  0  0  0  0  0  0  0
   -0.3048   -4.0823    2.0245 H   0  0  0  0  0  0  0  0  0  0  0  0
   -1.3830   -2.3724    0.3801 H   0  0  0  0  0  0  0  0  0  0  0  0
   -1.7534   -2.0527    3.4185 H   0  0  0  0  0  0  0  0  0  0  0  0
   -2.8936   -1.4947    2.1882 H   0  0  0  0  0  0  0  0  0  0  0  0
   -2.5964   -3.2301    2.4022 H   0  0  0  0  0  0  0  0  0  0  0  0
   -1.0412    0.1517    0.7482 N   0  0  0  0  0  0  0  0  0  0  0  0
   -0.6079    1.5223    0.6467 C   0  0  2  0  0  0  0  0  0  0  0  0
    0.8765    1.5269    0.2840 C   0  0  0  0  0  0  0  0  0  0  0  0
    1.5211    0.4971    0.0956 O   0  0  0  0  0  0  0  0  0  0  0  0
   -0.9087    2.3473    1.9214 C   0  0  2  0  0  0  0  0  0  0  0  0
   -2.4238    2.4586    2.2016 C   0  0  0  0  0  0  0  0  0  0  0  0
   -0.2479    3.7288    1.8246 C   0  0  0  0  0  0  0  0  0  0  0  0
   -2.7464    3.0292    3.5767 C   0  0  0  0  0  0  0  0  0  0  0  0
   -1.9022   -0.1128    0.2753 H   0  0  0  0  0  0  0  0  0  0  0  0
   -1.1536    1.9471   -0.2055 H   0  0  0  0  0  0  0  0  0  0  0  0
   -0.4490    1.8311    2.7748 H   0  0  0  0  0  0  0  0  0  0  0  0
   -2.8886    3.1115    1.4539 H   0  0  0  0  0  0  0  0  0  0  0  0
   -2.9032    1.4770    2.1075 H   0  0  0  0  0  0  0  0  0  0  0  0
   -0.6629    4.3011    0.9880 H   0  0  0  0  0  0  0  0  0  0  0  0
   -0.4223    4.3157    2.7316 H   0  0  0  0  0  0  0  0  0  0  0  0
    0.8340    3.6472    1.6773 H   0  0  0  0  0  0  0  0  0  0  0  0
   -2.3108    2.4237    4.3765 H   0  0  0  0  0  0  0  0  0  0  0  0
   -3.8305    3.0455    3.7300 H   0  0  0  0  0  0  0  0  0  0  0  0
   -2.3760    4.0545    3.6740 H   0  0  0  0  0  0  0  0  0  0  0  0
    1.3825    2.8134    0.1646 N   0  0  0  0  0  0  0  0  0  0  0  0
    2.7547    3.0960   -0.1901 C   0  0  2  0  0  0  0  0  0  0  0  0
    2.7949    4.4618   -0.8628 C   0  0  0  0  0  0  0  0  0  0  0  0
    1.8150    4.9740   -1.4000 O   0  0  0  0  0  0  0  0  0  0  0  0
    3.3220    2.0223   -1.1056 C   0  0  0  0  0  0  0  0  0  0  0  0
    0.7573    3.5956    0.3349 H   0  0  0  0  0  0  0  0  0  0  0  0
    3.3223    3.1326    0.7462 H   0  0  0  0  0  0  0  0  0  0  0  0
    2.7661    1.9708   -2.0488 H   0  0  0  0  0  0  0  0  0  0  0  0
    4.3703    2.2229   -1.3503 H   0  0  0  0  0  0  0  0  0  0  0  0
    3.2650    1.0363   -0.6319 H   0  0  0  0  0  0  0  0  0  0  0  0
    4.0641    5.0224   -0.8305 N   0  0  0  0  0  0  0  0  0  0  0  0
    4.3631    6.3093   -1.4139 C   0  0  0  0  0  0  0  0  0  0  0  0
    4.8131    4.5356   -0.3470 H   0  0  0  0  0  0  0  0  0  0  0  0
    4.7094    6.1717   -2.4489 H   0  0  0  0  0  0  0  0  0  0  0  0
    3.4569    6.9328   -1.4105 H   0  0  0  0  0  0  0  0  0  0  0  0
    5.1507    6.8039   -0.8266 H   0  0  0  0  0  0  0  0  0  0  0  0
  1  3  1  0  0  0  0
  1  7  1  0  0  0  0
  1  2  2  0  0  0  0
 37 38  1  0  0  0  0
 38 46  1  0  0  0  0
 38 39  2  0  0  0  0
  8  9  1  0  0  0  0
  9 17  1  0  0  0  0
  9 10  2  0  0  0  0
 18 19  1  0  0  0  0
 19 36  1  0  0  0  0
 19 20  2  0  0  0  0
 22 24  1  0  0  0  0
 37 40  1  0  0  0  0
  8 11  1  0  0  0  0
 21 23  1  0  0  0  0
 46 47  1  0  0  0  0
 21 22  1  0  0  0  0
 36 37  1  0  0  0  0
  7  8  1  0  0  0  0
 18 21  1  0  0  0  0
 17 18  1  0  0  0  0
  3  4  1  0  0  0  0
  3  5  1  0  0  0  0
  3  6  1  0  0  0  0
 24 33  1  0  0  0  0
 24 34  1  0  0  0  0
 24 35  1  0  0  0  0
 40 43  1  0  0  0  0
 40 44  1  0  0  0  0
 40 45  1  0  0  0  0
 11 14  1  0  0  0  0
 11 15  1  0  0  0  0
 11 16  1  0  0  0  0
 23 30  1  0  0  0  0
 23 31  1  0  0  0  0
 23 32  1  0  0  0  0
 47 49  1  0  0  0  0
 47 50  1  0  0  0  0
 47 51  1  0  0  0  0
 22 28  1  0  0  0  0
 22 29  1  0  0  0  0
 37 42  1  0  0  0  0
  8 13  1  0  0  0  0
 18 26  1  0  0  0  0
 21 27  1  0  0  0  0
 46 48  1  0  0  0  0
  7 12  1  0  0  0  0
 36 41  1  0  0  0  0
 17 25  1  0  0  0  0
M  END
$$$$

  -OEChem-05262214473D

 51 50  0     1  0  0  0  0  0999 V2000
    1.3524   -3.0009    1.4091 C   0  0  0  0  0  0  0  0  0  0  0  0
    1.8758   -1.9880    0.9598 O   0  0  0  0  0  0  0  0  0  0  0  0
    2.2030   -4.1782    1.7536 C   0  0  0  0  0  0  0  0  0  0  0  0
    2.3264   -4.8705    0.9053 H   0  0  0  0  0  0  0  0  0  0  0  0
    3.2257   -3.8876    2.0432 H   0  0  0  0  0  0  0  0  0  0  0  0
    1.8327   -4.8004    2.5839 H   0  0  0  0  0  0  0  0  0  0  0  0
    0.0005   -3.1873    1.6465 N   0  0  0  0  0  0  0  0  0  0  0  0
   -0.9949   -2.1807    1.3864 C   0  0  2  0  0  0  0  0  0  0  0  0
   -0.3083   -0.8216    1.4164 C   0  0  0  0  0  0  0  0  0  0  0  0
    0.7533   -0.6191    2.0022 O   0  0  0  0  0  0  0  0  0  0  0  0
   -2.1232   -2.2423    2.4042 C   0  0  0  0  0  0  0  0  0  0  0  0
   -0.3048   -4.0823    2.0245 H   0  0  0  0  0  0  0  0  0  0  0  0
   -1.3830   -2.3724    0.3801 H   0  0  0  0  0  0  0  0  0  0  0  0
   -1.7534   -2.0527    3.4185 H   0  0  0  0  0  0  0  0  0  0  0  0
   -2.8936   -1.4947    2.1882 H   0  0  0  0  0  0  0  0  0  0  0  0
   -2.5964   -3.2301    2.4022 H   0  0  0  0  0  0  0  0  0  0  0  0
   -1.0412    0.1517    0.7482 N   0  0  0  0  0  0  0  0  0  0  0  0
   -0.6079    1.5223    0.6467 C   0  0  2  0  0  0  0  0  0  0  0  0
    0.8765    1.5269    0.2840 C   0  0  0  0  0  0  0  0  0  0  0  0
    1.4578    0.5400   -0.1628 O   0  0  0  0  0  0  0  0  0  0  0  0
   -0.9087    2.3473    1.9214 C   0  0  2  0  0  0  0  0  0  0  0  0
   -2.4238    2.4586    2.2016 C   0  0  0  0  0  0  0  0  0  0  0  0
   -0.2479    3.7288    1.8246 C   0  0  0  0  0  0  0  0  0  0  0  0
   -2.7464    3.0292    3.5767 C   0  0  0  0  0  0  0  0  0  0  0  0
   -1.9022   -0.1128    0.2753 H   0  0  0  0  0  0  0  0  0  0  0  0
   -1.1536    1.9471   -0.2055 H   0  0  0  0  0  0  0  0  0  0  0  0
   -0.4490    1.8311    2.7748 H   0  0  0  0  0  0  0  0  0  0  0  0
   -2.8886    3.1115    1.4539 H   0  0  0  0  0  0  0  0  0  0  0  0
   -2.9032    1.4770    2.1075 H   0  0  0  0  0  0  0  0  0  0  0  0
   -0.6629    4.3011    0.9880 H   0  0  0  0  0  0  0  0  0  0  0  0
   -0.4223    4.3157    2.7316 H   0  0  0  0  0  0  0  0  0  0  0  0
    0.8340    3.6472    1.6773 H   0  0  0  0  0  0  0  0  0  0  0  0
   -2.3108    2.4237    4.3765 H   0  0  0  0  0  0  0  0  0  0  0  0
   -3.8305    3.0455    3.7300 H   0  0  0  0  0  0  0  0  0  0  0  0
   -2.3760    4.0545    3.6740 H   0  0  0  0  0  0  0  0  0  0  0  0
    1.4615    2.7686    0.4875 N   0  0  0  0  0  0  0  0  0  0  0  0
    2.8510    3.0466    0.2034 C   0  0  2  0  0  0  0  0  0  0  0  0
    2.9799    4.5325   -0.1046 C   0  0  0  0  0  0  0  0  0  0  0  0
    2.0373    5.2225   -0.4874 O   0  0  0  0  0  0  0  0  0  0  0  0
    3.3576    2.2049   -0.9574 C   0  0  0  0  0  0  0  0  0  0  0  0
    0.8844    3.5196    0.8543 H   0  0  0  0  0  0  0  0  0  0  0  0
    3.4131    2.8117    1.1139 H   0  0  0  0  0  0  0  0  0  0  0  0
    2.8063    2.4264   -1.8785 H   0  0  0  0  0  0  0  0  0  0  0  0
    4.4180    2.3958   -1.1529 H   0  0  0  0  0  0  0  0  0  0  0  0
    3.2367    1.1369   -0.7464 H   0  0  0  0  0  0  0  0  0  0  0  0
    4.2809    4.9880    0.0566 N   0  0  0  0  0  0  0  0  0  0  0  0
    4.6627    6.3594   -0.1871 C   0  0  0  0  0  0  0  0  0  0  0  0
    4.9952    4.3503    0.3957 H   0  0  0  0  0  0  0  0  0  0  0  0
    5.0072    6.4655   -1.2264 H   0  0  0  0  0  0  0  0  0  0  0  0
    3.7965    7.0164   -0.0192 H   0  0  0  0  0  0  0  0  0  0  0  0
    5.4751    6.6412    0.4989 H   0  0  0  0  0  0  0  0  0  0  0  0
  1  3  1  0  0  0  0
  1  7  1  0  0  0  0
  1  2  2  0  0  0  0
 37 38  1  0  0  0  0
 38 46  1  0  0  0  0
 38 39  2  0  0  0  0
  8  9  1  0  0  0  0
  9 17  1  0  0  0  0
  9 10  2  0  0  0  0
 18 19  1  0  0  0  0
 19 36  1  0  0  0  0
 19 20  2  0  0  0  0
 22 24  1  0  0  0  0
 37 40  1  0  0  0  0
  8 11  1  0  0  0  0
 21 23  1  0  0  0  0
 46 47  1  0  0  0  0
 21 22  1  0  0  0  0
 36 37  1  0  0  0  0
  7  8  1  0  0  0  0
 18 21  1  0  0  0  0
 17 18  1  0  0  0  0
  3  4  1  0  0  0  0
  3  5  1  0  0  0  0
  3  6  1  0  0  0  0
 24 33  1  0  0  0  0
 24 34  1  0  0  0  0
 24 35  1  0  0  0  0
 40 43  1  0  0  0  0
 40 44  1  0  0  0  0
 40 45  1  0  0  0  0
 11 14  1  0  0  0  0
 11 15  1  0  0  0  0
 11 16  1  0  0  0  0
 23 30  1  0  0  0  0
 23 31  1  0  0  0  0
 23 32  1  0  0  0  0
 47 49  1  0  0  0  0
 47 50  1  0  0  0  0
 47 51  1  0  0  0  0
 22 28  1  0  0  0  0
 22 29  1  0  0  0  0
 37 42  1  0  0  0  0
  8 13  1  0  0  0  0
 18 26  1  0  0  0  0
 21 27  1  0  0  0  0
 46 48  1  0  0  0  0
  7 12  1  0  0  0  0
 36 41  1  0  0  0  0
 17 25  1  0  0  0  0
M  END
$$$$

  -OEChem-05262214473D

 51 50  0     1  0  0  0  0  0999 V2000
    1.3524   -3.0009    1.4091 C   0  0  0  0  0  0  0  0  0  0  0  0
    1.8758   -1.9880    0.9598 O   0  0  0  0  0  0  0  0  0  0  0  0
    2.2030   -4.1782    1.7536 C   0  0  0  0  0  0  0  0  0  0  0  0
    2.3264   -4.8705    0.9053 H   0  0  0  0  0  0  0  0  0  0  0  0
    3.2257   -3.8876    2.0432 H   0  0  0  0  0  0  0  0  0  0  0  0
    1.8327   -4.8004    2.5839 H   0  0  0  0  0  0  0  0  0  0  0  0
    0.0005   -3.1873    1.6465 N   0  0  0  0  0  0  0  0  0  0  0  0
   -0.9949   -2.1807    1.3864 C   0  0  2  0  0  0  0  0  0  0  0  0
   -0.3083   -0.8216    1.4164 C   0  0  0  0  0  0  0  0  0  0  0  0
    0.7533   -0.6191    2.0022 O   0  0  0  0  0  0  0  0  0  0  0  0
   -2.1232   -2.2423    2.4042 C   0  0  0  0  0  0  0  0  0  0  0  0
   -0.3048   -4.0823    2.0245 H   0  0  0  0  0  0  0  0  0  0  0  0
   -1.3830   -2.3724    0.3801 H   0  0  0  0  0  0  0  0  0  0  0  0
   -1.7534   -2.0527    3.4185 H   0  0  0  0  0  0  0  0  0  0  0  0
   -2.8936   -1.4947    2.1882 H   0  0  0  0  0  0  0  0  0  0  0  0
   -2.5964   -3.2301    2.4022 H   0  0  0  0  0  0  0  0  0  0  0  0
   -1.0412    0.1517    0.7482 N   0  0  0  0  0  0  0  0  0  0  0  0
   -0.6079    1.5223    0.6467 C   0  0  2  0  0  0  0  0  0  0  0  0
    0.8765    1.5269    0.2840 C   0  0  0  0  0  0  0  0  0  0  0  0
    1.3991    0.6504   -0.4015 O   0  0  0  0  0  0  0  0  0  0  0  0
   -0.9087    2.3473    1.9214 C   0  0  2  0  0  0  0  0  0  0  0  0
   -2.4238    2.4586    2.2016 C   0  0  0  0  0  0  0  0  0  0  0  0
   -0.2479    3.7288    1.8246 C   0  0  0  0  0  0  0  0  0  0  0  0
   -2.7464    3.0292    3.5767 C   0  0  0  0  0  0  0  0  0  0  0  0
   -1.9022   -0.1128    0.2753 H   0  0  0  0  0  0  0  0  0  0  0  0
   -1.1536    1.9471   -0.2055 H   0  0  0  0  0  0  0  0  0  0  0  0
   -0.4490    1.8311    2.7748 H   0  0  0  0  0  0  0  0  0  0  0  0
   -2.8886    3.1115    1.4539 H   0  0  0  0  0  0  0  0  0  0  0  0
   -2.9032    1.4770    2.1075 H   0  0  0  0  0  0  0  0  0  0  0  0
   -0.6629    4.3011    0.9880 H   0  0  0  0  0  0  0  0  0  0  0  0
   -0.4223    4.3157    2.7316 H   0  0  0  0  0  0  0  0  0  0  0  0
    0.8340    3.6472    1.6773 H   0  0  0  0  0  0  0  0  0  0  0  0
   -2.3108    2.4237    4.3765 H   0  0  0  0  0  0  0  0  0  0  0  0
   -3.8305    3.0455    3.7300 H   0  0  0  0  0  0  0  0  0  0  0  0
   -2.3760    4.0545    3.6740 H   0  0  0  0  0  0  0  0  0  0  0  0
    1.5354    2.6393    0.7880 N   0  0  0  0  0  0  0  0  0  0  0  0
    2.9413    2.8940    0.5710 C   0  0  2  0  0  0  0  0  0  0  0  0
    3.1636    4.3988    0.6453 C   0  0  0  0  0  0  0  0  0  0  0  0
    2.2679    5.2193    0.4565 O   0  0  0  0  0  0  0  0  0  0  0  0
    3.4034    2.3418   -0.7685 C   0  0  0  0  0  0  0  0  0  0  0  0
    1.0030    3.3078    1.3369 H   0  0  0  0  0  0  0  0  0  0  0  0
    3.4814    2.4037    1.3883 H   0  0  0  0  0  0  0  0  0  0  0  0
    2.8733    2.8211   -1.5995 H   0  0  0  0  0  0  0  0  0  0  0  0
    4.4748    2.5103   -0.9188 H   0  0  0  0  0  0  0  0  0  0  0  0
    3.2155    1.2645   -0.8317 H   0  0  0  0  0  0  0  0  0  0  0  0
    4.4890    4.7185    0.9047 N   0  0  0  0  0  0  0  0  0  0  0  0
    4.9561    6.0810    1.0102 C   0  0  0  0  0  0  0  0  0  0  0  0
    5.1602    3.9734    1.0664 H   0  0  0  0  0  0  0  0  0  0  0  0
    5.3138    6.4237    0.0281 H   0  0  0  0  0  0  0  0  0  0  0  0
    4.1308    6.7265    1.3454 H   0  0  0  0  0  0  0  0  0  0  0  0
    5.7794    6.1309    1.7380 H   0  0  0  0  0  0  0  0  0  0  0  0
  1  3  1  0  0  0  0
  1  7  1  0  0  0  0
  1  2  2  0  0  0  0
 37 38  1  0  0  0  0
 38 46  1  0  0  0  0
 38 39  2  0  0  0  0
  8  9  1  0  0  0  0
  9 17  1  0  0  0  0
  9 10  2  0  0  0  0
 18 19  1  0  0  0  0
 19 36  1  0  0  0  0
 19 20  2  0  0  0  0
 22 24  1  0  0  0  0
 37 40  1  0  0  0  0
  8 11  1  0  0  0  0
 21 23  1  0  0  0  0
 46 47  1  0  0  0  0
 21 22  1  0  0  0  0
 36 37  1  0  0  0  0
  7  8  1  0  0  0  0
 18 21  1  0  0  0  0
 17 18  1  0  0  0  0
  3  4  1  0  0  0  0
  3  5  1  0  0  0  0
  3  6  1  0  0  0  0
 24 33  1  0  0  0  0
 24 34  1  0  0  0  0
 24 35  1  0  0  0  0
 40 43  1  0  0  0  0
 40 44  1  0  0  0  0
 40 45  1  0  0  0  0
 11 14  1  0  0  0  0
 11 15  1  0  0  0  0
 11 16  1  0  0  0  0
 23 30  1  0  0  0  0
 23 31  1  0  0  0  0
 23 32  1  0  0  0  0
 47 49  1  0  0  0  0
 47 50  1  0  0  0  0
 47 51  1  0  0  0  0
 22 28  1  0  0  0  0
 22 29  1  0  0  0  0
 37 42  1  0  0  0  0
  8 13  1  0  0  0  0
 18 26  1  0  0  0  0
 21 27  1  0  0  0  0
 46 48  1  0  0  0  0
  7 12  1  0  0  0  0
 36 41  1  0  0  0  0
 17 25  1  0  0  0  0
M  END
$$$$

  -OEChem-05262214473D

 51 50  0     1  0  0  0  0  0999 V2000
    1.3524   -3.0009    1.4091 C   0  0  0  0  0  0  0  0  0  0  0  0
    1.8758   -1.9880    0.9598 O   0  0  0  0  0  0  0  0  0  0  0  0
    2.2030   -4.1782    1.7536 C   0  0  0  0  0  0  0  0  0  0  0  0
    2.3264   -4.8705    0.9053 H   0  0  0  0  0  0  0  0  0  0  0  0
    3.2257   -3.8876    2.0432 H   0  0  0  0  0  0  0  0  0  0  0  0
    1.8327   -4.8004    2.5839 H   0  0  0  0  0  0  0  0  0  0  0  0
    0.0005   -3.1873    1.6465 N   0  0  0  0  0  0  0  0  0  0  0  0
   -0.9949   -2.1807    1.3864 C   0  0  2  0  0  0  0  0  0  0  0  0
   -0.3083   -0.8216    1.4164 C   0  0  0  0  0  0  0  0  0  0  0  0
    0.7533   -0.6191    2.0022 O   0  0  0  0  0  0  0  0  0  0  0  0
   -2.1232   -2.2423    2.4042 C   0  0  0  0  0  0  0  0  0  0  0  0
   -0.3048   -4.0823    2.0245 H   0  0  0  0  0  0  0  0  0  0  0  0
   -1.3830   -2.3724    0.3801 H   0  0  0  0  0  0  0  0  0  0  0  0
   -1.7534   -2.0527    3.4185 H   0  0  0  0  0  0  0  0  0  0  0  0
   -2.8936   -1.4947    2.1882 H   0  0  0  0  0  0  0  0  0  0  0  0
   -2.5964   -3.2301    2.4022 H   0  0  0  0  0  0  0  0  0  0  0  0
   -1.0412    0.1517    0.7482 N   0  0  0  0  0  0  0  0  0  0  0  0
   -0.6079    1.5223    0.6467 C   0  0  2  0  0  0  0  0  0  0  0  0
    0.8765    1.5269    0.2840 C   0  0  0  0  0  0  0  0  0  0  0  0
    1.3490    0.8206   -0.6044 O   0  0  0  0  0  0  0  0  0  0  0  0
   -0.9087    2.3473    1.9214 C   0  0  2  0  0  0  0  0  0  0  0  0
   -2.4238    2.4586    2.2016 C   0  0  0  0  0  0  0  0  0  0  0  0
   -0.2479    3.7288    1.8246 C   0  0  0  0  0  0  0  0  0  0  0  0
   -2.7464    3.0292    3.5767 C   0  0  0  0  0  0  0  0  0  0  0  0
   -1.9022   -0.1128    0.2753 H   0  0  0  0  0  0  0  0  0  0  0  0
   -1.1536    1.9471   -0.2055 H   0  0  0  0  0  0  0  0  0  0  0  0
   -0.4490    1.8311    2.7748 H   0  0  0  0  0  0  0  0  0  0  0  0
   -2.8886    3.1115    1.4539 H   0  0  0  0  0  0  0  0  0  0  0  0
   -2.9032    1.4770    2.1075 H   0  0  0  0  0  0  0  0  0  0  0  0
   -0.6629    4.3011    0.9880 H   0  0  0  0  0  0  0  0  0  0  0  0
   -0.4223    4.3157    2.7316 H   0  0  0  0  0  0  0  0  0  0  0  0
    0.8340    3.6472    1.6773 H   0  0  0  0  0  0  0  0  0  0  0  0
   -2.3108    2.4237    4.3765 H   0  0  0  0  0  0  0  0  0  0  0  0
   -3.8305    3.0455    3.7300 H   0  0  0  0  0  0  0  0  0  0  0  0
   -2.3760    4.0545    3.6740 H   0  0  0  0  0  0  0  0  0  0  0  0
    1.5990    2.4342    1.0458 N   0  0  0  0  0  0  0  0  0  0  0  0
    3.0194    2.6486    0.8877 C   0  0  2  0  0  0  0  0  0  0  0  0
    3.3333    4.0699    1.3360 C   0  0  0  0  0  0  0  0  0  0  0  0
    2.4912    4.9648    1.3672 O   0  0  0  0  0  0  0  0  0  0  0  0
    3.4561    2.4237   -0.5516 C   0  0  0  0  0  0  0  0  0  0  0  0
    1.1049    2.9747    1.7497 H   0  0  0  0  0  0  0  0  0  0  0  0
    3.5225    1.9364    1.5507 H   0  0  0  0  0  0  0  0  0  0  0  0
    2.9624    3.1282   -1.2308 H   0  0  0  0  0  0  0  0  0  0  0  0
    4.5369    2.5586   -0.6640 H   0  0  0  0  0  0  0  0  0  0  0  0
    3.2027    1.4105   -0.8819 H   0  0  0  0  0  0  0  0  0  0  0  0
    4.6740    4.2321    1.6559 N   0  0  0  0  0  0  0  0  0  0  0  0
    5.2233    5.4931    2.0966 C   0  0  0  0  0  0  0  0  0  0  0  0
    5.2970    3.4306    1.6193 H   0  0  0  0  0  0  0  0  0  0  0  0
    5.6084    6.0491    1.2291 H   0  0  0  0  0  0  0  0  0  0  0  0
    4.4370    6.0829    2.5903 H   0  0  0  0  0  0  0  0  0  0  0  0
    6.0430    5.3077    2.8064 H   0  0  0  0  0  0  0  0  0  0  0  0
  1  3  1  0  0  0  0
  1  7  1  0  0  0  0
  1  2  2  0  0  0  0
 37 38  1  0  0  0  0
 38 46  1  0  0  0  0
 38 39  2  0  0  0  0
  8  9  1  0  0  0  0
  9 17  1  0  0  0  0
  9 10  2  0  0  0  0
 18 19  1  0  0  0  0
 19 36  1  0  0  0  0
 19 20  2  0  0  0  0
 22 24  1  0  0  0  0
 37 40  1  0  0  0  0
  8 11  1  0  0  0  0
 21 23  1  0  0  0  0
 46 47  1  0  0  0  0
 21 22  1  0  0  0  0
 36 37  1  0  0  0  0
  7  8  1  0  0  0  0
 18 21  1  0  0  0  0
 17 18  1  0  0  0  0
  3  4  1  0  0  0  0
  3  5  1  0  0  0  0
  3  6  1  0  0  0  0
 24 33  1  0  0  0  0
 24 34  1  0  0  0  0
 24 35  1  0  0  0  0
 40 43  1  0  0  0  0
 40 44  1  0  0  0  0
 40 45  1  0  0  0  0
 11 14  1  0  0  0  0
 11 15  1  0  0  0  0
 11 16  1  0  0  0  0
 23 30  1  0  0  0  0
 23 31  1  0  0  0  0
 23 32  1  0  0  0  0
 47 49  1  0  0  0  0
 47 50  1  0  0  0  0
 47 51  1  0  0  0  0
 22 28  1  0  0  0  0
 22 29  1  0  0  0  0
 37 42  1  0  0  0  0
  8 13  1  0  0  0  0
 18 26  1  0  0  0  0
 21 27  1  0  0  0  0
 46 48  1  0  0  0  0
  7 12  1  0  0  0  0
 36 41  1  0  0  0  0
 17 25  1  0  0  0  0
M  END
$$$$

  -OEChem-05262214473D

 51 50  0     1  0  0  0  0  0999 V2000
    1.3524   -3.0009    1.4091 C   0  0  0  0  0  0  0  0  0  0  0  0
    1.8758   -1.9880    0.9598 O   0  0  0  0  0  0  0  0  0  0  0  0
    2.2030   -4.1782    1.7536 C   0  0  0  0  0  0  0  0  0  0  0  0
    2.3264   -4.8705    0.9053 H   0  0  0  0  0  0  0  0  0  0  0  0
    3.2257   -3.8876    2.0432 H   0  0  0  0  0  0  0  0  0  0  0  0
    1.8327   -4.8004    2.5839 H   0  0  0  0  0  0  0  0  0  0  0  0
    0.0005   -3.1873    1.6465 N   0  0  0  0  0  0  0  0  0  0  0  0
   -0.9949   -2.1807    1.3864 C   0  0  2  0  0  0  0  0  0  0  0  0
   -0.3083   -0.8216    1.4164 C   0  0  0  0  0  0  0  0  0  0  0  0
    0.7533   -0.6191    2.0022 O   0  0  0  0  0  0  0  0  0  0  0  0
   -2.1232   -2.2423    2.4042 C   0  0  0  0  0  0  0  0  0  0  0  0
   -0.3048   -4.0823    2.0245 H   0  0  0  0  0  0  0  0  0  0  0  0
   -1.3830   -2.3724    0.3801 H   0  0  0  0  0  0  0  0  0  0  0  0
   -1.7534   -2.0527    3.4185 H   0  0  0  0  0  0  0  0  0  0  0  0
   -2.8936   -1.4947    2.1882 H   0  0  0  0  0  0  0  0  0  0  0  0
   -2.5964   -3.2301    2.4022 H   0  0  0  0  0  0  0  0  0  0  0  0
   -1.0412    0.1517    0.7482 N   0  0  0  0  0  0  0  0  0  0  0  0
   -0.6079    1.5223    0.6467 C   0  0  2  0  0  0  0  0  0  0  0  0
    0.8765    1.5269    0.2840 C   0  0  0  0  0  0  0  0  0  0  0  0
    1.3110    1.0390   -0.7575 O   0  0  0  0  0  0  0  0  0  0  0  0
   -0.9087    2.3473    1.9214 C   0  0  2  0  0  0  0  0  0  0  0  0
   -2.4238    2.4586    2.2016 C   0  0  0  0  0  0  0  0  0  0  0  0
   -0.2479    3.7288    1.8246 C   0  0  0  0  0  0  0  0  0  0  0  0
   -2.7464    3.0292    3.5767 C   0  0  0  0  0  0  0  0  0  0  0  0
   -1.9022   -0.1128    0.2753 H   0  0  0  0  0  0  0  0  0  0  0  0
   -1.1536    1.9471   -0.2055 H   0  0  0  0  0  0  0  0  0  0  0  0
   -0.4490    1.8311    2.7748 H   0  0  0  0  0  0  0  0  0  0  0  0
   -2.8886    3.1115    1.4539 H   0  0  0  0  0  0  0  0  0  0  0  0
   -2.9032    1.4770    2.1075 H   0  0  0  0  0  0  0  0  0  0  0  0
   -0.6629    4.3011    0.9880 H   0  0  0  0  0  0  0  0  0  0  0  0
   -0.4223    4.3157    2.7316 H   0  0  0  0  0  0  0  0  0  0  0  0
    0.8340    3.6472    1.6773 H   0  0  0  0  0  0  0  0  0  0  0  0
   -2.3108    2.4237    4.3765 H   0  0  0  0  0  0  0  0  0  0  0  0
   -3.8305    3.0455    3.7300 H   0  0  0  0  0  0  0  0  0  0  0  0
   -2.3760    4.0545    3.6740 H   0  0  0  0  0  0  0  0  0  0  0  0
    1.6480    2.1675    1.2432 N   0  0  0  0  0  0  0  0  0  0  0  0
    3.0800    2.3272    1.1318 C   0  0  2  0  0  0  0  0  0  0  0  0
    3.4776    3.5680    1.9202 C   0  0  0  0  0  0  0  0  0  0  0  0
    2.6919    4.4763    2.1827 O   0  0  0  0  0  0  0  0  0  0  0  0
    3.5123    2.4450   -0.3215 C   0  0  0  0  0  0  0  0  0  0  0  0
    1.1831    2.5428    2.0645 H   0  0  0  0  0  0  0  0  0  0  0  0
    3.5337    1.4416    1.5901 H   0  0  0  0  0  0  0  0  0  0  0  0
    3.0676    3.3266   -0.7976 H   0  0  0  0  0  0  0  0  0  0  0  0
    4.6001    2.5373   -0.4057 H   0  0  0  0  0  0  0  0  0  0  0  0
    3.1994    1.5650   -0.8938 H   0  0  0  0  0  0  0  0  0  0  0  0
    4.8235    3.5621    2.2591 N   0  0  0  0  0  0  0  0  0  0  0  0
    5.4462    4.6356    2.9979 C   0  0  0  0  0  0  0  0  0  0  0  0
    5.3962    2.7589    2.0168 H   0  0  0  0  0  0  0  0  0  0  0  0
    5.8709    5.3671    2.2947 H   0  0  0  0  0  0  0  0  0  0  0  0
    4.6942    5.1294    3.6308 H   0  0  0  0  0  0  0  0  0  0  0  0
    6.2478    4.2278    3.6312 H   0  0  0  0  0  0  0  0  0  0  0  0
  1  3  1  0  0  0  0
  1  7  1  0  0  0  0
  1  2  2  0  0  0  0
 37 38  1  0  0  0  0
 38 46  1  0  0  0  0
 38 39  2  0  0  0  0
  8  9  1  0  0  0  0
  9 17  1  0  0  0  0
  9 10  2  0  0  0  0
 18 19  1  0  0  0  0
 19 36  1  0  0  0  0
 19 20  2  0  0  0  0
 22 24  1  0  0  0  0
 37 40  1  0  0  0  0
  8 11  1  0  0  0  0
 21 23  1  0  0  0  0
 46 47  1  0  0  0  0
 21 22  1  0  0  0  0
 36 37  1  0  0  0  0
  7  8  1  0  0  0  0
 18 21  1  0  0  0  0
 17 18  1  0  0  0  0
  3  4  1  0  0  0  0
  3  5  1  0  0  0  0
  3  6  1  0  0  0  0
 24 33  1  0  0  0  0
 24 34  1  0  0  0  0
 24 35  1  0  0  0  0
 40 43  1  0  0  0  0
 40 44  1  0  0  0  0
 40 45  1  0  0  0  0
 11 14  1  0  0  0  0
 11 15  1  0  0  0  0
 11 16  1  0  0  0  0
 23 30  1  0  0  0  0
 23 31  1  0  0  0  0
 23 32  1  0  0  0  0
 47 49  1  0  0  0  0
 47 50  1  0  0  0  0
 47 51  1  0  0  0  0
 22 28  1  0  0  0  0
 22 29  1  0  0  0  0
 37 42  1  0  0  0  0
  8 13  1  0  0  0  0
 18 26  1  0  0  0  0
 21 27  1  0  0  0  0
 46 48  1  0  0  0  0
  7 12  1  0  0  0  0
 36 41  1  0  0  0  0
 17 25  1  0  0  0  0
M  END
$$$$

  -OEChem-05262214473D

 51 50  0     1  0  0  0  0  0999 V2000
    1.3524   -3.0009    1.4091 C   0  0  0  0  0  0  0  0  0  0  0  0
    1.8758   -1.9880    0.9598 O   0  0  0  0  0  0  0  0  0  0  0  0
    2.2030   -4.1782    1.7536 C   0  0  0  0  0  0  0  0  0  0  0  0
    2.3264   -4.8705    0.9053 H   0  0  0  0  0  0  0  0  0  0  0  0
    3.2257   -3.8876    2.0432 H   0  0  0  0  0  0  0  0  0  0  0  0
    1.8327   -4.8004    2.5839 H   0  0  0  0  0  0  0  0  0  0  0  0
    0.0005   -3.1873    1.6465 N   0  0  0  0  0  0  0  0  0  0  0  0
   -0.9949   -2.1807    1.3864 C   0  0  2  0  0  0  0  0  0  0  0  0
   -0.3083   -0.8216    1.4164 C   0  0  0  0  0  0  0  0  0  0  0  0
    0.7533   -0.6191    2.0022 O   0  0  0  0  0  0  0  0  0  0  0  0
   -2.1232   -2.2423    2.4042 C   0  0  0  0  0  0  0  0  0  0  0  0
   -0.3048   -4.0823    2.0245 H   0  0  0  0  0  0  0  0  0  0  0  0
   -1.3830   -2.3724    0.3801 H   0  0  0  0  0  0  0  0  0  0  0  0
   -1.7534   -2.0527    3.4185 H   0  0  0  0  0  0  0  0  0  0  0  0
   -2.8936   -1.4947    2.1882 H   0  0  0  0  0  0  0  0  0  0  0  0
   -2.5964   -3.2301    2.4022 H   0  0  0  0  0  0  0  0  0  0  0  0
   -1.0412    0.1517    0.7482 N   0  0  0  0  0  0  0  0  0  0  0  0
   -0.6079    1.5223    0.6467 C   0  0  2  0  0  0  0  0  0  0  0  0
    0.8765    1.5269    0.2840 C   0  0  0  0  0  0  0  0  0  0  0  0
    1.2875    1.2909   -0.8504 O   0  0  0  0  0  0  0  0  0  0  0  0
   -0.9087    2.3473    1.9214 C   0  0  2  0  0  0  0  0  0  0  0  0
   -2.4238    2.4586    2.2016 C   0  0  0  0  0  0  0  0  0  0  0  0
   -0.2479    3.7288    1.8246 C   0  0  0  0  0  0  0  0  0  0  0  0
   -2.7464    3.0292    3.5767 C   0  0  0  0  0  0  0  0  0  0  0  0
   -1.9022   -0.1128    0.2753 H   0  0  0  0  0  0  0  0  0  0  0  0
   -1.1536    1.9471   -0.2055 H   0  0  0  0  0  0  0  0  0  0  0  0
   -0.4490    1.8311    2.7748 H   0  0  0  0  0  0  0  0  0  0  0  0
   -2.8886    3.1115    1.4539 H   0  0  0  0  0  0  0  0  0  0  0  0
   -2.9032    1.4770    2.1075 H   0  0  0  0  0  0  0  0  0  0  0  0
   -0.6629    4.3011    0.9880 H   0  0  0  0  0  0  0  0  0  0  0  0
   -0.4223    4.3157    2.7316 H   0  0  0  0  0  0  0  0  0  0  0  0
    0.8340    3.6472    1.6773 H   0  0  0  0  0  0  0  0  0  0  0  0
   -2.3108    2.4237    4.3765 H   0  0  0  0  0  0  0  0  0  0  0  0
   -3.8305    3.0455    3.7300 H   0  0  0  0  0  0  0  0  0  0  0  0
   -2.3760    4.0545    3.6740 H   0  0  0  0  0  0  0  0  0  0  0  0
    1.6792    1.8571    1.3667 N   0  0  0  0  0  0  0  0  0  0  0  0
    3.1191    1.9516    1.2867 C   0  0  2  0  0  0  0  0  0  0  0  0
    3.5866    2.9276    2.3583 C   0  0  0  0  0  0  0  0  0  0  0  0
    2.8565    3.7870    2.8475 O   0  0  0  0  0  0  0  0  0  0  0  0
    3.5680    2.4044   -0.0940 C   0  0  0  0  0  0  0  0  0  0  0  0
    1.2324    2.0417    2.2600 H   0  0  0  0  0  0  0  0  0  0  0  0
    3.5141    0.9532    1.5038 H   0  0  0  0  0  0  0  0  0  0  0  0
    3.1818    3.4029   -0.3292 H   0  0  0  0  0  0  0  0  0  0  0  0
    4.6600    2.4479   -0.1617 H   0  0  0  0  0  0  0  0  0  0  0  0
    3.2056    1.7174   -0.8664 H   0  0  0  0  0  0  0  0  0  0  0  0
    4.9271    2.7540    2.6731 N   0  0  0  0  0  0  0  0  0  0  0  0
    5.6095    3.5670    3.6527 C   0  0  0  0  0  0  0  0  0  0  0  0
    5.4510    2.0040    2.2318 H   0  0  0  0  0  0  0  0  0  0  0  0
    6.0833    4.4244    3.1524 H   0  0  0  0  0  0  0  0  0  0  0  0
    4.8848    3.9309    4.3959 H   0  0  0  0  0  0  0  0  0  0  0  0
    6.3800    2.9647    4.1562 H   0  0  0  0  0  0  0  0  0  0  0  0
  1  3  1  0  0  0  0
  1  7  1  0  0  0  0
  1  2  2  0  0  0  0
 37 38  1  0  0  0  0
 38 46  1  0  0  0  0
 38 39  2  0  0  0  0
  8  9  1  0  0  0  0
  9 17  1  0  0  0  0
  9 10  2  0  0  0  0
 18 19  1  0  0  0  0
 19 36  1  0  0  0  0
 19 20  2  0  0  0  0
 22 24  1  0  0  0  0
 37 40  1  0  0  0  0
  8 11  1  0  0  0  0
 21 23  1  0  0  0  0
 46 47  1  0  0  0  0
 21 22  1  0  0  0  0
 36 37  1  0  0  0  0
  7  8  1  0  0  0  0
 18 21  1  0  0  0  0
 17 18  1  0  0  0  0
  3  4  1  0  0  0  0
  3  5  1  0  0  0  0
  3  6  1  0  0  0  0
 24 33  1  0  0  0  0
 24 34  1  0  0  0  0
 24 35  1  0  0  0  0
 40 43  1  0  0  0  0
 40 44  1  0  0  0  0
 40 45  1  0  0  0  0
 11 14  1  0  0  0  0
 11 15  1  0  0  0  0
 11 16  1  0  0  0  0
 23 30  1  0  0  0  0
 23 31  1  0  0  0  0
 23 32  1  0  0  0  0
 47 49  1  0  0  0  0
 47 50  1  0  0  0  0
 47 51  1  0  0  0  0
 22 28  1  0  0  0  0
 22 29  1  0  0  0  0
 37 42  1  0  0  0  0
  8 13  1  0  0  0  0
 18 26  1  0  0  0  0
 21 27  1  0  0  0  0
 46 48  1  0  0  0  0
  7 12  1  0  0  0  0
 36 41  1  0  0  0  0
 17 25  1  0  0  0  0
M  END
$$$$

  -OEChem-05262214473D

 51 50  0     1  0  0  0  0  0999 V2000
    1.3524   -3.0009    1.4091 C   0  0  0  0  0  0  0  0  0  0  0  0
    1.8758   -1.9880    0.9598 O   0  0  0  0  0  0  0  0  0  0  0  0
    2.2030   -4.1782    1.7536 C   0  0  0  0  0  0  0  0  0  0  0  0
    2.3264   -4.8705    0.9053 H   0  0  0  0  0  0  0  0  0  0  0  0
    3.2257   -3.8876    2.0432 H   0  0  0  0  0  0  0  0  0  0  0  0
    1.8327   -4.8004    2.5839 H   0  0  0  0  0  0  0  0  0  0  0  0
    0.0005   -3.1873    1.6465 N   0  0  0  0  0  0  0  0  0  0  0  0
   -0.9949   -2.1807    1.3864 C   0  0  2  0  0  0  0  0  0  0  0  0
   -0.3083   -0.8216    1.4164 C   0  0  0  0  0  0  0  0  0  0  0  0
    0.7533   -0.6191    2.0022 O   0  0  0  0  0  0  0  0  0  0  0  0
   -2.1232   -2.2423    2.4042 C   0  0  0  0  0  0  0  0  0  0  0  0
   -0.3048   -4.0823    2.0245 H   0  0  0  0  0  0  0  0  0  0  0  0
   -1.3830   -2.3724    0.3801 H   0  0  0  0  0  0  0  0  0  0  0  0
   -1.7534   -2.0527    3.4185 H   0  0  0  0  0  0  0  0  0  0  0  0
   -2.8936   -1.4947    2.1882 H   0  0  0  0  0  0  0  0  0  0  0  0
   -2.5964   -3.2301    2.4022 H   0  0  0  0  0  0  0  0  0  0  0  0
   -1.0412    0.1517    0.7482 N   0  0  0  0  0  0  0  0  0  0  0  0
   -0.6079    1.5223    0.6467 C   0  0  2  0  0  0  0  0  0  0  0  0
    0.8765    1.5269    0.2840 C   0  0  0  0  0  0  0  0  0  0  0  0
    1.2802    1.5590   -0.8768 O   0  0  0  0  0  0  0  0  0  0  0  0
   -0.9087    2.3473    1.9214 C   0  0  2  0  0  0  0  0  0  0  0  0
   -2.4238    2.4586    2.2016 C   0  0  0  0  0  0  0  0  0  0  0  0
   -0.2479    3.7288    1.8246 C   0  0  0  0  0  0  0  0  0  0  0  0
   -2.7464    3.0292    3.5767 C   0  0  0  0  0  0  0  0  0  0  0  0
   -1.9022   -0.1128    0.2753 H   0  0  0  0  0  0  0  0  0  0  0  0
   -1.1536    1.9471   -0.2055 H   0  0  0  0  0  0  0  0  0  0  0  0
   -0.4490    1.8311    2.7748 H   0  0  0  0  0  0  0  0  0  0  0  0
   -2.8886    3.1115    1.4539 H   0  0  0  0  0  0  0  0  0  0  0  0
   -2.9032    1.4770    2.1075 H   0  0  0  0  0  0  0  0  0  0  0  0
   -0.6629    4.3011    0.9880 H   0  0  0  0  0  0  0  0  0  0  0  0
   -0.4223    4.3157    2.7316 H   0  0  0  0  0  0  0  0  0  0  0  0
    0.8340    3.6472    1.6773 H   0  0  0  0  0  0  0  0  0  0  0  0
   -2.3108    2.4237    4.3765 H   0  0  0  0  0  0  0  0  0  0  0  0
   -3.8305    3.0455    3.7300 H   0  0  0  0  0  0  0  0  0  0  0  0
   -2.3760    4.0545    3.6740 H   0  0  0  0  0  0  0  0  0  0  0  0
    1.6903    1.5244    1.4080 N   0  0  0  0  0  0  0  0  0  0  0  0
    3.1338    1.5475    1.3418 C   0  0  2  0  0  0  0  0  0  0  0  0
    3.6529    2.1920    2.6203 C   0  0  0  0  0  0  0  0  0  0  0  0
    2.9736    2.9440    3.3161 O   0  0  0  0  0  0  0  0  0  0  0  0
    3.6195    2.3044    0.1155 C   0  0  0  0  0  0  0  0  0  0  0  0
    1.2494    1.5055    2.3228 H   0  0  0  0  0  0  0  0  0  0  0  0
    3.4651    0.5043    1.2975 H   0  0  0  0  0  0  0  0  0  0  0  0
    3.2972    3.3518    0.1422 H   0  0  0  0  0  0  0  0  0  0  0  0
    4.7126    2.2966    0.0516 H   0  0  0  0  0  0  0  0  0  0  0  0
    3.2210    1.8573   -0.8016 H   0  0  0  0  0  0  0  0  0  0  0  0
    4.9779    1.8631    2.8699 N   0  0  0  0  0  0  0  0  0  0  0  0
    5.7021    2.3602    4.0164 C   0  0  0  0  0  0  0  0  0  0  0  0
    5.4578    1.2174    2.2497 H   0  0  0  0  0  0  0  0  0  0  0  0
    6.2313    3.2851    3.7436 H   0  0  0  0  0  0  0  0  0  0  0  0
    4.9959    2.5693    4.8335 H   0  0  0  0  0  0  0  0  0  0  0  0
    6.4305    1.6045    4.3457 H   0  0  0  0  0  0  0  0  0  0  0  0
  1  3  1  0  0  0  0
  1  7  1  0  0  0  0
  1  2  2  0  0  0  0
 37 38  1  0  0  0  0
 38 46  1  0  0  0  0
 38 39  2  0  0  0  0
  8  9  1  0  0  0  0
  9 17  1  0  0  0  0
  9 10  2  0  0  0  0
 18 19  1  0  0  0  0
 19 36  1  0  0  0  0
 19 20  2  0  0  0  0
 22 24  1  0  0  0  0
 37 40  1  0  0  0  0
  8 11  1  0  0  0  0
 21 23  1  0  0  0  0
 46 47  1  0  0  0  0
 21 22  1  0  0  0  0
 36 37  1  0  0  0  0
  7  8  1  0  0  0  0
 18 21  1  0  0  0  0
 17 18  1  0  0  0  0
  3  4  1  0  0  0  0
  3  5  1  0  0  0  0
  3  6  1  0  0  0  0
 24 33  1  0  0  0  0
 24 34  1  0  0  0  0
 24 35  1  0  0  0  0
 40 43  1  0  0  0  0
 40 44  1  0  0  0  0
 40 45  1  0  0  0  0
 11 14  1  0  0  0  0
 11 15  1  0  0  0  0
 11 16  1  0  0  0  0
 23 30  1  0  0  0  0
 23 31  1  0  0  0  0
 23 32  1  0  0  0  0
 47 49  1  0  0  0  0
 47 50  1  0  0  0  0
 47 51  1  0  0  0  0
 22 28  1  0  0  0  0
 22 29  1  0  0  0  0
 37 42  1  0  0  0  0
  8 13  1  0  0  0  0
 18 26  1  0  0  0  0
 21 27  1  0  0  0  0
 46 48  1  0  0  0  0
  7 12  1  0  0  0  0
 36 41  1  0  0  0  0
 17 25  1  0  0  0  0
M  END
$$$$

  -OEChem-05262214473D

 51 50  0     1  0  0  0  0  0999 V2000
    1.3524   -3.0009    1.4091 C   0  0  0  0  0  0  0  0  0  0  0  0
    1.8758   -1.9880    0.9598 O   0  0  0  0  0  0  0  0  0  0  0  0
    2.2030   -4.1782    1.7536 C   0  0  0  0  0  0  0  0  0  0  0  0
    2.3264   -4.8705    0.9053 H   0  0  0  0  0  0  0  0  0  0  0  0
    3.2257   -3.8876    2.0432 H   0  0  0  0  0  0  0  0  0  0  0  0
    1.8327   -4.8004    2.5839 H   0  0  0  0  0  0  0  0  0  0  0  0
    0.0005   -3.1873    1.6465 N   0  0  0  0  0  0  0  0  0  0  0  0
   -0.9949   -2.1807    1.3864 C   0  0  2  0  0  0  0  0  0  0  0  0
   -0.3083   -0.8216    1.4164 C   0  0  0  0  0  0  0  0  0  0  0  0
    0.7533   -0.6191    2.0022 O   0  0  0  0  0  0  0  0  0  0  0  0
   -2.1232   -2.2423    2.4042 C   0  0  0  0  0  0  0  0  0  0  0  0
   -0.3048   -4.0823    2.0245 H   0  0  0  0  0  0  0  0  0  0  0  0
   -1.3830   -2.3724    0.3801 H   0  0  0  0  0  0  0  0  0  0  0  0
   -1.7534   -2.0527    3.4185 H   0  0  0  0  0  0  0  0  0  0  0  0
   -2.8936   -1.4947    2.1882 H   0  0  0  0  0  0  0  0  0  0  0  0
   -2.5964   -3.2301    2.4022 H   0  0  0  0  0  0  0  0  0  0  0  0
   -1.0412    0.1517    0.7482 N   0  0  0  0  0  0  0  0  0  0  0  0
   -0.6079    1.5223    0.6467 C   0  0  2  0  0  0  0  0  0  0  0  0
    0.8765    1.5269    0.2840 C   0  0  0  0  0  0  0  0  0  0  0  0
    1.2896    1.8250   -0.8349 O   0  0  0  0  0  0  0  0  0  0  0  0
   -0.9087    2.3473    1.9214 C   0  0  2  0  0  0  0  0  0  0  0  0
   -2.4238    2.4586    2.2016 C   0  0  0  0  0  0  0  0  0  0  0  0
   -0.2479    3.7288    1.8246 C   0  0  0  0  0  0  0  0  0  0  0  0
   -2.7464    3.0292    3.5767 C   0  0  0  0  0  0  0  0  0  0  0  0
   -1.9022   -0.1128    0.2753 H   0  0  0  0  0  0  0  0  0  0  0  0
   -1.1536    1.9471   -0.2055 H   0  0  0  0  0  0  0  0  0  0  0  0
   -0.4490    1.8311    2.7748 H   0  0  0  0  0  0  0  0  0  0  0  0
   -2.8886    3.1115    1.4539 H   0  0  0  0  0  0  0  0  0  0  0  0
   -2.9032    1.4770    2.1075 H   0  0  0  0  0  0  0  0  0  0  0  0
   -0.6629    4.3011    0.9880 H   0  0  0  0  0  0  0  0  0  0  0  0
   -0.4223    4.3157    2.7316 H   0  0  0  0  0  0  0  0  0  0  0  0
    0.8340    3.6472    1.6773 H   0  0  0  0  0  0  0  0  0  0  0  0
   -2.3108    2.4237    4.3765 H   0  0  0  0  0  0  0  0  0  0  0  0
   -3.8305    3.0455    3.7300 H   0  0  0  0  0  0  0  0  0  0  0  0
   -2.3760    4.0545    3.6740 H   0  0  0  0  0  0  0  0  0  0  0  0
    1.6806    1.1920    1.3642 N   0  0  0  0  0  0  0  0  0  0  0  0
    3.1232    1.1424    1.2935 C   0  0  2  0  0  0  0  0  0  0  0  0
    3.6720    1.4116    2.6885 C   0  0  0  0  0  0  0  0  0  0  0  0
    3.0353    2.0047    3.5568 O   0  0  0  0  0  0  0  0  0  0  0  0
    3.6632    2.1521    0.2927 C   0  0  0  0  0  0  0  0  0  0  0  0
    1.2330    0.9707    2.2487 H   0  0  0  0  0  0  0  0  0  0  0  0
    3.3900    0.1255    0.9855 H   0  0  0  0  0  0  0  0  0  0  0  0
    3.4058    3.1768    0.5846 H   0  0  0  0  0  0  0  0  0  0  0  0
    4.7542    2.0935    0.2194 H   0  0  0  0  0  0  0  0  0  0  0  0
    3.2445    1.9753   -0.7038 H   0  0  0  0  0  0  0  0  0  0  0  0
    4.9724    0.9499    2.8358 N   0  0  0  0  0  0  0  0  0  0  0  0
    5.7176    1.0973    4.0642 C   0  0  0  0  0  0  0  0  0  0  0  0
    5.4160    0.4527    2.0691 H   0  0  0  0  0  0  0  0  0  0  0  0
    6.3047    2.0269    4.0282 H   0  0  0  0  0  0  0  0  0  0  0  0
    5.0199    1.1372    4.9137 H   0  0  0  0  0  0  0  0  0  0  0  0
    6.3958    0.2400    4.1867 H   0  0  0  0  0  0  0  0  0  0  0  0
  1  3  1  0  0  0  0
  1  7  1  0  0  0  0
  1  2  2  0  0  0  0
 37 38  1  0  0  0  0
 38 46  1  0  0  0  0
 38 39  2  0  0  0  0
  8  9  1  0  0  0  0
  9 17  1  0  0  0  0
  9 10  2  0  0  0  0
 18 19  1  0  0  0  0
 19 36  1  0  0  0  0
 19 20  2  0  0  0  0
 22 24  1  0  0  0  0
 37 40  1  0  0  0  0
  8 11  1  0  0  0  0
 21 23  1  0  0  0  0
 46 47  1  0  0  0  0
 21 22  1  0  0  0  0
 36 37  1  0  0  0  0
  7  8  1  0  0  0  0
 18 21  1  0  0  0  0
 17 18  1  0  0  0  0
  3  4  1  0  0  0  0
  3  5  1  0  0  0  0
  3  6  1  0  0  0  0
 24 33  1  0  0  0  0
 24 34  1  0  0  0  0
 24 35  1  0  0  0  0
 40 43  1  0  0  0  0
 40 44  1  0  0  0  0
 40 45  1  0  0  0  0
 11 14  1  0  0  0  0
 11 15  1  0  0  0  0
 11 16  1  0  0  0  0
 23 30  1  0  0  0  0
 23 31  1  0  0  0  0
 23 32  1  0  0  0  0
 47 49  1  0  0  0  0
 47 50  1  0  0  0  0
 47 51  1  0  0  0  0
 22 28  1  0  0  0  0
 22 29  1  0  0  0  0
 37 42  1  0  0  0  0
  8 13  1  0  0  0  0
 18 26  1  0  0  0  0
 21 27  1  0  0  0  0
 46 48  1  0  0  0  0
  7 12  1  0  0  0  0
 36 41  1  0  0  0  0
 17 25  1  0  0  0  0
M  END
$$$$

  -OEChem-05262214473D

 51 50  0     1  0  0  0  0  0999 V2000
    1.3524   -3.0009    1.4091 C   0  0  0  0  0  0  0  0  0  0  0  0
    1.8758   -1.9880    0.9598 O   0  0  0  0  0  0  0  0  0  0  0  0
    2.2030   -4.1782    1.7536 C   0  0  0  0  0  0  0  0  0  0  0  0
    2.3264   -4.8705    0.9053 H   0  0  0  0  0  0  0  0  0  0  0  0
    3.2257   -3.8876    2.0432 H   0  0  0  0  0  0  0  0  0  0  0  0
    1.8327   -4.8004    2.5839 H   0  0  0  0  0  0  0  0  0  0  0  0
    0.0005   -3.1873    1.6465 N   0  0  0  0  0  0  0  0  0  0  0  0
   -0.9949   -2.1807    1.3864 C   0  0  2  0  0  0  0  0  0  0  0  0
   -0.3083   -0.8216    1.4164 C   0  0  0  0  0  0  0  0  0  0  0  0
    0.7533   -0.6191    2.0022 O   0  0  0  0  0  0  0  0  0  0  0  0
   -2.1232   -2.2423    2.4042 C   0  0  0  0  0  0  0  0  0  0  0  0
   -0.3048   -4.0823    2.0245 H   0  0  0  0  0  0  0  0  0  0  0  0
   -1.3830   -2.3724    0.3801 H   0  0  0  0  0  0  0  0  0  0  0  0
   -1.7534   -2.0527    3.4185 H   0  0  0  0  0  0  0  0  0  0  0  0
   -2.8936   -1.4947    2.1882 H   0  0  0  0  0  0  0  0  0  0  0  0
   -2.5964   -3.2301    2.4022 H   0  0  0  0  0  0  0  0  0  0  0  0
   -1.0412    0.1517    0.7482 N   0  0  0  0  0  0  0  0  0  0  0  0
   -0.6079    1.5223    0.6467 C   0  0  2  0  0  0  0  0  0  0  0  0
    0.8765    1.5269    0.2840 C   0  0  0  0  0  0  0  0  0  0  0  0
    1.3151    2.0708   -0.7275 O   0  0  0  0  0  0  0  0  0  0  0  0
   -0.9087    2.3473    1.9214 C   0  0  2  0  0  0  0  0  0  0  0  0
   -2.4238    2.4586    2.2016 C   0  0  0  0  0  0  0  0  0  0  0  0
   -0.2479    3.7288    1.8246 C   0  0  0  0  0  0  0  0  0  0  0  0
   -2.7464    3.0292    3.5767 C   0  0  0  0  0  0  0  0  0  0  0  0
   -1.9022   -0.1128    0.2753 H   0  0  0  0  0  0  0  0  0  0  0  0
   -1.1536    1.9471   -0.2055 H   0  0  0  0  0  0  0  0  0  0  0  0
   -0.4490    1.8311    2.7748 H   0  0  0  0  0  0  0  0  0  0  0  0
   -2.8886    3.1115    1.4539 H   0  0  0  0  0  0  0  0  0  0  0  0
   -2.9032    1.4770    2.1075 H   0  0  0  0  0  0  0  0  0  0  0  0
   -0.6629    4.3011    0.9880 H   0  0  0  0  0  0  0  0  0  0  0  0
   -0.4223    4.3157    2.7316 H   0  0  0  0  0  0  0  0  0  0  0  0
    0.8340    3.6472    1.6773 H   0  0  0  0  0  0  0  0  0  0  0  0
   -2.3108    2.4237    4.3765 H   0  0  0  0  0  0  0  0  0  0  0  0
   -3.8305    3.0455    3.7300 H   0  0  0  0  0  0  0  0  0  0  0  0
   -2.3760    4.0545    3.6740 H   0  0  0  0  0  0  0  0  0  0  0  0
    1.6508    0.8825    1.2383 N   0  0  0  0  0  0  0  0  0  0  0  0
    3.0881    0.7638    1.1450 C   0  0  2  0  0  0  0  0  0  0  0  0
    3.6425    0.6395    2.5581 C   0  0  0  0  0  0  0  0  0  0  0  0
    3.0374    1.0331    3.5531 O   0  0  0  0  0  0  0  0  0  0  0  0
    3.6963    1.9577    0.4256 C   0  0  0  0  0  0  0  0  0  0  0  0
    1.1841    0.4738    2.0426 H   0  0  0  0  0  0  0  0  0  0  0  0
    3.2940   -0.1573    0.5890 H   0  0  0  0  0  0  0  0  0  0  0  0
    3.5004    2.8899    0.9679 H   0  0  0  0  0  0  0  0  0  0  0  0
    4.7821    1.8526    0.3305 H   0  0  0  0  0  0  0  0  0  0  0  0
    3.2745    2.0631   -0.5798 H   0  0  0  0  0  0  0  0  0  0  0  0
    4.9110    0.0767    2.5734 N   0  0  0  0  0  0  0  0  0  0  0  0
    5.6551   -0.1355    3.7929 C   0  0  0  0  0  0  0  0  0  0  0  0
    5.3286   -0.2379    1.7025 H   0  0  0  0  0  0  0  0  0  0  0  0
    6.2985    0.7355    3.9867 H   0  0  0  0  0  0  0  0  0  0  0  0
    4.9552   -0.2678    4.6311 H   0  0  0  0  0  0  0  0  0  0  0  0
    6.2784   -1.0360    3.6900 H   0  0  0  0  0  0  0  0  0  0  0  0
  1  3  1  0  0  0  0
  1  7  1  0  0  0  0
  1  2  2  0  0  0  0
 37 38  1  0  0  0  0
 38 46  1  0  0  0  0
 38 39  2  0  0  0  0
  8  9  1  0  0  0  0
  9 17  1  0  0  0  0
  9 10  2  0  0  0  0
 18 19  1  0  0  0  0
 19 36  1  0  0  0  0
 19 20  2  0  0  0  0
 22 24  1  0  0  0  0
 37 40  1  0  0  0  0
  8 11  1  0  0  0  0
 21 23  1  0  0  0  0
 46 47  1  0  0  0  0
 21 22  1  0  0  0  0
 36 37  1  0  0  0  0
  7  8  1  0  0  0  0
 18 21  1  0  0  0  0
 17 18  1  0  0  0  0
  3  4  1  0  0  0  0
  3  5  1  0  0  0  0
  3  6  1  0  0  0  0
 24 33  1  0  0  0  0
 24 34  1  0  0  0  0
 24 35  1  0  0  0  0
 40 43  1  0  0  0  0
 40 44  1  0  0  0  0
 40 45  1  0  0  0  0
 11 14  1  0  0  0  0
 11 15  1  0  0  0  0
 11 16  1  0  0  0  0
 23 30  1  0  0  0  0
 23 31  1  0  0  0  0
 23 32  1  0  0  0  0
 47 49  1  0  0  0  0
 47 50  1  0  0  0  0
 47 51  1  0  0  0  0
 22 28  1  0  0  0  0
 22 29  1  0  0  0  0
 37 42  1  0  0  0  0
  8 13  1  0  0  0  0
 18 26  1  0  0  0  0
 21 27  1  0  0  0  0
 46 48  1  0  0  0  0
  7 12  1  0  0  0  0
 36 41  1  0  0  0  0
 17 25  1  0  0  0  0
M  END
$$$$

  -OEChem-05262214473D

 51 50  0     1  0  0  0  0  0999 V2000
    1.3524   -3.0009    1.4091 C   0  0  0  0  0  0  0  0  0  0  0  0
    1.8758   -1.9880    0.9598 O   0  0  0  0  0  0  0  0  0  0  0  0
    2.2030   -4.1782    1.7536 C   0  0  0  0  0  0  0  0  0  0  0  0
    2.3264   -4.8705    0.9053 H   0  0  0  0  0  0  0  0  0  0  0  0
    3.2257   -3.8876    2.0432 H   0  0  0  0  0  0  0  0  0  0  0  0
    1.8327   -4.8004    2.5839 H   0  0  0  0  0  0  0  0  0  0  0  0
    0.0005   -3.1873    1.6465 N   0  0  0  0  0  0  0  0  0  0  0  0
   -0.9949   -2.1807    1.3864 C   0  0  2  0  0  0  0  0  0  0  0  0
   -0.3083   -0.8216    1.4164 C   0  0  0  0  0  0  0  0  0  0  0  0
    0.7533   -0.6191    2.0022 O   0  0  0  0  0  0  0  0  0  0  0  0
   -2.1232   -2.2423    2.4042 C   0  0  0  0  0  0  0  0  0  0  0  0
   -0.3048   -4.0823    2.0245 H   0  0  0  0  0  0  0  0  0  0  0  0
   -1.3830   -2.3724    0.3801 H   0  0  0  0  0  0  0  0  0  0  0  0
   -1.7534   -2.0527    3.4185 H   0  0  0  0  0  0  0  0  0  0  0  0
   -2.8936   -1.4947    2.1882 H   0  0  0  0  0  0  0  0  0  0  0  0
   -2.5964   -3.2301    2.4022 H   0  0  0  0  0  0  0  0  0  0  0  0
   -1.0412    0.1517    0.7482 N   0  0  0  0  0  0  0  0  0  0  0  0
   -0.6079    1.5223    0.6467 C   0  0  2  0  0  0  0  0  0  0  0  0
    0.8765    1.5269    0.2840 C   0  0  0  0  0  0  0  0  0  0  0  0
    1.3549    2.2798   -0.5620 O   0  0  0  0  0  0  0  0  0  0  0  0
   -0.9087    2.3473    1.9214 C   0  0  2  0  0  0  0  0  0  0  0  0
   -2.4238    2.4586    2.2016 C   0  0  0  0  0  0  0  0  0  0  0  0
   -0.2479    3.7288    1.8246 C   0  0  0  0  0  0  0  0  0  0  0  0
   -2.7464    3.0292    3.5767 C   0  0  0  0  0  0  0  0  0  0  0  0
   -1.9022   -0.1128    0.2753 H   0  0  0  0  0  0  0  0  0  0  0  0
   -1.1536    1.9471   -0.2055 H   0  0  0  0  0  0  0  0  0  0  0  0
   -0.4490    1.8311    2.7748 H   0  0  0  0  0  0  0  0  0  0  0  0
   -2.8886    3.1115    1.4539 H   0  0  0  0  0  0  0  0  0  0  0  0
   -2.9032    1.4770    2.1075 H   0  0  0  0  0  0  0  0  0  0  0  0
   -0.6629    4.3011    0.9880 H   0  0  0  0  0  0  0  0  0  0  0  0
   -0.4223    4.3157    2.7316 H   0  0  0  0  0  0  0  0  0  0  0  0
    0.8340    3.6472    1.6773 H   0  0  0  0  0  0  0  0  0  0  0  0
   -2.3108    2.4237    4.3765 H   0  0  0  0  0  0  0  0  0  0  0  0
   -3.8305    3.0455    3.7300 H   0  0  0  0  0  0  0  0  0  0  0  0
   -2.3760    4.0545    3.6740 H   0  0  0  0  0  0  0  0  0  0  0  0
    1.6029    0.6170    1.0390 N   0  0  0  0  0  0  0  0  0  0  0  0
    3.0308    0.4377    0.9064 C   0  0  2  0  0  0  0  0  0  0  0  0
    3.5665   -0.0717    2.2380 C   0  0  0  0  0  0  0  0  0  0  0  0
    2.9797    0.0954    3.3052 O   0  0  0  0  0  0  0  0  0  0  0  0
    3.7164    1.7345    0.5050 C   0  0  0  0  0  0  0  0  0  0  0  0
    1.1063    0.0486    1.7186 H   0  0  0  0  0  0  0  0  0  0  0  0
    3.1835   -0.3248    0.1349 H   0  0  0  0  0  0  0  0  0  0  0  0
    3.5743    2.5105    1.2659 H   0  0  0  0  0  0  0  0  0  0  0  0
    4.7943    1.5903    0.3772 H   0  0  0  0  0  0  0  0  0  0  0  0
    3.3090    2.1150   -0.4379 H   0  0  0  0  0  0  0  0  0  0  0  0
    4.7978   -0.6970    2.1004 N   0  0  0  0  0  0  0  0  0  0  0  0
    5.5188   -1.2542    3.2209 C   0  0  0  0  0  0  0  0  0  0  0  0
    5.2014   -0.8075    1.1748 H   0  0  0  0  0  0  0  0  0  0  0  0
    6.2132   -0.5011    3.6218 H   0  0  0  0  0  0  0  0  0  0  0  0
    4.8061   -1.5498    4.0049 H   0  0  0  0  0  0  0  0  0  0  0  0
    6.0862   -2.1364    2.8896 H   0  0  0  0  0  0  0  0  0  0  0  0
  1  3  1  0  0  0  0
  1  7  1  0  0  0  0
  1  2  2  0  0  0  0
 37 38  1  0  0  0  0
 38 46  1  0  0  0  0
 38 39  2  0  0  0  0
  8  9  1  0  0  0  0
  9 17  1  0  0  0  0
  9 10  2  0  0  0  0
 18 19  1  0  0  0  0
 19 36  1  0  0  0  0
 19 20  2  0  0  0  0
 22 24  1  0  0  0  0
 37 40  1  0  0  0  0
  8 11  1  0  0  0  0
 21 23  1  0  0  0  0
 46 47  1  0  0  0  0
 21 22  1  0  0  0  0
 36 37  1  0  0  0  0
  7  8  1  0  0  0  0
 18 21  1  0  0  0  0
 17 18  1  0  0  0  0
  3  4  1  0  0  0  0
  3  5  1  0  0  0  0
  3  6  1  0  0  0  0
 24 33  1  0  0  0  0
 24 34  1  0  0  0  0
 24 35  1  0  0  0  0
 40 43  1  0  0  0  0
 40 44  1  0  0  0  0
 40 45  1  0  0  0  0
 11 14  1  0  0  0  0
 11 15  1  0  0  0  0
 11 16  1  0  0  0  0
 23 30  1  0  0  0  0
 23 31  1  0  0  0  0
 23 32  1  0  0  0  0
 47 49  1  0  0  0  0
 47 50  1  0  0  0  0
 47 51  1  0  0  0  0
 22 28  1  0  0  0  0
 22 29  1  0  0  0  0
 37 42  1  0  0  0  0
  8 13  1  0  0  0  0
 18 26  1  0  0  0  0
 21 27  1  0  0  0  0
 46 48  1  0  0  0  0
  7 12  1  0  0  0  0
 36 41  1  0  0  0  0
 17 25  1  0  0  0  0
M  END
$$$$

  -OEChem-05262214473D

 51 50  0     1  0  0  0  0  0999 V2000
    1.3524   -3.0009    1.4091 C   0  0  0  0  0  0  0  0  0  0  0  0
    1.8758   -1.9880    0.9598 O   0  0  0  0  0  0  0  0  0  0  0  0
    2.2030   -4.1782    1.7536 C   0  0  0  0  0  0  0  0  0  0  0  0
    2.3264   -4.8705    0.9053 H   0  0  0  0  0  0  0  0  0  0  0  0
    3.2257   -3.8876    2.0432 H   0  0  0  0  0  0  0  0  0  0  0  0
    1.8327   -4.8004    2.5839 H   0  0  0  0  0  0  0  0  0  0  0  0
    0.0005   -3.1873    1.6465 N   0  0  0  0  0  0  0  0  0  0  0  0
   -0.9949   -2.1807    1.3864 C   0  0  2  0  0  0  0  0  0  0  0  0
   -0.3083   -0.8216    1.4164 C   0  0  0  0  0  0  0  0  0  0  0  0
    0.7533   -0.6191    2.0022 O   0  0  0  0  0  0  0  0  0  0  0  0
   -2.1232   -2.2423    2.4042 C   0  0  0  0  0  0  0  0  0  0  0  0
   -0.3048   -4.0823    2.0245 H   0  0  0  0  0  0  0  0  0  0  0  0
   -1.3830   -2.3724    0.3801 H   0  0  0  0  0  0  0  0  0  0  0  0
   -1.7534   -2.0527    3.4185 H   0  0  0  0  0  0  0  0  0  0  0  0
   -2.8936   -1.4947    2.1882 H   0  0  0  0  0  0  0  0  0  0  0  0
   -2.5964   -3.2301    2.4022 H   0  0  0  0  0  0  0  0  0  0  0  0
   -1.0412    0.1517    0.7482 N   0  0  0  0  0  0  0  0  0  0  0  0
   -0.6079    1.5223    0.6467 C   0  0  2  0  0  0  0  0  0  0  0  0
    0.8765    1.5269    0.2840 C   0  0  0  0  0  0  0  0  0  0  0  0
    1.4063    2.4375   -0.3497 O   0  0  0  0  0  0  0  0  0  0  0  0
   -0.9087    2.3473    1.9214 C   0  0  2  0  0  0  0  0  0  0  0  0
   -2.4238    2.4586    2.2016 C   0  0  0  0  0  0  0  0  0  0  0  0
   -0.2479    3.7288    1.8246 C   0  0  0  0  0  0  0  0  0  0  0  0
   -2.7464    3.0292    3.5767 C   0  0  0  0  0  0  0  0  0  0  0  0
   -1.9022   -0.1128    0.2753 H   0  0  0  0  0  0  0  0  0  0  0  0
   -1.1536    1.9471   -0.2055 H   0  0  0  0  0  0  0  0  0  0  0  0
   -0.4490    1.8311    2.7748 H   0  0  0  0  0  0  0  0  0  0  0  0
   -2.8886    3.1115    1.4539 H   0  0  0  0  0  0  0  0  0  0  0  0
   -2.9032    1.4770    2.1075 H   0  0  0  0  0  0  0  0  0  0  0  0
   -0.6629    4.3011    0.9880 H   0  0  0  0  0  0  0  0  0  0  0  0
   -0.4223    4.3157    2.7316 H   0  0  0  0  0  0  0  0  0  0  0  0
    0.8340    3.6472    1.6773 H   0  0  0  0  0  0  0  0  0  0  0  0
   -2.3108    2.4237    4.3765 H   0  0  0  0  0  0  0  0  0  0  0  0
   -3.8305    3.0455    3.7300 H   0  0  0  0  0  0  0  0  0  0  0  0
   -2.3760    4.0545    3.6740 H   0  0  0  0  0  0  0  0  0  0  0  0
    1.5402    0.4136    0.7797 N   0  0  0  0  0  0  0  0  0  0  0  0
    2.9552    0.1862    0.5940 C   0  0  2  0  0  0  0  0  0  0  0  0
    3.4491   -0.6735    1.7501 C   0  0  0  0  0  0  0  0  0  0  0  0
    2.8662   -0.7444    2.8300 O   0  0  0  0  0  0  0  0  0  0  0  0
    3.7221    1.4977    0.5256 C   0  0  0  0  0  0  0  0  0  0  0  0
    1.0047   -0.2758    1.2989 H   0  0  0  0  0  0  0  0  0  0  0  0
    3.0662   -0.3657   -0.3457 H   0  0  0  0  0  0  0  0  0  0  0  0
    3.6227    2.0647    1.4584 H   0  0  0  0  0  0  0  0  0  0  0  0
    4.7900    1.3245    0.3563 H   0  0  0  0  0  0  0  0  0  0  0  0
    3.3457    2.1273   -0.2878 H   0  0  0  0  0  0  0  0  0  0  0  0
    4.6406   -1.3184    1.4490 N   0  0  0  0  0  0  0  0  0  0  0  0
    5.3180   -2.1826    2.3873 C   0  0  0  0  0  0  0  0  0  0  0  0
    5.0432   -1.2172    0.5220 H   0  0  0  0  0  0  0  0  0  0  0  0
    6.0545   -1.5986    2.9586 H   0  0  0  0  0  0  0  0  0  0  0  0
    4.5829   -2.6216    3.0779 H   0  0  0  0  0  0  0  0  0  0  0  0
    5.8324   -2.9862    1.8399 H   0  0  0  0  0  0  0  0  0  0  0  0
  1  3  1  0  0  0  0
  1  7  1  0  0  0  0
  1  2  2  0  0  0  0
 37 38  1  0  0  0  0
 38 46  1  0  0  0  0
 38 39  2  0  0  0  0
  8  9  1  0  0  0  0
  9 17  1  0  0  0  0
  9 10  2  0  0  0  0
 18 19  1  0  0  0  0
 19 36  1  0  0  0  0
 19 20  2  0  0  0  0
 22 24  1  0  0  0  0
 37 40  1  0  0  0  0
  8 11  1  0  0  0  0
 21 23  1  0  0  0  0
 46 47  1  0  0  0  0
 21 22  1  0  0  0  0
 36 37  1  0  0  0  0
  7  8  1  0  0  0  0
 18 21  1  0  0  0  0
 17 18  1  0  0  0  0
  3  4  1  0  0  0  0
  3  5  1  0  0  0  0
  3  6  1  0  0  0  0
 24 33  1  0  0  0  0
 24 34  1  0  0  0  0
 24 35  1  0  0  0  0
 40 43  1  0  0  0  0
 40 44  1  0  0  0  0
 40 45  1  0  0  0  0
 11 14  1  0  0  0  0
 11 15  1  0  0  0  0
 11 16  1  0  0  0  0
 23 30  1  0  0  0  0
 23 31  1  0  0  0  0
 23 32  1  0  0  0  0
 47 49  1  0  0  0  0
 47 50  1  0  0  0  0
 47 51  1  0  0  0  0
 22 28  1  0  0  0  0
 22 29  1  0  0  0  0
 37 42  1  0  0  0  0
  8 13  1  0  0  0  0
 18 26  1  0  0  0  0
 21 27  1  0  0  0  0
 46 48  1  0  0  0  0
  7 12  1  0  0  0  0
 36 41  1  0  0  0  0
 17 25  1  0  0  0  0
M  END
$$$$

  -OEChem-05262214473D

 51 50  0     1  0  0  0  0  0999 V2000
    1.3524   -3.0009    1.4091 C   0  0  0  0  0  0  0  0  0  0  0  0
    1.8758   -1.9880    0.9598 O   0  0  0  0  0  0  0  0  0  0  0  0
    2.2030   -4.1782    1.7536 C   0  0  0  0  0  0  0  0  0  0  0  0
    2.3264   -4.8705    0.9053 H   0  0  0  0  0  0  0  0  0  0  0  0
    3.2257   -3.8876    2.0432 H   0  0  0  0  0  0  0  0  0  0  0  0
    1.8327   -4.8004    2.5839 H   0  0  0  0  0  0  0  0  0  0  0  0
    0.0005   -3.1873    1.6465 N   0  0  0  0  0  0  0  0  0  0  0  0
   -0.9949   -2.1807    1.3864 C   0  0  2  0  0  0  0  0  0  0  0  0
   -0.3083   -0.8216    1.4164 C   0  0  0  0  0  0  0  0  0  0  0  0
    0.7533   -0.6191    2.0022 O   0  0  0  0  0  0  0  0  0  0  0  0
   -2.1232   -2.2423    2.4042 C   0  0  0  0  0  0  0  0  0  0  0  0
   -0.3048   -4.0823    2.0245 H   0  0  0  0  0  0  0  0  0  0  0  0
   -1.3830   -2.3724    0.3801 H   0  0  0  0  0  0  0  0  0  0  0  0
   -1.7534   -2.0527    3.4185 H   0  0  0  0  0  0  0  0  0  0  0  0
   -2.8936   -1.4947    2.1882 H   0  0  0  0  0  0  0  0  0  0  0  0
   -2.5964   -3.2301    2.4022 H   0  0  0  0  0  0  0  0  0  0  0  0
   -1.0412    0.1517    0.7482 N   0  0  0  0  0  0  0  0  0  0  0  0
   -0.6079    1.5223    0.6467 C   0  0  2  0  0  0  0  0  0  0  0  0
    0.8765    1.5269    0.2840 C   0  0  0  0  0  0  0  0  0  0  0  0
    1.4658    2.5333   -0.1049 O   0  0  0  0  0  0  0  0  0  0  0  0
   -0.9087    2.3473    1.9214 C   0  0  2  0  0  0  0  0  0  0  0  0
   -2.4238    2.4586    2.2016 C   0  0  0  0  0  0  0  0  0  0  0  0
   -0.2479    3.7288    1.8246 C   0  0  0  0  0  0  0  0  0  0  0  0
   -2.7464    3.0292    3.5767 C   0  0  0  0  0  0  0  0  0  0  0  0
   -1.9022   -0.1128    0.2753 H   0  0  0  0  0  0  0  0  0  0  0  0
   -1.1536    1.9471   -0.2055 H   0  0  0  0  0  0  0  0  0  0  0  0
   -0.4490    1.8311    2.7748 H   0  0  0  0  0  0  0  0  0  0  0  0
   -2.8886    3.1115    1.4539 H   0  0  0  0  0  0  0  0  0  0  0  0
   -2.9032    1.4770    2.1075 H   0  0  0  0  0  0  0  0  0  0  0  0
   -0.6629    4.3011    0.9880 H   0  0  0  0  0  0  0  0  0  0  0  0
   -0.4223    4.3157    2.7316 H   0  0  0  0  0  0  0  0  0  0  0  0
    0.8340    3.6472    1.6773 H   0  0  0  0  0  0  0  0  0  0  0  0
   -2.3108    2.4237    4.3765 H   0  0  0  0  0  0  0  0  0  0  0  0
   -3.8305    3.0455    3.7300 H   0  0  0  0  0  0  0  0  0  0  0  0
   -2.3760    4.0545    3.6740 H   0  0  0  0  0  0  0  0  0  0  0  0
    1.4669    0.2862    0.4781 N   0  0  0  0  0  0  0  0  0  0  0  0
    2.8666    0.0265    0.2290 C   0  0  2  0  0  0  0  0  0  0  0  0
    3.2984   -1.1249    1.1276 C   0  0  0  0  0  0  0  0  0  0  0  0
    2.7046   -1.4293    2.1599 O   0  0  0  0  0  0  0  0  0  0  0  0
    3.7132    1.2634    0.4859 C   0  0  0  0  0  0  0  0  0  0  0  0
    0.8864   -0.4774    0.8119 H   0  0  0  0  0  0  0  0  0  0  0  0
    2.9500   -0.2772   -0.8202 H   0  0  0  0  0  0  0  0  0  0  0  0
    3.6422    1.5826    1.5321 H   0  0  0  0  0  0  0  0  0  0  0  0
    4.7696    1.0732    0.2693 H   0  0  0  0  0  0  0  0  0  0  0  0
    3.3819    2.0992   -0.1398 H   0  0  0  0  0  0  0  0  0  0  0  0
    4.4500   -1.7453    0.6638 N   0  0  0  0  0  0  0  0  0  0  0  0
    5.0663   -2.8575    1.3487 C   0  0  0  0  0  0  0  0  0  0  0  0
    4.8646   -1.4391   -0.2115 H   0  0  0  0  0  0  0  0  0  0  0  0
    5.8333   -2.4822    2.0422 H   0  0  0  0  0  0  0  0  0  0  0  0
    4.3008   -3.4101    1.9131 H   0  0  0  0  0  0  0  0  0  0  0  0
    5.5341   -3.5276    0.6125 H   0  0  0  0  0  0  0  0  0  0  0  0
  1  3  1  0  0  0  0
  1  7  1  0  0  0  0
  1  2  2  0  0  0  0
 37 38  1  0  0  0  0
 38 46  1  0  0  0  0
 38 39  2  0  0  0  0
  8  9  1  0  0  0  0
  9 17  1  0  0  0  0
  9 10  2  0  0  0  0
 18 19  1  0  0  0  0
 19 36  1  0  0  0  0
 19 20  2  0  0  0  0
 22 24  1  0  0  0  0
 37 40  1  0  0  0  0
  8 11  1  0  0  0  0
 21 23  1  0  0  0  0
 46 47  1  0  0  0  0
 21 22  1  0  0  0  0
 36 37  1  0  0  0  0
  7  8  1  0  0  0  0
 18 21  1  0  0  0  0
 17 18  1  0  0  0  0
  3  4  1  0  0  0  0
  3  5  1  0  0  0  0
  3  6  1  0  0  0  0
 24 33  1  0  0  0  0
 24 34  1  0  0  0  0
 24 35  1  0  0  0  0
 40 43  1  0  0  0  0
 40 44  1  0  0  0  0
 40 45  1  0  0  0  0
 11 14  1  0  0  0  0
 11 15  1  0  0  0  0
 11 16  1  0  0  0  0
 23 30  1  0  0  0  0
 23 31  1  0  0  0  0
 23 32  1  0  0  0  0
 47 49  1  0  0  0  0
 47 50  1  0  0  0  0
 47 51  1  0  0  0  0
 22 28  1  0  0  0  0
 22 29  1  0  0  0  0
 37 42  1  0  0  0  0
  8 13  1  0  0  0  0
 18 26  1  0  0  0  0
 21 27  1  0  0  0  0
 46 48  1  0  0  0  0
  7 12  1  0  0  0  0
 36 41  1  0  0  0  0
 17 25  1  0  0  0  0
M  END
$$$$

  -OEChem-05262214473D

 51 50  0     1  0  0  0  0  0999 V2000
    1.3524   -3.0009    1.4091 C   0  0  0  0  0  0  0  0  0  0  0  0
    1.8758   -1.9880    0.9598 O   0  0  0  0  0  0  0  0  0  0  0  0
    2.2030   -4.1782    1.7536 C   0  0  0  0  0  0  0  0  0  0  0  0
    2.3264   -4.8705    0.9053 H   0  0  0  0  0  0  0  0  0  0  0  0
    3.2257   -3.8876    2.0432 H   0  0  0  0  0  0  0  0  0  0  0  0
    1.8327   -4.8004    2.5839 H   0  0  0  0  0  0  0  0  0  0  0  0
    0.0005   -3.1873    1.6465 N   0  0  0  0  0  0  0  0  0  0  0  0
   -0.9949   -2.1807    1.3864 C   0  0  2  0  0  0  0  0  0  0  0  0
   -0.3083   -0.8216    1.4164 C   0  0  0  0  0  0  0  0  0  0  0  0
    0.7533   -0.6191    2.0022 O   0  0  0  0  0  0  0  0  0  0  0  0
   -2.1232   -2.2423    2.4042 C   0  0  0  0  0  0  0  0  0  0  0  0
   -0.3048   -4.0823    2.0245 H   0  0  0  0  0  0  0  0  0  0  0  0
   -1.3830   -2.3724    0.3801 H   0  0  0  0  0  0  0  0  0  0  0  0
   -1.7534   -2.0527    3.4185 H   0  0  0  0  0  0  0  0  0  0  0  0
   -2.8936   -1.4947    2.1882 H   0  0  0  0  0  0  0  0  0  0  0  0
   -2.5964   -3.2301    2.4022 H   0  0  0  0  0  0  0  0  0  0  0  0
   -1.0412    0.1517    0.7482 N   0  0  0  0  0  0  0  0  0  0  0  0
   -0.6079    1.5223    0.6467 C   0  0  2  0  0  0  0  0  0  0  0  0
    0.8765    1.5269    0.2840 C   0  0  0  0  0  0  0  0  0  0  0  0
    1.5294    2.5607    0.1555 O   0  0  0  0  0  0  0  0  0  0  0  0
   -0.9087    2.3473    1.9214 C   0  0  2  0  0  0  0  0  0  0  0  0
   -2.4238    2.4586    2.2016 C   0  0  0  0  0  0  0  0  0  0  0  0
   -0.2479    3.7288    1.8246 C   0  0  0  0  0  0  0  0  0  0  0  0
   -2.7464    3.0292    3.5767 C   0  0  0  0  0  0  0  0  0  0  0  0
   -1.9022   -0.1128    0.2753 H   0  0  0  0  0  0  0  0  0  0  0  0
   -1.1536    1.9471   -0.2055 H   0  0  0  0  0  0  0  0  0  0  0  0
   -0.4490    1.8311    2.7748 H   0  0  0  0  0  0  0  0  0  0  0  0
   -2.8886    3.1115    1.4539 H   0  0  0  0  0  0  0  0  0  0  0  0
   -2.9032    1.4770    2.1075 H   0  0  0  0  0  0  0  0  0  0  0  0
   -0.6629    4.3011    0.9880 H   0  0  0  0  0  0  0  0  0  0  0  0
   -0.4223    4.3157    2.7316 H   0  0  0  0  0  0  0  0  0  0  0  0
    0.8340    3.6472    1.6773 H   0  0  0  0  0  0  0  0  0  0  0  0
   -2.3108    2.4237    4.3765 H   0  0  0  0  0  0  0  0  0  0  0  0
   -3.8305    3.0455    3.7300 H   0  0  0  0  0  0  0  0  0  0  0  0
   -2.3760    4.0545    3.6740 H   0  0  0  0  0  0  0  0  0  0  0  0
    1.3881    0.2435    0.1549 N   0  0  0  0  0  0  0  0  0  0  0  0
    2.7708   -0.0306   -0.1636 C   0  0  2  0  0  0  0  0  0  0  0  0
    3.1246   -1.3952    0.4129 C   0  0  0  0  0  0  0  0  0  0  0  0
    2.5059   -1.9123    1.3407 O   0  0  0  0  0  0  0  0  0  0  0  0
    3.6901    1.0476    0.3887 C   0  0  0  0  0  0  0  0  0  0  0  0
    0.7593   -0.5425    0.2910 H   0  0  0  0  0  0  0  0  0  0  0  0
    2.8429   -0.0652   -1.2561 H   0  0  0  0  0  0  0  0  0  0  0  0
    3.6315    1.0973    1.4821 H   0  0  0  0  0  0  0  0  0  0  0  0
    4.7343    0.8536    0.1221 H   0  0  0  0  0  0  0  0  0  0  0  0
    3.4153    2.0326   -0.0039 H   0  0  0  0  0  0  0  0  0  0  0  0
    4.2391   -1.9484   -0.2019 N   0  0  0  0  0  0  0  0  0  0  0  0
    4.7810   -3.2327    0.1761 C   0  0  0  0  0  0  0  0  0  0  0  0
    4.6780   -1.4580   -0.9756 H   0  0  0  0  0  0  0  0  0  0  0  0
    5.5647   -3.0917    0.9350 H   0  0  0  0  0  0  0  0  0  0  0  0
    3.9789   -3.8615    0.5901 H   0  0  0  0  0  0  0  0  0  0  0  0
    5.2119   -3.7236   -0.7089 H   0  0  0  0  0  0  0  0  0  0  0  0
  1  3  1  0  0  0  0
  1  7  1  0  0  0  0
  1  2  2  0  0  0  0
 37 38  1  0  0  0  0
 38 46  1  0  0  0  0
 38 39  2  0  0  0  0
  8  9  1  0  0  0  0
  9 17  1  0  0  0  0
  9 10  2  0  0  0  0
 18 19  1  0  0  0  0
 19 36  1  0  0  0  0
 19 20  2  0  0  0  0
 22 24  1  0  0  0  0
 37 40  1  0  0  0  0
  8 11  1  0  0  0  0
 21 23  1  0  0  0  0
 46 47  1  0  0  0  0
 21 22  1  0  0  0  0
 36 37  1  0  0  0  0
  7  8  1  0  0  0  0
 18 21  1  0  0  0  0
 17 18  1  0  0  0  0
  3  4  1  0  0  0  0
  3  5  1  0  0  0  0
  3  6  1  0  0  0  0
 24 33  1  0  0  0  0
 24 34  1  0  0  0  0
 24 35  1  0  0  0  0
 40 43  1  0  0  0  0
 40 44  1  0  0  0  0
 40 45  1  0  0  0  0
 11 14  1  0  0  0  0
 11 15  1  0  0  0  0
 11 16  1  0  0  0  0
 23 30  1  0  0  0  0
 23 31  1  0  0  0  0
 23 32  1  0  0  0  0
 47 49  1  0  0  0  0
 47 50  1  0  0  0  0
 47 51  1  0  0  0  0
 22 28  1  0  0  0  0
 22 29  1  0  0  0  0
 37 42  1  0  0  0  0
  8 13  1  0  0  0  0
 18 26  1  0  0  0  0
 21 27  1  0  0  0  0
 46 48  1  0  0  0  0
  7 12  1  0  0  0  0
 36 41  1  0  0  0  0
 17 25  1  0  0  0  0
M  END
$$$$

  -OEChem-05262214473D

 51 50  0     1  0  0  0  0  0999 V2000
    1.3524   -3.0009    1.4091 C   0  0  0  0  0  0  0  0  0  0  0  0
    1.8758   -1.9880    0.9598 O   0  0  0  0  0  0  0  0  0  0  0  0
    2.2030   -4.1782    1.7536 C   0  0  0  0  0  0  0  0  0  0  0  0
    2.3264   -4.8705    0.9053 H   0  0  0  0  0  0  0  0  0  0  0  0
    3.2257   -3.8876    2.0432 H   0  0  0  0  0  0  0  0  0  0  0  0
    1.8327   -4.8004    2.5839 H   0  0  0  0  0  0  0  0  0  0  0  0
    0.0005   -3.1873    1.6465 N   0  0  0  0  0  0  0  0  0  0  0  0
   -0.9949   -2.1807    1.3864 C   0  0  2  0  0  0  0  0  0  0  0  0
   -0.3083   -0.8216    1.4164 C   0  0  0  0  0  0  0  0  0  0  0  0
    0.7533   -0.6191    2.0022 O   0  0  0  0  0  0  0  0  0  0  0  0
   -2.1232   -2.2423    2.4042 C   0  0  0  0  0  0  0  0  0  0  0  0
   -0.3048   -4.0823    2.0245 H   0  0  0  0  0  0  0  0  0  0  0  0
   -1.3830   -2.3724    0.3801 H   0  0  0  0  0  0  0  0  0  0  0  0
   -1.7534   -2.0527    3.4185 H   0  0  0  0  0  0  0  0  0  0  0  0
   -2.8936   -1.4947    2.1882 H   0  0  0  0  0  0  0  0  0  0  0  0
   -2.5964   -3.2301    2.4022 H   0  0  0  0  0  0  0  0  0  0  0  0
   -1.0412    0.1517    0.7482 N   0  0  0  0  0  0  0  0  0  0  0  0
   -0.6079    1.5223    0.6467 C   0  0  2  0  0  0  0  0  0  0  0  0
    0.8765    1.5269    0.2840 C   0  0  0  0  0  0  0  0  0  0  0  0
    1.5926    2.5178    0.4139 O   0  0  0  0  0  0  0  0  0  0  0  0
   -0.9087    2.3473    1.9214 C   0  0  2  0  0  0  0  0  0  0  0  0
   -2.4238    2.4586    2.2016 C   0  0  0  0  0  0  0  0  0  0  0  0
   -0.2479    3.7288    1.8246 C   0  0  0  0  0  0  0  0  0  0  0  0
   -2.7464    3.0292    3.5767 C   0  0  0  0  0  0  0  0  0  0  0  0
   -1.9022   -0.1128    0.2753 H   0  0  0  0  0  0  0  0  0  0  0  0
   -1.1536    1.9471   -0.2055 H   0  0  0  0  0  0  0  0  0  0  0  0
   -0.4490    1.8311    2.7748 H   0  0  0  0  0  0  0  0  0  0  0  0
   -2.8886    3.1115    1.4539 H   0  0  0  0  0  0  0  0  0  0  0  0
   -2.9032    1.4770    2.1075 H   0  0  0  0  0  0  0  0  0  0  0  0
   -0.6629    4.3011    0.9880 H   0  0  0  0  0  0  0  0  0  0  0  0
   -0.4223    4.3157    2.7316 H   0  0  0  0  0  0  0  0  0  0  0  0
    0.8340    3.6472    1.6773 H   0  0  0  0  0  0  0  0  0  0  0  0
   -2.3108    2.4237    4.3765 H   0  0  0  0  0  0  0  0  0  0  0  0
   -3.8305    3.0455    3.7300 H   0  0  0  0  0  0  0  0  0  0  0  0
   -2.3760    4.0545    3.6740 H   0  0  0  0  0  0  0  0  0  0  0  0
    1.3090    0.2883   -0.1680 N   0  0  0  0  0  0  0  0  0  0  0  0
    2.6745    0.0188   -0.5571 C   0  0  2  0  0  0  0  0  0  0  0  0
    2.9396   -1.4659   -0.3453 C   0  0  0  0  0  0  0  0  0  0  0  0
    2.2836   -2.1608    0.4280 O   0  0  0  0  0  0  0  0  0  0  0  0
    3.6545    0.8651    0.2405 C   0  0  0  0  0  0  0  0  0  0  0  0
    0.6321   -0.4665   -0.2285 H   0  0  0  0  0  0  0  0  0  0  0  0
    2.7520    0.2557   -1.6238 H   0  0  0  0  0  0  0  0  0  0  0  0
    3.5913    0.6417    1.3118 H   0  0  0  0  0  0  0  0  0  0  0  0
    4.6866    0.6806   -0.0752 H   0  0  0  0  0  0  0  0  0  0  0  0
    3.4436    1.9321    0.1106 H   0  0  0  0  0  0  0  0  0  0  0  0
    4.0223   -1.9141   -1.0890 N   0  0  0  0  0  0  0  0  0  0  0  0
    4.4814   -3.2829   -1.0507 C   0  0  0  0  0  0  0  0  0  0  0  0
    4.4960   -1.2727   -1.7183 H   0  0  0  0  0  0  0  0  0  0  0  0
    5.2669   -3.3855   -0.2875 H   0  0  0  0  0  0  0  0  0  0  0  0
    3.6392   -3.9451   -0.8012 H   0  0  0  0  0  0  0  0  0  0  0  0
    4.8875   -3.5610   -2.0344 H   0  0  0  0  0  0  0  0  0  0  0  0
  1  3  1  0  0  0  0
  1  7  1  0  0  0  0
  1  2  2  0  0  0  0
 37 38  1  0  0  0  0
 38 46  1  0  0  0  0
 38 39  2  0  0  0  0
  8  9  1  0  0  0  0
  9 17  1  0  0  0  0
  9 10  2  0  0  0  0
 18 19  1  0  0  0  0
 19 36  1  0  0  0  0
 19 20  2  0  0  0  0
 22 24  1  0  0  0  0
 37 40  1  0  0  0  0
  8 11  1  0  0  0  0
 21 23  1  0  0  0  0
 46 47  1  0  0  0  0
 21 22  1  0  0  0  0
 36 37  1  0  0  0  0
  7  8  1  0  0  0  0
 18 21  1  0  0  0  0
 17 18  1  0  0  0  0
  3  4  1  0  0  0  0
  3  5  1  0  0  0  0
  3  6  1  0  0  0  0
 24 33  1  0  0  0  0
 24 34  1  0  0  0  0
 24 35  1  0  0  0  0
 40 43  1  0  0  0  0
 40 44  1  0  0  0  0
 40 45  1  0  0  0  0
 11 14  1  0  0  0  0
 11 15  1  0  0  0  0
 11 16  1  0  0  0  0
 23 30  1  0  0  0  0
 23 31  1  0  0  0  0
 23 32  1  0  0  0  0
 47 49  1  0  0  0  0
 47 50  1  0  0  0  0
 47 51  1  0  0  0  0
 22 28  1  0  0  0  0
 22 29  1  0  0  0  0
 37 42  1  0  0  0  0
  8 13  1  0  0  0  0
 18 26  1  0  0  0  0
 21 27  1  0  0  0  0
 46 48  1  0  0  0  0
  7 12  1  0  0  0  0
 36 41  1  0  0  0  0
 17 25  1  0  0  0  0
M  END
$$$$

  -OEChem-05262214473D

 51 50  0     1  0  0  0  0  0999 V2000
    1.3524   -3.0009    1.4091 C   0  0  0  0  0  0  0  0  0  0  0  0
    1.8758   -1.9880    0.9598 O   0  0  0  0  0  0  0  0  0  0  0  0
    2.2030   -4.1782    1.7536 C   0  0  0  0  0  0  0  0  0  0  0  0
    2.3264   -4.8705    0.9053 H   0  0  0  0  0  0  0  0  0  0  0  0
    3.2257   -3.8876    2.0432 H   0  0  0  0  0  0  0  0  0  0  0  0
    1.8327   -4.8004    2.5839 H   0  0  0  0  0  0  0  0  0  0  0  0
    0.0005   -3.1873    1.6465 N   0  0  0  0  0  0  0  0  0  0  0  0
   -0.9949   -2.1807    1.3864 C   0  0  2  0  0  0  0  0  0  0  0  0
   -0.3083   -0.8216    1.4164 C   0  0  0  0  0  0  0  0  0  0  0  0
    0.7533   -0.6191    2.0022 O   0  0  0  0  0  0  0  0  0  0  0  0
   -2.1232   -2.2423    2.4042 C   0  0  0  0  0  0  0  0  0  0  0  0
   -0.3048   -4.0823    2.0245 H   0  0  0  0  0  0  0  0  0  0  0  0
   -1.3830   -2.3724    0.3801 H   0  0  0  0  0  0  0  0  0  0  0  0
   -1.7534   -2.0527    3.4185 H   0  0  0  0  0  0  0  0  0  0  0  0
   -2.8936   -1.4947    2.1882 H   0  0  0  0  0  0  0  0  0  0  0  0
   -2.5964   -3.2301    2.4022 H   0  0  0  0  0  0  0  0  0  0  0  0
   -1.0412    0.1517    0.7482 N   0  0  0  0  0  0  0  0  0  0  0  0
   -0.6079    1.5223    0.6467 C   0  0  2  0  0  0  0  0  0  0  0  0
    0.8765    1.5269    0.2840 C   0  0  0  0  0  0  0  0  0  0  0  0
    1.6513    2.4074    0.6526 O   0  0  0  0  0  0  0  0  0  0  0  0
   -0.9087    2.3473    1.9214 C   0  0  2  0  0  0  0  0  0  0  0  0
   -2.4238    2.4586    2.2016 C   0  0  0  0  0  0  0  0  0  0  0  0
   -0.2479    3.7288    1.8246 C   0  0  0  0  0  0  0  0  0  0  0  0
   -2.7464    3.0292    3.5767 C   0  0  0  0  0  0  0  0  0  0  0  0
   -1.9022   -0.1128    0.2753 H   0  0  0  0  0  0  0  0  0  0  0  0
   -1.1536    1.9471   -0.2055 H   0  0  0  0  0  0  0  0  0  0  0  0
   -0.4490    1.8311    2.7748 H   0  0  0  0  0  0  0  0  0  0  0  0
   -2.8886    3.1115    1.4539 H   0  0  0  0  0  0  0  0  0  0  0  0
   -2.9032    1.4770    2.1075 H   0  0  0  0  0  0  0  0  0  0  0  0
   -0.6629    4.3011    0.9880 H   0  0  0  0  0  0  0  0  0  0  0  0
   -0.4223    4.3157    2.7316 H   0  0  0  0  0  0  0  0  0  0  0  0
    0.8340    3.6472    1.6773 H   0  0  0  0  0  0  0  0  0  0  0  0
   -2.3108    2.4237    4.3765 H   0  0  0  0  0  0  0  0  0  0  0  0
   -3.8305    3.0455    3.7300 H   0  0  0  0  0  0  0  0  0  0  0  0
   -2.3760    4.0545    3.6740 H   0  0  0  0  0  0  0  0  0  0  0  0
    1.2352    0.4177   -0.4686 N   0  0  0  0  0  0  0  0  0  0  0  0
    2.5842    0.1714   -0.9247 C   0  0  2  0  0  0  0  0  0  0  0  0
    2.7559   -1.3322   -1.0952 C   0  0  0  0  0  0  0  0  0  0  0  0
    2.0530   -2.1576   -0.5158 O   0  0  0  0  0  0  0  0  0  0  0  0
    3.6087    0.7282    0.0516 C   0  0  0  0  0  0  0  0  0  0  0  0
    0.5136   -0.2548   -0.7110 H   0  0  0  0  0  0  0  0  0  0  0  0
    2.6837    0.6637   -1.8982 H   0  0  0  0  0  0  0  0  0  0  0  0
    3.5243    0.2469    1.0328 H   0  0  0  0  0  0  0  0  0  0  0  0
    4.6297    0.5661   -0.3093 H   0  0  0  0  0  0  0  0  0  0  0  0
    3.4648    1.8045    0.1958 H   0  0  0  0  0  0  0  0  0  0  0  0
    3.8143   -1.6445   -1.9370 N   0  0  0  0  0  0  0  0  0  0  0  0
    4.1880   -3.0045   -2.2480 C   0  0  0  0  0  0  0  0  0  0  0  0
    4.3309   -0.8958   -2.3890 H   0  0  0  0  0  0  0  0  0  0  0  0
    4.9603   -3.3437   -1.5420 H   0  0  0  0  0  0  0  0  0  0  0  0
    3.3049   -3.6552   -2.1658 H   0  0  0  0  0  0  0  0  0  0  0  0
    4.5832   -3.0506   -3.2735 H   0  0  0  0  0  0  0  0  0  0  0  0
  1  3  1  0  0  0  0
  1  7  1  0  0  0  0
  1  2  2  0  0  0  0
 37 38  1  0  0  0  0
 38 46  1  0  0  0  0
 38 39  2  0  0  0  0
  8  9  1  0  0  0  0
  9 17  1  0  0  0  0
  9 10  2  0  0  0  0
 18 19  1  0  0  0  0
 19 36  1  0  0  0  0
 19 20  2  0  0  0  0
 22 24  1  0  0  0  0
 37 40  1  0  0  0  0
  8 11  1  0  0  0  0
 21 23  1  0  0  0  0
 46 47  1  0  0  0  0
 21 22  1  0  0  0  0
 36 37  1  0  0  0  0
  7  8  1  0  0  0  0
 18 21  1  0  0  0  0
 17 18  1  0  0  0  0
  3  4  1  0  0  0  0
  3  5  1  0  0  0  0
  3  6  1  0  0  0  0
 24 33  1  0  0  0  0
 24 34  1  0  0  0  0
 24 35  1  0  0  0  0
 40 43  1  0  0  0  0
 40 44  1  0  0  0  0
 40 45  1  0  0  0  0
 11 14  1  0  0  0  0
 11 15  1  0  0  0  0
 11 16  1  0  0  0  0
 23 30  1  0  0  0  0
 23 31  1  0  0  0  0
 23 32  1  0  0  0  0
 47 49  1  0  0  0  0
 47 50  1  0  0  0  0
 47 51  1  0  0  0  0
 22 28  1  0  0  0  0
 22 29  1  0  0  0  0
 37 42  1  0  0  0  0
  8 13  1  0  0  0  0
 18 26  1  0  0  0  0
 21 27  1  0  0  0  0
 46 48  1  0  0  0  0
  7 12  1  0  0  0  0
 36 41  1  0  0  0  0
 17 25  1  0  0  0  0
M  END
$$$$

  -OEChem-05262214473D

 51 50  0     1  0  0  0  0  0999 V2000
    1.3524   -3.0009    1.4091 C   0  0  0  0  0  0  0  0  0  0  0  0
    1.8758   -1.9880    0.9598 O   0  0  0  0  0  0  0  0  0  0  0  0
    2.2030   -4.1782    1.7536 C   0  0  0  0  0  0  0  0  0  0  0  0
    2.3264   -4.8705    0.9053 H   0  0  0  0  0  0  0  0  0  0  0  0
    3.2257   -3.8876    2.0432 H   0  0  0  0  0  0  0  0  0  0  0  0
    1.8327   -4.8004    2.5839 H   0  0  0  0  0  0  0  0  0  0  0  0
    0.0005   -3.1873    1.6465 N   0  0  0  0  0  0  0  0  0  0  0  0
   -0.9949   -2.1807    1.3864 C   0  0  2  0  0  0  0  0  0  0  0  0
   -0.3083   -0.8216    1.4164 C   0  0  0  0  0  0  0  0  0  0  0  0
    0.7533   -0.6191    2.0022 O   0  0  0  0  0  0  0  0  0  0  0  0
   -2.1232   -2.2423    2.4042 C   0  0  0  0  0  0  0  0  0  0  0  0
   -0.3048   -4.0823    2.0245 H   0  0  0  0  0  0  0  0  0  0  0  0
   -1.3830   -2.3724    0.3801 H   0  0  0  0  0  0  0  0  0  0  0  0
   -1.7534   -2.0527    3.4185 H   0  0  0  0  0  0  0  0  0  0  0  0
   -2.8936   -1.4947    2.1882 H   0  0  0  0  0  0  0  0  0  0  0  0
   -2.5964   -3.2301    2.4022 H   0  0  0  0  0  0  0  0  0  0  0  0
   -1.0412    0.1517    0.7482 N   0  0  0  0  0  0  0  0  0  0  0  0
   -0.6079    1.5223    0.6467 C   0  0  2  0  0  0  0  0  0  0  0  0
    0.8765    1.5269    0.2840 C   0  0  0  0  0  0  0  0  0  0  0  0
    1.7014    2.2372    0.8555 O   0  0  0  0  0  0  0  0  0  0  0  0
   -0.9087    2.3473    1.9214 C   0  0  2  0  0  0  0  0  0  0  0  0
   -2.4238    2.4586    2.2016 C   0  0  0  0  0  0  0  0  0  0  0  0
   -0.2479    3.7288    1.8246 C   0  0  0  0  0  0  0  0  0  0  0  0
   -2.7464    3.0292    3.5767 C   0  0  0  0  0  0  0  0  0  0  0  0
   -1.9022   -0.1128    0.2753 H   0  0  0  0  0  0  0  0  0  0  0  0
   -1.1536    1.9471   -0.2055 H   0  0  0  0  0  0  0  0  0  0  0  0
   -0.4490    1.8311    2.7748 H   0  0  0  0  0  0  0  0  0  0  0  0
   -2.8886    3.1115    1.4539 H   0  0  0  0  0  0  0  0  0  0  0  0
   -2.9032    1.4770    2.1075 H   0  0  0  0  0  0  0  0  0  0  0  0
   -0.6629    4.3011    0.9880 H   0  0  0  0  0  0  0  0  0  0  0  0
   -0.4223    4.3157    2.7316 H   0  0  0  0  0  0  0  0  0  0  0  0
    0.8340    3.6472    1.6773 H   0  0  0  0  0  0  0  0  0  0  0  0
   -2.3108    2.4237    4.3765 H   0  0  0  0  0  0  0  0  0  0  0  0
   -3.8305    3.0455    3.7300 H   0  0  0  0  0  0  0  0  0  0  0  0
   -2.3760    4.0545    3.6740 H   0  0  0  0  0  0  0  0  0  0  0  0
    1.1716    0.6227   -0.7263 N   0  0  0  0  0  0  0  0  0  0  0  0
    2.5061    0.4168   -1.2413 C   0  0  2  0  0  0  0  0  0  0  0  0
    2.5862   -1.0033   -1.7859 C   0  0  0  0  0  0  0  0  0  0  0  0
    1.8297   -1.9031   -1.4265 O   0  0  0  0  0  0  0  0  0  0  0  0
    3.5560    0.6463   -0.1653 C   0  0  0  0  0  0  0  0  0  0  0  0
    0.4117    0.0784   -1.1238 H   0  0  0  0  0  0  0  0  0  0  0  0
    2.6426    1.1310   -2.0607 H   0  0  0  0  0  0  0  0  0  0  0  0
    3.4352   -0.0601    0.6641 H   0  0  0  0  0  0  0  0  0  0  0  0
    4.5676    0.5178   -0.5642 H   0  0  0  0  0  0  0  0  0  0  0  0
    3.4776    1.6584    0.2461 H   0  0  0  0  0  0  0  0  0  0  0  0
    3.6292   -1.1581   -2.6882 N   0  0  0  0  0  0  0  0  0  0  0  0
    3.9207   -2.4165   -3.3344 C   0  0  0  0  0  0  0  0  0  0  0  0
    4.1942   -0.3530   -2.9419 H   0  0  0  0  0  0  0  0  0  0  0  0
    4.6657   -2.9691   -2.7430 H   0  0  0  0  0  0  0  0  0  0  0  0
    2.9987   -3.0116   -3.4107 H   0  0  0  0  0  0  0  0  0  0  0  0
    4.3196   -2.2275   -4.3419 H   0  0  0  0  0  0  0  0  0  0  0  0
  1  3  1  0  0  0  0
  1  7  1  0  0  0  0
  1  2  2  0  0  0  0
 37 38  1  0  0  0  0
 38 46  1  0  0  0  0
 38 39  2  0  0  0  0
  8  9  1  0  0  0  0
  9 17  1  0  0  0  0
  9 10  2  0  0  0  0
 18 19  1  0  0  0  0
 19 36  1  0  0  0  0
 19 20  2  0  0  0  0
 22 24  1  0  0  0  0
 37 40  1  0  0  0  0
  8 11  1  0  0  0  0
 21 23  1  0  0  0  0
 46 47  1  0  0  0  0
 21 22  1  0  0  0  0
 36 37  1  0  0  0  0
  7  8  1  0  0  0  0
 18 21  1  0  0  0  0
 17 18  1  0  0  0  0
  3  4  1  0  0  0  0
  3  5  1  0  0  0  0
  3  6  1  0  0  0  0
 24 33  1  0  0  0  0
 24 34  1  0  0  0  0
 24 35  1  0  0  0  0
 40 43  1  0  0  0  0
 40 44  1  0  0  0  0
 40 45  1  0  0  0  0
 11 14  1  0  0  0  0
 11 15  1  0  0  0  0
 11 16  1  0  0  0  0
 23 30  1  0  0  0  0
 23 31  1  0  0  0  0
 23 32  1  0  0  0  0
 47 49  1  0  0  0  0
 47 50  1  0  0  0  0
 47 51  1  0  0  0  0
 22 28  1  0  0  0  0
 22 29  1  0  0  0  0
 37 42  1  0  0  0  0
  8 13  1  0  0  0  0
 18 26  1  0  0  0  0
 21 27  1  0  0  0  0
 46 48  1  0  0  0  0
  7 12  1  0  0  0  0
 36 41  1  0  0  0  0
 17 25  1  0  0  0  0
M  END
$$$$

  -OEChem-05262214473D

 51 50  0     1  0  0  0  0  0999 V2000
    1.3524   -3.0009    1.4091 C   0  0  0  0  0  0  0  0  0  0  0  0
    1.8758   -1.9880    0.9598 O   0  0  0  0  0  0  0  0  0  0  0  0
    2.2030   -4.1782    1.7536 C   0  0  0  0  0  0  0  0  0  0  0  0
    2.3264   -4.8705    0.9053 H   0  0  0  0  0  0  0  0  0  0  0  0
    3.2257   -3.8876    2.0432 H   0  0  0  0  0  0  0  0  0  0  0  0
    1.8327   -4.8004    2.5839 H   0  0  0  0  0  0  0  0  0  0  0  0
    0.0005   -3.1873    1.6465 N   0  0  0  0  0  0  0  0  0  0  0  0
   -0.9949   -2.1807    1.3864 C   0  0  2  0  0  0  0  0  0  0  0  0
   -0.3083   -0.8216    1.4164 C   0  0  0  0  0  0  0  0  0  0  0  0
    0.7533   -0.6191    2.0022 O   0  0  0  0  0  0  0  0  0  0  0  0
   -2.1232   -2.2423    2.4042 C   0  0  0  0  0  0  0  0  0  0  0  0
   -0.3048   -4.0823    2.0245 H   0  0  0  0  0  0  0  0  0  0  0  0
   -1.3830   -2.3724    0.3801 H   0  0  0  0  0  0  0  0  0  0  0  0
   -1.7534   -2.0527    3.4185 H   0  0  0  0  0  0  0  0  0  0  0  0
   -2.8936   -1.4947    2.1882 H   0  0  0  0  0  0  0  0  0  0  0  0
   -2.5964   -3.2301    2.4022 H   0  0  0  0  0  0  0  0  0  0  0  0
   -1.0412    0.1517    0.7482 N   0  0  0  0  0  0  0  0  0  0  0  0
   -0.6079    1.5223    0.6467 C   0  0  2  0  0  0  0  0  0  0  0  0
    0.8765    1.5269    0.2840 C   0  0  0  0  0  0  0  0  0  0  0  0
    1.7394    2.0187    1.0085 O   0  0  0  0  0  0  0  0  0  0  0  0
   -0.9087    2.3473    1.9214 C   0  0  2  0  0  0  0  0  0  0  0  0
   -2.4238    2.4586    2.2016 C   0  0  0  0  0  0  0  0  0  0  0  0
   -0.2479    3.7288    1.8246 C   0  0  0  0  0  0  0  0  0  0  0  0
   -2.7464    3.0292    3.5767 C   0  0  0  0  0  0  0  0  0  0  0  0
   -1.9022   -0.1128    0.2753 H   0  0  0  0  0  0  0  0  0  0  0  0
   -1.1536    1.9471   -0.2055 H   0  0  0  0  0  0  0  0  0  0  0  0
   -0.4490    1.8311    2.7748 H   0  0  0  0  0  0  0  0  0  0  0  0
   -2.8886    3.1115    1.4539 H   0  0  0  0  0  0  0  0  0  0  0  0
   -2.9032    1.4770    2.1075 H   0  0  0  0  0  0  0  0  0  0  0  0
   -0.6629    4.3011    0.9880 H   0  0  0  0  0  0  0  0  0  0  0  0
   -0.4223    4.3157    2.7316 H   0  0  0  0  0  0  0  0  0  0  0  0
    0.8340    3.6472    1.6773 H   0  0  0  0  0  0  0  0  0  0  0  0
   -2.3108    2.4237    4.3765 H   0  0  0  0  0  0  0  0  0  0  0  0
   -3.8305    3.0455    3.7300 H   0  0  0  0  0  0  0  0  0  0  0  0
   -2.3760    4.0545    3.6740 H   0  0  0  0  0  0  0  0  0  0  0  0
    1.1225    0.8895   -0.9237 N   0  0  0  0  0  0  0  0  0  0  0  0
    2.4455    0.7382   -1.4854 C   0  0  2  0  0  0  0  0  0  0  0  0
    2.4419   -0.5014   -2.3701 C   0  0  0  0  0  0  0  0  0  0  0  0
    1.6290   -1.4146   -2.2420 O   0  0  0  0  0  0  0  0  0  0  0  0
    3.4998    0.6250   -0.3954 C   0  0  0  0  0  0  0  0  0  0  0  0
    0.3334    0.5103   -1.4387 H   0  0  0  0  0  0  0  0  0  0  0  0
    2.6315    1.6257   -2.1000 H   0  0  0  0  0  0  0  0  0  0  0  0
    3.3299   -0.2585    0.2308 H   0  0  0  0  0  0  0  0  0  0  0  0
    4.5044    0.5391   -0.8224 H   0  0  0  0  0  0  0  0  0  0  0  0
    3.4809    1.5040    0.2580 H   0  0  0  0  0  0  0  0  0  0  0  0
    3.4798   -0.4881   -3.2914 N   0  0  0  0  0  0  0  0  0  0  0  0
    3.6979   -1.5590   -4.2357 C   0  0  0  0  0  0  0  0  0  0  0  0
    4.0950    0.3187   -3.3394 H   0  0  0  0  0  0  0  0  0  0  0  0
    4.4032   -2.2871   -3.8086 H   0  0  0  0  0  0  0  0  0  0  0  0
    2.7416   -2.0581   -4.4512 H   0  0  0  0  0  0  0  0  0  0  0  0
    4.1148   -1.1475   -5.1667 H   0  0  0  0  0  0  0  0  0  0  0  0
  1  3  1  0  0  0  0
  1  7  1  0  0  0  0
  1  2  2  0  0  0  0
 37 38  1  0  0  0  0
 38 46  1  0  0  0  0
 38 39  2  0  0  0  0
  8  9  1  0  0  0  0
  9 17  1  0  0  0  0
  9 10  2  0  0  0  0
 18 19  1  0  0  0  0
 19 36  1  0  0  0  0
 19 20  2  0  0  0  0
 22 24  1  0  0  0  0
 37 40  1  0  0  0  0
  8 11  1  0  0  0  0
 21 23  1  0  0  0  0
 46 47  1  0  0  0  0
 21 22  1  0  0  0  0
 36 37  1  0  0  0  0
  7  8  1  0  0  0  0
 18 21  1  0  0  0  0
 17 18  1  0  0  0  0
  3  4  1  0  0  0  0
  3  5  1  0  0  0  0
  3  6  1  0  0  0  0
 24 33  1  0  0  0  0
 24 34  1  0  0  0  0
 24 35  1  0  0  0  0
 40 43  1  0  0  0  0
 40 44  1  0  0  0  0
 40 45  1  0  0  0  0
 11 14  1  0  0  0  0
 11 15  1  0  0  0  0
 11 16  1  0  0  0  0
 23 30  1  0  0  0  0
 23 31  1  0  0  0  0
 23 32  1  0  0  0  0
 47 49  1  0  0  0  0
 47 50  1  0  0  0  0
 47 51  1  0  0  0  0
 22 28  1  0  0  0  0
 22 29  1  0  0  0  0
 37 42  1  0  0  0  0
  8 13  1  0  0  0  0
 18 26  1  0  0  0  0
 21 27  1  0  0  0  0
 46 48  1  0  0  0  0
  7 12  1  0  0  0  0
 36 41  1  0  0  0  0
 17 25  1  0  0  0  0
M  END
$$$$

  -OEChem-05262214473D

 51 50  0     1  0  0  0  0  0999 V2000
    1.3524   -3.0009    1.4091 C   0  0  0  0  0  0  0  0  0  0  0  0
    1.8758   -1.9880    0.9598 O   0  0  0  0  0  0  0  0  0  0  0  0
    2.2030   -4.1782    1.7536 C   0  0  0  0  0  0  0  0  0  0  0  0
    2.3264   -4.8705    0.9053 H   0  0  0  0  0  0  0  0  0  0  0  0
    3.2257   -3.8876    2.0432 H   0  0  0  0  0  0  0  0  0  0  0  0
    1.8327   -4.8004    2.5839 H   0  0  0  0  0  0  0  0  0  0  0  0
    0.0005   -3.1873    1.6465 N   0  0  0  0  0  0  0  0  0  0  0  0
   -0.9949   -2.1807    1.3864 C   0  0  2  0  0  0  0  0  0  0  0  0
   -0.3083   -0.8216    1.4164 C   0  0  0  0  0  0  0  0  0  0  0  0
    0.7533   -0.6191    2.0022 O   0  0  0  0  0  0  0  0  0  0  0  0
   -2.1232   -2.2423    2.4042 C   0  0  0  0  0  0  0  0  0  0  0  0
   -0.3048   -4.0823    2.0245 H   0  0  0  0  0  0  0  0  0  0  0  0
   -1.3830   -2.3724    0.3801 H   0  0  0  0  0  0  0  0  0  0  0  0
   -1.7534   -2.0527    3.4185 H   0  0  0  0  0  0  0  0  0  0  0  0
   -2.8936   -1.4947    2.1882 H   0  0  0  0  0  0  0  0  0  0  0  0
   -2.5964   -3.2301    2.4022 H   0  0  0  0  0  0  0  0  0  0  0  0
   -1.0412    0.1517    0.7482 N   0  0  0  0  0  0  0  0  0  0  0  0
   -0.6079    1.5223    0.6467 C   0  0  2  0  0  0  0  0  0  0  0  0
    0.8765    1.5269    0.2840 C   0  0  0  0  0  0  0  0  0  0  0  0
    1.7629    1.7669    1.1014 O   0  0  0  0  0  0  0  0  0  0  0  0
   -0.9087    2.3473    1.9214 C   0  0  2  0  0  0  0  0  0  0  0  0
   -2.4238    2.4586    2.2016 C   0  0  0  0  0  0  0  0  0  0  0  0
   -0.2479    3.7288    1.8246 C   0  0  0  0  0  0  0  0  0  0  0  0
   -2.7464    3.0292    3.5767 C   0  0  0  0  0  0  0  0  0  0  0  0
   -1.9022   -0.1128    0.2753 H   0  0  0  0  0  0  0  0  0  0  0  0
   -1.1536    1.9471   -0.2055 H   0  0  0  0  0  0  0  0  0  0  0  0
   -0.4490    1.8311    2.7748 H   0  0  0  0  0  0  0  0  0  0  0  0
   -2.8886    3.1115    1.4539 H   0  0  0  0  0  0  0  0  0  0  0  0
   -2.9032    1.4770    2.1075 H   0  0  0  0  0  0  0  0  0  0  0  0
   -0.6629    4.3011    0.9880 H   0  0  0  0  0  0  0  0  0  0  0  0
   -0.4223    4.3157    2.7316 H   0  0  0  0  0  0  0  0  0  0  0  0
    0.8340    3.6472    1.6773 H   0  0  0  0  0  0  0  0  0  0  0  0
   -2.3108    2.4237    4.3765 H   0  0  0  0  0  0  0  0  0  0  0  0
   -3.8305    3.0455    3.7300 H   0  0  0  0  0  0  0  0  0  0  0  0
   -2.3760    4.0545    3.6740 H   0  0  0  0  0  0  0  0  0  0  0  0
    1.0914    1.1998   -1.0472 N   0  0  0  0  0  0  0  0  0  0  0  0
    2.4065    1.1138   -1.6403 C   0  0  2  0  0  0  0  0  0  0  0  0
    2.3329    0.1391   -2.8082 C   0  0  0  0  0  0  0  0  0  0  0  0
    1.4644   -0.7253   -2.9068 O   0  0  0  0  0  0  0  0  0  0  0  0
    3.4441    0.6656   -0.6229 C   0  0  0  0  0  0  0  0  0  0  0  0
    0.2841    1.0114   -1.6342 H   0  0  0  0  0  0  0  0  0  0  0  0
    2.6511    2.1142   -2.0137 H   0  0  0  0  0  0  0  0  0  0  0  0
    3.2158   -0.3348   -0.2375 H   0  0  0  0  0  0  0  0  0  0  0  0
    4.4445    0.6285   -1.0665 H   0  0  0  0  0  0  0  0  0  0  0  0
    3.4747    1.3516    0.2306 H   0  0  0  0  0  0  0  0  0  0  0  0
    3.3761    0.3199   -3.7055 N   0  0  0  0  0  0  0  0  0  0  0  0
    3.5346   -0.4904   -4.8905 C   0  0  0  0  0  0  0  0  0  0  0  0
    4.0401    1.0736   -3.5544 H   0  0  0  0  0  0  0  0  0  0  0  0
    4.1907   -1.3444   -4.6663 H   0  0  0  0  0  0  0  0  0  0  0  0
    2.5510   -0.8596   -5.2163 H   0  0  0  0  0  0  0  0  0  0  0  0
    3.9826    0.1156   -5.6917 H   0  0  0  0  0  0  0  0  0  0  0  0
  1  3  1  0  0  0  0
  1  7  1  0  0  0  0
  1  2  2  0  0  0  0
 37 38  1  0  0  0  0
 38 46  1  0  0  0  0
 38 39  2  0  0  0  0
  8  9  1  0  0  0  0
  9 17  1  0  0  0  0
  9 10  2  0  0  0  0
 18 19  1  0  0  0  0
 19 36  1  0  0  0  0
 19 20  2  0  0  0  0
 22 24  1  0  0  0  0
 37 40  1  0  0  0  0
  8 11  1  0  0  0  0
 21 23  1  0  0  0  0
 46 47  1  0  0  0  0
 21 22  1  0  0  0  0
 36 37  1  0  0  0  0
  7  8  1  0  0  0  0
 18 21  1  0  0  0  0
 17 18  1  0  0  0  0
  3  4  1  0  0  0  0
  3  5  1  0  0  0  0
  3  6  1  0  0  0  0
 24 33  1  0  0  0  0
 24 34  1  0  0  0  0
 24 35  1  0  0  0  0
 40 43  1  0  0  0  0
 40 44  1  0  0  0  0
 40 45  1  0  0  0  0
 11 14  1  0  0  0  0
 11 15  1  0  0  0  0
 11 16  1  0  0  0  0
 23 30  1  0  0  0  0
 23 31  1  0  0  0  0
 23 32  1  0  0  0  0
 47 49  1  0  0  0  0
 47 50  1  0  0  0  0
 47 51  1  0  0  0  0
 22 28  1  0  0  0  0
 22 29  1  0  0  0  0
 37 42  1  0  0  0  0
  8 13  1  0  0  0  0
 18 26  1  0  0  0  0
 21 27  1  0  0  0  0
 46 48  1  0  0  0  0
  7 12  1  0  0  0  0
 36 41  1  0  0  0  0
 17 25  1  0  0  0  0
M  END
$$$$

  -OEChem-05262214473D

 51 50  0     1  0  0  0  0  0999 V2000
    1.3524   -3.0009    1.4091 C   0  0  0  0  0  0  0  0  0  0  0  0
    1.8758   -1.9880    0.9598 O   0  0  0  0  0  0  0  0  0  0  0  0
    2.2030   -4.1782    1.7536 C   0  0  0  0  0  0  0  0  0  0  0  0
    2.3264   -4.8705    0.9053 H   0  0  0  0  0  0  0  0  0  0  0  0
    3.2257   -3.8876    2.0432 H   0  0  0  0  0  0  0  0  0  0  0  0
    1.8327   -4.8004    2.5839 H   0  0  0  0  0  0  0  0  0  0  0  0
    0.0005   -3.1873    1.6465 N   0  0  0  0  0  0  0  0  0  0  0  0
   -0.9949   -2.1807    1.3864 C   0  0  2  0  0  0  0  0  0  0  0  0
   -0.3083   -0.8216    1.4164 C   0  0  0  0  0  0  0  0  0  0  0  0
    0.7533   -0.6191    2.0022 O   0  0  0  0  0  0  0  0  0  0  0  0
   -2.1232   -2.2423    2.4042 C   0  0  0  0  0  0  0  0  0  0  0  0
   -0.3048   -4.0823    2.0245 H   0  0  0  0  0  0  0  0  0  0  0  0
   -1.3830   -2.3724    0.3801 H   0  0  0  0  0  0  0  0  0  0  0  0
   -1.7534   -2.0527    3.4185 H   0  0  0  0  0  0  0  0  0  0  0  0
   -2.8936   -1.4947    2.1882 H   0  0  0  0  0  0  0  0  0  0  0  0
   -2.5964   -3.2301    2.4022 H   0  0  0  0  0  0  0  0  0  0  0  0
   -1.0412    0.1517    0.7482 N   0  0  0  0  0  0  0  0  0  0  0  0
   -0.6079    1.5223    0.6467 C   0  0  2  0  0  0  0  0  0  0  0  0
    0.8765    1.5269    0.2840 C   0  0  0  0  0  0  0  0  0  0  0  0
    1.7702    1.4988    1.1278 O   0  0  0  0  0  0  0  0  0  0  0  0
   -0.9087    2.3473    1.9214 C   0  0  2  0  0  0  0  0  0  0  0  0
   -2.4238    2.4586    2.2016 C   0  0  0  0  0  0  0  0  0  0  0  0
   -0.2479    3.7288    1.8246 C   0  0  0  0  0  0  0  0  0  0  0  0
   -2.7464    3.0292    3.5767 C   0  0  0  0  0  0  0  0  0  0  0  0
   -1.9022   -0.1128    0.2753 H   0  0  0  0  0  0  0  0  0  0  0  0
   -1.1536    1.9471   -0.2055 H   0  0  0  0  0  0  0  0  0  0  0  0
   -0.4490    1.8311    2.7748 H   0  0  0  0  0  0  0  0  0  0  0  0
   -2.8886    3.1115    1.4539 H   0  0  0  0  0  0  0  0  0  0  0  0
   -2.9032    1.4770    2.1075 H   0  0  0  0  0  0  0  0  0  0  0  0
   -0.6629    4.3011    0.9880 H   0  0  0  0  0  0  0  0  0  0  0  0
   -0.4223    4.3157    2.7316 H   0  0  0  0  0  0  0  0  0  0  0  0
    0.8340    3.6472    1.6773 H   0  0  0  0  0  0  0  0  0  0  0  0
   -2.3108    2.4237    4.3765 H   0  0  0  0  0  0  0  0  0  0  0  0
   -3.8305    3.0455    3.7300 H   0  0  0  0  0  0  0  0  0  0  0  0
   -2.3760    4.0545    3.6740 H   0  0  0  0  0  0  0  0  0  0  0  0
    1.0803    1.5325   -1.0885 N   0  0  0  0  0  0  0  0  0  0  0  0
    2.3917    1.5179   -1.6955 C   0  0  2  0  0  0  0  0  0  0  0  0
    2.2666    0.8746   -3.0703 C   0  0  0  0  0  0  0  0  0  0  0  0
    1.3473    0.1177   -3.3755 O   0  0  0  0  0  0  0  0  0  0  0  0
    3.3926    0.7655   -0.8324 C   0  0  0  0  0  0  0  0  0  0  0  0
    0.2671    1.5476   -1.6970 H   0  0  0  0  0  0  0  0  0  0  0  0
    2.7001    2.5631   -1.8075 H   0  0  0  0  0  0  0  0  0  0  0  0
    3.1004   -0.2837   -0.7089 H   0  0  0  0  0  0  0  0  0  0  0  0
    4.3920    0.7799   -1.2797 H   0  0  0  0  0  0  0  0  0  0  0  0
    3.4593    1.2116    0.1658 H   0  0  0  0  0  0  0  0  0  0  0  0
    3.3253    1.2109   -3.9022 N   0  0  0  0  0  0  0  0  0  0  0  0
    3.4420    0.7164   -5.2542 C   0  0  0  0  0  0  0  0  0  0  0  0
    4.0333    1.8602   -3.5723 H   0  0  0  0  0  0  0  0  0  0  0  0
    4.0428   -0.2051   -5.2575 H   0  0  0  0  0  0  0  0  0  0  0  0
    2.4399    0.5020   -5.6539 H   0  0  0  0  0  0  0  0  0  0  0  0
    3.9321    1.4758   -5.8812 H   0  0  0  0  0  0  0  0  0  0  0  0
  1  3  1  0  0  0  0
  1  7  1  0  0  0  0
  1  2  2  0  0  0  0
 37 38  1  0  0  0  0
 38 46  1  0  0  0  0
 38 39  2  0  0  0  0
  8  9  1  0  0  0  0
  9 17  1  0  0  0  0
  9 10  2  0  0  0  0
 18 19  1  0  0  0  0
 19 36  1  0  0  0  0
 19 20  2  0  0  0  0
 22 24  1  0  0  0  0
 37 40  1  0  0  0  0
  8 11  1  0  0  0  0
 21 23  1  0  0  0  0
 46 47  1  0  0  0  0
 21 22  1  0  0  0  0
 36 37  1  0  0  0  0
  7  8  1  0  0  0  0
 18 21  1  0  0  0  0
 17 18  1  0  0  0  0
  3  4  1  0  0  0  0
  3  5  1  0  0  0  0
  3  6  1  0  0  0  0
 24 33  1  0  0  0  0
 24 34  1  0  0  0  0
 24 35  1  0  0  0  0
 40 43  1  0  0  0  0
 40 44  1  0  0  0  0
 40 45  1  0  0  0  0
 11 14  1  0  0  0  0
 11 15  1  0  0  0  0
 11 16  1  0  0  0  0
 23 30  1  0  0  0  0
 23 31  1  0  0  0  0
 23 32  1  0  0  0  0
 47 49  1  0  0  0  0
 47 50  1  0  0  0  0
 47 51  1  0  0  0  0
 22 28  1  0  0  0  0
 22 29  1  0  0  0  0
 37 42  1  0  0  0  0
  8 13  1  0  0  0  0
 18 26  1  0  0  0  0
 21 27  1  0  0  0  0
 46 48  1  0  0  0  0
  7 12  1  0  0  0  0
 36 41  1  0  0  0  0
 17 25  1  0  0  0  0
M  END
$$$$

  -OEChem-05262214473D

 51 50  0     1  0  0  0  0  0999 V2000
    1.3524   -3.0009    1.4091 C   0  0  0  0  0  0  0  0  0  0  0  0
    1.8758   -1.9880    0.9598 O   0  0  0  0  0  0  0  0  0  0  0  0
    2.2030   -4.1782    1.7536 C   0  0  0  0  0  0  0  0  0  0  0  0
    2.3264   -4.8705    0.9053 H   0  0  0  0  0  0  0  0  0  0  0  0
    3.2257   -3.8876    2.0432 H   0  0  0  0  0  0  0  0  0  0  0  0
    1.8327   -4.8004    2.5839 H   0  0  0  0  0  0  0  0  0  0  0  0
    0.0005   -3.1873    1.6465 N   0  0  0  0  0  0  0  0  0  0  0  0
   -0.9949   -2.1807    1.3864 C   0  0  2  0  0  0  0  0  0  0  0  0
   -0.3083   -0.8216    1.4164 C   0  0  0  0  0  0  0  0  0  0  0  0
    0.7533   -0.6191    2.0022 O   0  0  0  0  0  0  0  0  0  0  0  0
   -2.1232   -2.2423    2.4042 C   0  0  0  0  0  0  0  0  0  0  0  0
   -0.3048   -4.0823    2.0245 H   0  0  0  0  0  0  0  0  0  0  0  0
   -1.3830   -2.3724    0.3801 H   0  0  0  0  0  0  0  0  0  0  0  0
   -1.7534   -2.0527    3.4185 H   0  0  0  0  0  0  0  0  0  0  0  0
   -2.8936   -1.4947    2.1882 H   0  0  0  0  0  0  0  0  0  0  0  0
   -2.5964   -3.2301    2.4022 H   0  0  0  0  0  0  0  0  0  0  0  0
   -1.0412    0.1517    0.7482 N   0  0  0  0  0  0  0  0  0  0  0  0
   -0.6079    1.5223    0.6467 C   0  0  2  0  0  0  0  0  0  0  0  0
    0.8765    1.5269    0.2840 C   0  0  0  0  0  0  0  0  0  0  0  0
    1.7608    1.2328    1.0859 O   0  0  0  0  0  0  0  0  0  0  0  0
   -0.9087    2.3473    1.9214 C   0  0  2  0  0  0  0  0  0  0  0  0
   -2.4238    2.4586    2.2016 C   0  0  0  0  0  0  0  0  0  0  0  0
   -0.2479    3.7288    1.8246 C   0  0  0  0  0  0  0  0  0  0  0  0
   -2.7464    3.0292    3.5767 C   0  0  0  0  0  0  0  0  0  0  0  0
   -1.9022   -0.1128    0.2753 H   0  0  0  0  0  0  0  0  0  0  0  0
   -1.1536    1.9471   -0.2055 H   0  0  0  0  0  0  0  0  0  0  0  0
   -0.4490    1.8311    2.7748 H   0  0  0  0  0  0  0  0  0  0  0  0
   -2.8886    3.1115    1.4539 H   0  0  0  0  0  0  0  0  0  0  0  0
   -2.9032    1.4770    2.1075 H   0  0  0  0  0  0  0  0  0  0  0  0
   -0.6629    4.3011    0.9880 H   0  0  0  0  0  0  0  0  0  0  0  0
   -0.4223    4.3157    2.7316 H   0  0  0  0  0  0  0  0  0  0  0  0
    0.8340    3.6472    1.6773 H   0  0  0  0  0  0  0  0  0  0  0  0
   -2.3108    2.4237    4.3765 H   0  0  0  0  0  0  0  0  0  0  0  0
   -3.8305    3.0455    3.7300 H   0  0  0  0  0  0  0  0  0  0  0  0
   -2.3760    4.0545    3.6740 H   0  0  0  0  0  0  0  0  0  0  0  0
    1.0900    1.8649   -1.0447 N   0  0  0  0  0  0  0  0  0  0  0  0
    2.4023    1.9230   -1.6472 C   0  0  2  0  0  0  0  0  0  0  0  0
    2.2475    1.6550   -3.1384 C   0  0  0  0  0  0  0  0  0  0  0  0
    1.2856    1.0570   -3.6161 O   0  0  0  0  0  0  0  0  0  0  0  0
    3.3488    0.9179   -1.0096 C   0  0  0  0  0  0  0  0  0  0  0  0
    0.2836    2.0824   -1.6228 H   0  0  0  0  0  0  0  0  0  0  0  0
    2.7751    2.9419   -1.4955 H   0  0  0  0  0  0  0  0  0  0  0  0
    2.9918   -0.1087   -1.1514 H   0  0  0  0  0  0  0  0  0  0  0  0
    4.3503    0.9829   -1.4476 H   0  0  0  0  0  0  0  0  0  0  0  0
    3.4358    1.0937    0.0680 H   0  0  0  0  0  0  0  0  0  0  0  0
    3.3308    2.1241   -3.8682 N   0  0  0  0  0  0  0  0  0  0  0  0
    3.4264    1.9792   -5.3020 C   0  0  0  0  0  0  0  0  0  0  0  0
    4.0751    2.6249   -3.3917 H   0  0  0  0  0  0  0  0  0  0  0  0
    3.9694    1.0532   -5.5421 H   0  0  0  0  0  0  0  0  0  0  0  0
    2.4159    1.9341   -5.7341 H   0  0  0  0  0  0  0  0  0  0  0  0
    3.9668    2.8403   -5.7222 H   0  0  0  0  0  0  0  0  0  0  0  0
  1  3  1  0  0  0  0
  1  7  1  0  0  0  0
  1  2  2  0  0  0  0
 37 38  1  0  0  0  0
 38 46  1  0  0  0  0
 38 39  2  0  0  0  0
  8  9  1  0  0  0  0
  9 17  1  0  0  0  0
  9 10  2  0  0  0  0
 18 19  1  0  0  0  0
 19 36  1  0  0  0  0
 19 20  2  0  0  0  0
 22 24  1  0  0  0  0
 37 40  1  0  0  0  0
  8 11  1  0  0  0  0
 21 23  1  0  0  0  0
 46 47  1  0  0  0  0
 21 22  1  0  0  0  0
 36 37  1  0  0  0  0
  7  8  1  0  0  0  0
 18 21  1  0  0  0  0
 17 18  1  0  0  0  0
  3  4  1  0  0  0  0
  3  5  1  0  0  0  0
  3  6  1  0  0  0  0
 24 33  1  0  0  0  0
 24 34  1  0  0  0  0
 24 35  1  0  0  0  0
 40 43  1  0  0  0  0
 40 44  1  0  0  0  0
 40 45  1  0  0  0  0
 11 14  1  0  0  0  0
 11 15  1  0  0  0  0
 11 16  1  0  0  0  0
 23 30  1  0  0  0  0
 23 31  1  0  0  0  0
 23 32  1  0  0  0  0
 47 49  1  0  0  0  0
 47 50  1  0  0  0  0
 47 51  1  0  0  0  0
 22 28  1  0  0  0  0
 22 29  1  0  0  0  0
 37 42  1  0  0  0  0
  8 13  1  0  0  0  0
 18 26  1  0  0  0  0
 21 27  1  0  0  0  0
 46 48  1  0  0  0  0
  7 12  1  0  0  0  0
 36 41  1  0  0  0  0
 17 25  1  0  0  0  0
M  END
$$$$

  -OEChem-05262214473D

 51 50  0     1  0  0  0  0  0999 V2000
    1.3524   -3.0009    1.4091 C   0  0  0  0  0  0  0  0  0  0  0  0
    1.8758   -1.9880    0.9598 O   0  0  0  0  0  0  0  0  0  0  0  0
    2.2030   -4.1782    1.7536 C   0  0  0  0  0  0  0  0  0  0  0  0
    2.3264   -4.8705    0.9053 H   0  0  0  0  0  0  0  0  0  0  0  0
    3.2257   -3.8876    2.0432 H   0  0  0  0  0  0  0  0  0  0  0  0
    1.8327   -4.8004    2.5839 H   0  0  0  0  0  0  0  0  0  0  0  0
    0.0005   -3.1873    1.6465 N   0  0  0  0  0  0  0  0  0  0  0  0
   -0.9949   -2.1807    1.3864 C   0  0  2  0  0  0  0  0  0  0  0  0
   -0.3083   -0.8216    1.4164 C   0  0  0  0  0  0  0  0  0  0  0  0
    0.7533   -0.6191    2.0022 O   0  0  0  0  0  0  0  0  0  0  0  0
   -2.1232   -2.2423    2.4042 C   0  0  0  0  0  0  0  0  0  0  0  0
   -0.3048   -4.0823    2.0245 H   0  0  0  0  0  0  0  0  0  0  0  0
   -1.3830   -2.3724    0.3801 H   0  0  0  0  0  0  0  0  0  0  0  0
   -1.7534   -2.0527    3.4185 H   0  0  0  0  0  0  0  0  0  0  0  0
   -2.8936   -1.4947    2.1882 H   0  0  0  0  0  0  0  0  0  0  0  0
   -2.5964   -3.2301    2.4022 H   0  0  0  0  0  0  0  0  0  0  0  0
   -1.0412    0.1517    0.7482 N   0  0  0  0  0  0  0  0  0  0  0  0
   -0.6079    1.5223    0.6467 C   0  0  2  0  0  0  0  0  0  0  0  0
    0.8765    1.5269    0.2840 C   0  0  0  0  0  0  0  0  0  0  0  0
    1.7353    0.9869    0.9786 O   0  0  0  0  0  0  0  0  0  0  0  0
   -0.9087    2.3473    1.9214 C   0  0  2  0  0  0  0  0  0  0  0  0
   -2.4238    2.4586    2.2016 C   0  0  0  0  0  0  0  0  0  0  0  0
   -0.2479    3.7288    1.8246 C   0  0  0  0  0  0  0  0  0  0  0  0
   -2.7464    3.0292    3.5767 C   0  0  0  0  0  0  0  0  0  0  0  0
   -1.9022   -0.1128    0.2753 H   0  0  0  0  0  0  0  0  0  0  0  0
   -1.1536    1.9471   -0.2055 H   0  0  0  0  0  0  0  0  0  0  0  0
   -0.4490    1.8311    2.7748 H   0  0  0  0  0  0  0  0  0  0  0  0
   -2.8886    3.1115    1.4539 H   0  0  0  0  0  0  0  0  0  0  0  0
   -2.9032    1.4770    2.1075 H   0  0  0  0  0  0  0  0  0  0  0  0
   -0.6629    4.3011    0.9880 H   0  0  0  0  0  0  0  0  0  0  0  0
   -0.4223    4.3157    2.7316 H   0  0  0  0  0  0  0  0  0  0  0  0
    0.8340    3.6472    1.6773 H   0  0  0  0  0  0  0  0  0  0  0  0
   -2.3108    2.4237    4.3765 H   0  0  0  0  0  0  0  0  0  0  0  0
   -3.8305    3.0455    3.7300 H   0  0  0  0  0  0  0  0  0  0  0  0
   -2.3760    4.0545    3.6740 H   0  0  0  0  0  0  0  0  0  0  0  0
    1.1198    2.1744   -0.9189 N   0  0  0  0  0  0  0  0  0  0  0  0
    2.4374    2.3016   -1.4987 C   0  0  2  0  0  0  0  0  0  0  0  0
    2.2770    2.4271   -3.0080 C   0  0  0  0  0  0  0  0  0  0  0  0
    1.2835    2.0286   -3.6124 O   0  0  0  0  0  0  0  0  0  0  0  0
    3.3158    1.1123   -1.1425 C   0  0  0  0  0  0  0  0  0  0  0  0
    0.3324    2.5793   -1.4167 H   0  0  0  0  0  0  0  0  0  0  0  0
    2.8712    3.2246   -1.0989 H   0  0  0  0  0  0  0  0  0  0  0  0
    2.8972    0.1782   -1.5347 H   0  0  0  0  0  0  0  0  0  0  0  0
    4.3225    1.2238   -1.5586 H   0  0  0  0  0  0  0  0  0  0  0  0
    3.4058    1.0058   -0.0560 H   0  0  0  0  0  0  0  0  0  0  0  0
    3.3922    2.9973   -3.6057 N   0  0  0  0  0  0  0  0  0  0  0  0
    3.4889    3.2120   -5.0307 C   0  0  0  0  0  0  0  0  0  0  0  0
    4.1625    3.3155   -3.0251 H   0  0  0  0  0  0  0  0  0  0  0  0
    3.9756    2.3446   -5.5005 H   0  0  0  0  0  0  0  0  0  0  0  0
    2.4806    3.3391   -5.4515 H   0  0  0  0  0  0  0  0  0  0  0  0
    4.0842    4.1163   -5.2255 H   0  0  0  0  0  0  0  0  0  0  0  0
  1  3  1  0  0  0  0
  1  7  1  0  0  0  0
  1  2  2  0  0  0  0
 37 38  1  0  0  0  0
 38 46  1  0  0  0  0
 38 39  2  0  0  0  0
  8  9  1  0  0  0  0
  9 17  1  0  0  0  0
  9 10  2  0  0  0  0
 18 19  1  0  0  0  0
 19 36  1  0  0  0  0
 19 20  2  0  0  0  0
 22 24  1  0  0  0  0
 37 40  1  0  0  0  0
  8 11  1  0  0  0  0
 21 23  1  0  0  0  0
 46 47  1  0  0  0  0
 21 22  1  0  0  0  0
 36 37  1  0  0  0  0
  7  8  1  0  0  0  0
 18 21  1  0  0  0  0
 17 18  1  0  0  0  0
  3  4  1  0  0  0  0
  3  5  1  0  0  0  0
  3  6  1  0  0  0  0
 24 33  1  0  0  0  0
 24 34  1  0  0  0  0
 24 35  1  0  0  0  0
 40 43  1  0  0  0  0
 40 44  1  0  0  0  0
 40 45  1  0  0  0  0
 11 14  1  0  0  0  0
 11 15  1  0  0  0  0
 11 16  1  0  0  0  0
 23 30  1  0  0  0  0
 23 31  1  0  0  0  0
 23 32  1  0  0  0  0
 47 49  1  0  0  0  0
 47 50  1  0  0  0  0
 47 51  1  0  0  0  0
 22 28  1  0  0  0  0
 22 29  1  0  0  0  0
 37 42  1  0  0  0  0
  8 13  1  0  0  0  0
 18 26  1  0  0  0  0
 21 27  1  0  0  0  0
 46 48  1  0  0  0  0
  7 12  1  0  0  0  0
 36 41  1  0  0  0  0
 17 25  1  0  0  0  0
M  END
$$$$

  -OEChem-05262214473D

 51 50  0     1  0  0  0  0  0999 V2000
    1.3524   -3.0009    1.4091 C   0  0  0  0  0  0  0  0  0  0  0  0
    1.8758   -1.9880    0.9598 O   0  0  0  0  0  0  0  0  0  0  0  0
    2.2030   -4.1782    1.7536 C   0  0  0  0  0  0  0  0  0  0  0  0
    2.3264   -4.8705    0.9053 H   0  0  0  0  0  0  0  0  0  0  0  0
    3.2257   -3.8876    2.0432 H   0  0  0  0  0  0  0  0  0  0  0  0
    1.8327   -4.8004    2.5839 H   0  0  0  0  0  0  0  0  0  0  0  0
    0.0005   -3.1873    1.6465 N   0  0  0  0  0  0  0  0  0  0  0  0
   -0.9949   -2.1807    1.3864 C   0  0  2  0  0  0  0  0  0  0  0  0
   -0.3083   -0.8216    1.4164 C   0  0  0  0  0  0  0  0  0  0  0  0
    0.7533   -0.6191    2.0022 O   0  0  0  0  0  0  0  0  0  0  0  0
   -2.1232   -2.2423    2.4042 C   0  0  0  0  0  0  0  0  0  0  0  0
   -0.3048   -4.0823    2.0245 H   0  0  0  0  0  0  0  0  0  0  0  0
   -1.3830   -2.3724    0.3801 H   0  0  0  0  0  0  0  0  0  0  0  0
   -1.7534   -2.0527    3.4185 H   0  0  0  0  0  0  0  0  0  0  0  0
   -2.8936   -1.4947    2.1882 H   0  0  0  0  0  0  0  0  0  0  0  0
   -2.5964   -3.2301    2.4022 H   0  0  0  0  0  0  0  0  0  0  0  0
   -1.0412    0.1517    0.7482 N   0  0  0  0  0  0  0  0  0  0  0  0
   -0.6079    1.5223    0.6467 C   0  0  2  0  0  0  0  0  0  0  0  0
    0.8765    1.5269    0.2840 C   0  0  0  0  0  0  0  0  0  0  0  0
    1.6955    0.7780    0.8131 O   0  0  0  0  0  0  0  0  0  0  0  0
   -0.9087    2.3473    1.9214 C   0  0  2  0  0  0  0  0  0  0  0  0
   -2.4238    2.4586    2.2016 C   0  0  0  0  0  0  0  0  0  0  0  0
   -0.2479    3.7288    1.8246 C   0  0  0  0  0  0  0  0  0  0  0  0
   -2.7464    3.0292    3.5767 C   0  0  0  0  0  0  0  0  0  0  0  0
   -1.9022   -0.1128    0.2753 H   0  0  0  0  0  0  0  0  0  0  0  0
   -1.1536    1.9471   -0.2055 H   0  0  0  0  0  0  0  0  0  0  0  0
   -0.4490    1.8311    2.7748 H   0  0  0  0  0  0  0  0  0  0  0  0
   -2.8886    3.1115    1.4539 H   0  0  0  0  0  0  0  0  0  0  0  0
   -2.9032    1.4770    2.1075 H   0  0  0  0  0  0  0  0  0  0  0  0
   -0.6629    4.3011    0.9880 H   0  0  0  0  0  0  0  0  0  0  0  0
   -0.4223    4.3157    2.7316 H   0  0  0  0  0  0  0  0  0  0  0  0
    0.8340    3.6472    1.6773 H   0  0  0  0  0  0  0  0  0  0  0  0
   -2.3108    2.4237    4.3765 H   0  0  0  0  0  0  0  0  0  0  0  0
   -3.8305    3.0455    3.7300 H   0  0  0  0  0  0  0  0  0  0  0  0
   -2.3760    4.0545    3.6740 H   0  0  0  0  0  0  0  0  0  0  0  0
    1.1677    2.4399   -0.7195 N   0  0  0  0  0  0  0  0  0  0  0  0
    2.4947    2.6277   -1.2601 C   0  0  2  0  0  0  0  0  0  0  0  0
    2.3530    3.1383   -2.6879 C   0  0  0  0  0  0  0  0  0  0  0  0
    1.3412    2.9663   -3.3645 O   0  0  0  0  0  0  0  0  0  0  0  0
    3.2957    1.3355   -1.2219 C   0  0  0  0  0  0  0  0  0  0  0  0
    0.4103    3.0045   -1.0928 H   0  0  0  0  0  0  0  0  0  0  0  0
    2.9816    3.3922   -0.6448 H   0  0  0  0  0  0  0  0  0  0  0  0
    2.8233    0.5576   -1.8327 H   0  0  0  0  0  0  0  0  0  0  0  0
    4.3102    1.4861   -1.6053 H   0  0  0  0  0  0  0  0  0  0  0  0
    3.3713    0.9540   -0.1979 H   0  0  0  0  0  0  0  0  0  0  0  0
    3.5054    3.7709   -3.1327 N   0  0  0  0  0  0  0  0  0  0  0  0
    3.6252    4.3307   -4.4587 C   0  0  0  0  0  0  0  0  0  0  0  0
    4.2897    3.8851   -2.4974 H   0  0  0  0  0  0  0  0  0  0  0  0
    4.0609    3.5811   -5.1357 H   0  0  0  0  0  0  0  0  0  0  0  0
    2.6296    4.6211   -4.8253 H   0  0  0  0  0  0  0  0  0  0  0  0
    4.2764    5.2167   -4.4251 H   0  0  0  0  0  0  0  0  0  0  0  0
  1  3  1  0  0  0  0
  1  7  1  0  0  0  0
  1  2  2  0  0  0  0
 37 38  1  0  0  0  0
 38 46  1  0  0  0  0
 38 39  2  0  0  0  0
  8  9  1  0  0  0  0
  9 17  1  0  0  0  0
  9 10  2  0  0  0  0
 18 19  1  0  0  0  0
 19 36  1  0  0  0  0
 19 20  2  0  0  0  0
 22 24  1  0  0  0  0
 37 40  1  0  0  0  0
  8 11  1  0  0  0  0
 21 23  1  0  0  0  0
 46 47  1  0  0  0  0
 21 22  1  0  0  0  0
 36 37  1  0  0  0  0
  7  8  1  0  0  0  0
 18 21  1  0  0  0  0
 17 18  1  0  0  0  0
  3  4  1  0  0  0  0
  3  5  1  0  0  0  0
  3  6  1  0  0  0  0
 24 33  1  0  0  0  0
 24 34  1  0  0  0  0
 24 35  1  0  0  0  0
 40 43  1  0  0  0  0
 40 44  1  0  0  0  0
 40 45  1  0  0  0  0
 11 14  1  0  0  0  0
 11 15  1  0  0  0  0
 11 16  1  0  0  0  0
 23 30  1  0  0  0  0
 23 31  1  0  0  0  0
 23 32  1  0  0  0  0
 47 49  1  0  0  0  0
 47 50  1  0  0  0  0
 47 51  1  0  0  0  0
 22 28  1  0  0  0  0
 22 29  1  0  0  0  0
 37 42  1  0  0  0  0
  8 13  1  0  0  0  0
 18 26  1  0  0  0  0
 21 27  1  0  0  0  0
 46 48  1  0  0  0  0
  7 12  1  0  0  0  0
 36 41  1  0  0  0  0
 17 25  1  0  0  0  0
M  END
$$$$

  -OEChem-05262214473D

 51 50  0     1  0  0  0  0  0999 V2000
    1.3524   -3.0009    1.4091 C   0  0  0  0  0  0  0  0  0  0  0  0
    1.8758   -1.9880    0.9598 O   0  0  0  0  0  0  0  0  0  0  0  0
    2.2030   -4.1782    1.7536 C   0  0  0  0  0  0  0  0  0  0  0  0
    2.3264   -4.8705    0.9053 H   0  0  0  0  0  0  0  0  0  0  0  0
    3.2257   -3.8876    2.0432 H   0  0  0  0  0  0  0  0  0  0  0  0
    1.8327   -4.8004    2.5839 H   0  0  0  0  0  0  0  0  0  0  0  0
    0.0005   -3.1873    1.6465 N   0  0  0  0  0  0  0  0  0  0  0  0
   -0.9949   -2.1807    1.3864 C   0  0  2  0  0  0  0  0  0  0  0  0
   -0.3083   -0.8216    1.4164 C   0  0  0  0  0  0  0  0  0  0  0  0
    0.7533   -0.6191    2.0022 O   0  0  0  0  0  0  0  0  0  0  0  0
   -2.1232   -2.2423    2.4042 C   0  0  0  0  0  0  0  0  0  0  0  0
   -0.3048   -4.0823    2.0245 H   0  0  0  0  0  0  0  0  0  0  0  0
   -1.3830   -2.3724    0.3801 H   0  0  0  0  0  0  0  0  0  0  0  0
   -1.7534   -2.0527    3.4185 H   0  0  0  0  0  0  0  0  0  0  0  0
   -2.8936   -1.4947    2.1882 H   0  0  0  0  0  0  0  0  0  0  0  0
   -2.5964   -3.2301    2.4022 H   0  0  0  0  0  0  0  0  0  0  0  0
   -1.0412    0.1517    0.7482 N   0  0  0  0  0  0  0  0  0  0  0  0
   -0.6079    1.5223    0.6467 C   0  0  2  0  0  0  0  0  0  0  0  0
    0.8765    1.5269    0.2840 C   0  0  0  0  0  0  0  0  0  0  0  0
    1.6441    0.6203    0.6008 O   0  0  0  0  0  0  0  0  0  0  0  0
   -0.9087    2.3473    1.9214 C   0  0  2  0  0  0  0  0  0  0  0  0
   -2.4238    2.4586    2.2016 C   0  0  0  0  0  0  0  0  0  0  0  0
   -0.2479    3.7288    1.8246 C   0  0  0  0  0  0  0  0  0  0  0  0
   -2.7464    3.0292    3.5767 C   0  0  0  0  0  0  0  0  0  0  0  0
   -1.9022   -0.1128    0.2753 H   0  0  0  0  0  0  0  0  0  0  0  0
   -1.1536    1.9471   -0.2055 H   0  0  0  0  0  0  0  0  0  0  0  0
   -0.4490    1.8311    2.7748 H   0  0  0  0  0  0  0  0  0  0  0  0
   -2.8886    3.1115    1.4539 H   0  0  0  0  0  0  0  0  0  0  0  0
   -2.9032    1.4770    2.1075 H   0  0  0  0  0  0  0  0  0  0  0  0
   -0.6629    4.3011    0.9880 H   0  0  0  0  0  0  0  0  0  0  0  0
   -0.4223    4.3157    2.7316 H   0  0  0  0  0  0  0  0  0  0  0  0
    0.8340    3.6472    1.6773 H   0  0  0  0  0  0  0  0  0  0  0  0
   -2.3108    2.4237    4.3765 H   0  0  0  0  0  0  0  0  0  0  0  0
   -3.8305    3.0455    3.7300 H   0  0  0  0  0  0  0  0  0  0  0  0
   -2.3760    4.0545    3.6740 H   0  0  0  0  0  0  0  0  0  0  0  0
    1.2304    2.6433   -0.4602 N   0  0  0  0  0  0  0  0  0  0  0  0
    2.5703    2.8792   -0.9477 C   0  0  2  0  0  0  0  0  0  0  0  0
    2.4704    3.7401   -2.2000 C   0  0  0  0  0  0  0  0  0  0  0  0
    1.4547    3.8061   -2.8893 O   0  0  0  0  0  0  0  0  0  0  0  0
    3.2899    1.5723   -1.2424 C   0  0  0  0  0  0  0  0  0  0  0  0
    0.5118    3.3289   -0.6730 H   0  0  0  0  0  0  0  0  0  0  0  0
    3.0989    3.4331   -0.1642 H   0  0  0  0  0  0  0  0  0  0  0  0
    2.7749    1.0034   -2.0251 H   0  0  0  0  0  0  0  0  0  0  0  0
    4.3145    1.7520   -1.5845 H   0  0  0  0  0  0  0  0  0  0  0  0
    3.3346    0.9417   -0.3480 H   0  0  0  0  0  0  0  0  0  0  0  0
    3.6627    4.3924   -2.4814 N   0  0  0  0  0  0  0  0  0  0  0  0
    3.8261    5.2591   -3.6251 C   0  0  0  0  0  0  0  0  0  0  0  0
    4.4480    4.2948   -1.8446 H   0  0  0  0  0  0  0  0  0  0  0  0
    4.2196    4.6786   -4.4725 H   0  0  0  0  0  0  0  0  0  0  0  0
    2.8528    5.6929   -3.8983 H   0  0  0  0  0  0  0  0  0  0  0  0
    4.5302    6.0665   -3.3754 H   0  0  0  0  0  0  0  0  0  0  0  0
  1  3  1  0  0  0  0
  1  7  1  0  0  0  0
  1  2  2  0  0  0  0
 37 38  1  0  0  0  0
 38 46  1  0  0  0  0
 38 39  2  0  0  0  0
  8  9  1  0  0  0  0
  9 17  1  0  0  0  0
  9 10  2  0  0  0  0
 18 19  1  0  0  0  0
 19 36  1  0  0  0  0
 19 20  2  0  0  0  0
 22 24  1  0  0  0  0
 37 40  1  0  0  0  0
  8 11  1  0  0  0  0
 21 23  1  0  0  0  0
 46 47  1  0  0  0  0
 21 22  1  0  0  0  0
 36 37  1  0  0  0  0
  7  8  1  0  0  0  0
 18 21  1  0  0  0  0
 17 18  1  0  0  0  0
  3  4  1  0  0  0  0
  3  5  1  0  0  0  0
  3  6  1  0  0  0  0
 24 33  1  0  0  0  0
 24 34  1  0  0  0  0
 24 35  1  0  0  0  0
 40 43  1  0  0  0  0
 40 44  1  0  0  0  0
 40 45  1  0  0  0  0
 11 14  1  0  0  0  0
 11 15  1  0  0  0  0
 11 16  1  0  0  0  0
 23 30  1  0  0  0  0
 23 31  1  0  0  0  0
 23 32  1  0  0  0  0
 47 49  1  0  0  0  0
 47 50  1  0  0  0  0
 47 51  1  0  0  0  0
 22 28  1  0  0  0  0
 22 29  1  0  0  0  0
 37 42  1  0  0  0  0
  8 13  1  0  0  0  0
 18 26  1  0  0  0  0
 21 27  1  0  0  0  0
 46 48  1  0  0  0  0
  7 12  1  0  0  0  0
 36 41  1  0  0  0  0
 17 25  1  0  0  0  0
M  END
$$$$

  -OEChem-05262214473D

 51 50  0     1  0  0  0  0  0999 V2000
    1.3524   -3.0009    1.4091 C   0  0  0  0  0  0  0  0  0  0  0  0
    1.8758   -1.9880    0.9598 O   0  0  0  0  0  0  0  0  0  0  0  0
    2.2030   -4.1782    1.7536 C   0  0  0  0  0  0  0  0  0  0  0  0
    2.3264   -4.8705    0.9053 H   0  0  0  0  0  0  0  0  0  0  0  0
    3.2257   -3.8876    2.0432 H   0  0  0  0  0  0  0  0  0  0  0  0
    1.8327   -4.8004    2.5839 H   0  0  0  0  0  0  0  0  0  0  0  0
    0.0005   -3.1873    1.6465 N   0  0  0  0  0  0  0  0  0  0  0  0
   -0.9949   -2.1807    1.3864 C   0  0  2  0  0  0  0  0  0  0  0  0
   -0.3083   -0.8216    1.4164 C   0  0  0  0  0  0  0  0  0  0  0  0
    0.7533   -0.6191    2.0022 O   0  0  0  0  0  0  0  0  0  0  0  0
   -2.1232   -2.2423    2.4042 C   0  0  0  0  0  0  0  0  0  0  0  0
   -0.3048   -4.0823    2.0245 H   0  0  0  0  0  0  0  0  0  0  0  0
   -1.3830   -2.3724    0.3801 H   0  0  0  0  0  0  0  0  0  0  0  0
   -1.7534   -2.0527    3.4185 H   0  0  0  0  0  0  0  0  0  0  0  0
   -2.8936   -1.4947    2.1882 H   0  0  0  0  0  0  0  0  0  0  0  0
   -2.5964   -3.2301    2.4022 H   0  0  0  0  0  0  0  0  0  0  0  0
   -1.0412    0.1517    0.7482 N   0  0  0  0  0  0  0  0  0  0  0  0
   -0.6079    1.5223    0.6467 C   0  0  2  0  0  0  0  0  0  0  0  0
    0.8765    1.5269    0.2840 C   0  0  0  0  0  0  0  0  0  0  0  0
    1.5846    0.5245    0.3560 O   0  0  0  0  0  0  0  0  0  0  0  0
   -0.9087    2.3473    1.9214 C   0  0  2  0  0  0  0  0  0  0  0  0
   -2.4238    2.4586    2.2016 C   0  0  0  0  0  0  0  0  0  0  0  0
   -0.2479    3.7288    1.8246 C   0  0  0  0  0  0  0  0  0  0  0  0
   -2.7464    3.0292    3.5767 C   0  0  0  0  0  0  0  0  0  0  0  0
   -1.9022   -0.1128    0.2753 H   0  0  0  0  0  0  0  0  0  0  0  0
   -1.1536    1.9471   -0.2055 H   0  0  0  0  0  0  0  0  0  0  0  0
   -0.4490    1.8311    2.7748 H   0  0  0  0  0  0  0  0  0  0  0  0
   -2.8886    3.1115    1.4539 H   0  0  0  0  0  0  0  0  0  0  0  0
   -2.9032    1.4770    2.1075 H   0  0  0  0  0  0  0  0  0  0  0  0
   -0.6629    4.3011    0.9880 H   0  0  0  0  0  0  0  0  0  0  0  0
   -0.4223    4.3157    2.7316 H   0  0  0  0  0  0  0  0  0  0  0  0
    0.8340    3.6472    1.6773 H   0  0  0  0  0  0  0  0  0  0  0  0
   -2.3108    2.4237    4.3765 H   0  0  0  0  0  0  0  0  0  0  0  0
   -3.8305    3.0455    3.7300 H   0  0  0  0  0  0  0  0  0  0  0  0
   -2.3760    4.0545    3.6740 H   0  0  0  0  0  0  0  0  0  0  0  0
    1.3037    2.7707   -0.1587 N   0  0  0  0  0  0  0  0  0  0  0  0
    2.6590    3.0389   -0.5827 C   0  0  2  0  0  0  0  0  0  0  0  0
    2.6211    4.1915   -1.5775 C   0  0  0  0  0  0  0  0  0  0  0  0
    1.6163    4.4909   -2.2193 O   0  0  0  0  0  0  0  0  0  0  0  0
    3.2989    1.8066   -1.2028 C   0  0  0  0  0  0  0  0  0  0  0  0
    0.6302    3.5305   -0.1861 H   0  0  0  0  0  0  0  0  0  0  0  0
    3.2151    3.3446    0.3102 H   0  0  0  0  0  0  0  0  0  0  0  0
    2.7554    1.4855   -2.0988 H   0  0  0  0  0  0  0  0  0  0  0  0
    4.3350    2.0033   -1.4975 H   0  0  0  0  0  0  0  0  0  0  0  0
    3.2984    0.9698   -0.4960 H   0  0  0  0  0  0  0  0  0  0  0  0
    3.8532    4.8192   -1.6961 N   0  0  0  0  0  0  0  0  0  0  0  0
    4.0777    5.9340   -2.5865 C   0  0  0  0  0  0  0  0  0  0  0  0
    4.6265    4.5167   -1.1111 H   0  0  0  0  0  0  0  0  0  0  0  0
    4.4407    5.5622   -3.5561 H   0  0  0  0  0  0  0  0  0  0  0  0
    3.1350    6.4814   -2.7335 H   0  0  0  0  0  0  0  0  0  0  0  0
    4.8285    6.6079   -2.1480 H   0  0  0  0  0  0  0  0  0  0  0  0
  1  3  1  0  0  0  0
  1  7  1  0  0  0  0
  1  2  2  0  0  0  0
 37 38  1  0  0  0  0
 38 46  1  0  0  0  0
 38 39  2  0  0  0  0
  8  9  1  0  0  0  0
  9 17  1  0  0  0  0
  9 10  2  0  0  0  0
 18 19  1  0  0  0  0
 19 36  1  0  0  0  0
 19 20  2  0  0  0  0
 22 24  1  0  0  0  0
 37 40  1  0  0  0  0
  8 11  1  0  0  0  0
 21 23  1  0  0  0  0
 46 47  1  0  0  0  0
 21 22  1  0  0  0  0
 36 37  1  0  0  0  0
  7  8  1  0  0  0  0
 18 21  1  0  0  0  0
 17 18  1  0  0  0  0
  3  4  1  0  0  0  0
  3  5  1  0  0  0  0
  3  6  1  0  0  0  0
 24 33  1  0  0  0  0
 24 34  1  0  0  0  0
 24 35  1  0  0  0  0
 40 43  1  0  0  0  0
 40 44  1  0  0  0  0
 40 45  1  0  0  0  0
 11 14  1  0  0  0  0
 11 15  1  0  0  0  0
 11 16  1  0  0  0  0
 23 30  1  0  0  0  0
 23 31  1  0  0  0  0
 23 32  1  0  0  0  0
 47 49  1  0  0  0  0
 47 50  1  0  0  0  0
 47 51  1  0  0  0  0
 22 28  1  0  0  0  0
 22 29  1  0  0  0  0
 37 42  1  0  0  0  0
  8 13  1  0  0  0  0
 18 26  1  0  0  0  0
 21 27  1  0  0  0  0
 46 48  1  0  0  0  0
  7 12  1  0  0  0  0
 36 41  1  0  0  0  0
 17 25  1  0  0  0  0
M  END
$$$$

  -OEChem-05262214473D

 51 50  0     1  0  0  0  0  0999 V2000
    1.3524   -3.0009    1.4091 C   0  0  0  0  0  0  0  0  0  0  0  0
    1.8758   -1.9880    0.9598 O   0  0  0  0  0  0  0  0  0  0  0  0
    2.2030   -4.1782    1.7536 C   0  0  0  0  0  0  0  0  0  0  0  0
    2.3264   -4.8705    0.9053 H   0  0  0  0  0  0  0  0  0  0  0  0
    3.2257   -3.8876    2.0432 H   0  0  0  0  0  0  0  0  0  0  0  0
    1.8327   -4.8004    2.5839 H   0  0  0  0  0  0  0  0  0  0  0  0
    0.0005   -3.1873    1.6465 N   0  0  0  0  0  0  0  0  0  0  0  0
   -0.9949   -2.1807    1.3864 C   0  0  2  0  0  0  0  0  0  0  0  0
   -0.3083   -0.8216    1.4164 C   0  0  0  0  0  0  0  0  0  0  0  0
    0.7533   -0.6191    2.0022 O   0  0  0  0  0  0  0  0  0  0  0  0
   -2.1232   -2.2423    2.4042 C   0  0  0  0  0  0  0  0  0  0  0  0
   -0.3048   -4.0823    2.0245 H   0  0  0  0  0  0  0  0  0  0  0  0
   -1.3830   -2.3724    0.3801 H   0  0  0  0  0  0  0  0  0  0  0  0
   -1.7534   -2.0527    3.4185 H   0  0  0  0  0  0  0  0  0  0  0  0
   -2.8936   -1.4947    2.1882 H   0  0  0  0  0  0  0  0  0  0  0  0
   -2.5964   -3.2301    2.4022 H   0  0  0  0  0  0  0  0  0  0  0  0
   -1.0412    0.1517    0.7482 N   0  0  0  0  0  0  0  0  0  0  0  0
   -0.6079    1.5223    0.6467 C   0  0  2  0  0  0  0  0  0  0  0  0
    0.7416    1.5434   -0.0698 C   0  0  0  0  0  0  0  0  0  0  0  0
    1.2911    0.5265   -0.4888 O   0  0  0  0  0  0  0  0  0  0  0  0
   -0.5634    2.2450    2.0147 C   0  0  2  0  0  0  0  0  0  0  0  0
   -1.9597    2.3464    2.6679 C   0  0  0  0  0  0  0  0  0  0  0  0
    0.0917    3.6242    1.8625 C   0  0  0  0  0  0  0  0  0  0  0  0
   -1.9188    2.8078    4.1192 C   0  0  0  0  0  0  0  0  0  0  0  0
   -1.9022   -0.1128    0.2753 H   0  0  0  0  0  0  0  0  0  0  0  0
   -1.3340    2.0186   -0.0098 H   0  0  0  0  0  0  0  0  0  0  0  0
    0.0770    1.6583    2.6867 H   0  0  0  0  0  0  0  0  0  0  0  0
   -2.5754    3.0610    2.1097 H   0  0  0  0  0  0  0  0  0  0  0  0
   -2.4748    1.3796    2.6212 H   0  0  0  0  0  0  0  0  0  0  0  0
   -0.4997    4.2652    1.1999 H   0  0  0  0  0  0  0  0  0  0  0  0
    0.1617    4.1381    2.8261 H   0  0  0  0  0  0  0  0  0  0  0  0
    1.1016    3.5455    1.4469 H   0  0  0  0  0  0  0  0  0  0  0  0
   -1.3174    2.1364    4.7386 H   0  0  0  0  0  0  0  0  0  0  0  0
   -2.9312    2.8209    4.5361 H   0  0  0  0  0  0  0  0  0  0  0  0
   -1.5073    3.8187    4.1992 H   0  0  0  0  0  0  0  0  0  0  0  0
    1.2386    2.8310   -0.2130 N   0  0  0  0  0  0  0  0  0  0  0  0
    2.4891    3.1295   -0.8730 C   0  0  2  0  0  0  0  0  0  0  0  0
    2.4011    4.5443   -1.4297 C   0  0  0  0  0  0  0  0  0  0  0  0
    1.3341    5.1062   -1.6681 O   0  0  0  0  0  0  0  0  0  0  0  0
    2.7841    2.1278   -1.9786 C   0  0  0  0  0  0  0  0  0  0  0  0
    0.6964    3.6022    0.1650 H   0  0  0  0  0  0  0  0  0  0  0  0
    3.2699    3.0861   -0.1059 H   0  0  0  0  0  0  0  0  0  0  0  0
    2.0124    2.1567   -2.7566 H   0  0  0  0  0  0  0  0  0  0  0  0
    3.7454    2.3384   -2.4587 H   0  0  0  0  0  0  0  0  0  0  0  0
    2.8175    1.1075   -1.5814 H   0  0  0  0  0  0  0  0  0  0  0  0
    3.6546    5.0897   -1.6695 N   0  0  0  0  0  0  0  0  0  0  0  0
    3.8371    6.4167   -2.2097 C   0  0  0  0  0  0  0  0  0  0  0  0
    4.4855    4.5595   -1.4241 H   0  0  0  0  0  0  0  0  0  0  0  0
    3.9148    6.3595   -3.3055 H   0  0  0  0  0  0  0  0  0  0  0  0
    2.9773    7.0455   -1.9355 H   0  0  0  0  0  0  0  0  0  0  0  0
    4.7583    6.8560   -1.7994 H   0  0  0  0  0  0  0  0  0  0  0  0
  1  3  1  0  0  0  0
  1  7  1  0  0  0  0
  1  2  2  0  0  0  0
 37 38  1  0  0  0  0
 38 46  1  0  0  0  0
 38 39  2  0  0  0  0
  8  9  1  0  0  0  0
  9 17  1  0  0  0  0
  9 10  2  0  0  0  0
 18 19  1  0  0  0  0
 19 36  1  0  0  0  0
 19 20  2  0  0  0  0
 22 24  1  0  0  0  0
 37 40  1  0  0  0  0
  8 11  1  0  0  0  0
 21 23  1  0  0  0  0
 46 47  1  0  0  0  0
 21 22  1  0  0  0  0
 36 37  1  0  0  0  0
  7  8  1  0  0  0  0
 18 21  1  0  0  0  0
 17 18  1  0  0  0  0
  3  4  1  0  0  0  0
  3  5  1  0  0  0  0
  3  6  1  0  0  0  0
 24 33  1  0  0  0  0
 24 34  1  0  0  0  0
 24 35  1  0  0  0  0
 40 43  1  0  0  0  0
 40 44  1  0  0  0  0
 40 45  1  0  0  0  0
 11 14  1  0  0  0  0
 11 15  1  0  0  0  0
 11 16  1  0  0  0  0
 23 30  1  0  0  0  0
 23 31  1  0  0  0  0
 23 32  1  0  0  0  0
 47 49  1  0  0  0  0
 47 50  1  0  0  0  0
 47 51  1  0  0  0  0
 22 28  1  0  0  0  0
 22 29  1  0  0  0  0
 37 42  1  0  0  0  0
  8 13  1  0  0  0  0
 18 26  1  0  0  0  0
 21 27  1  0  0  0  0
 46 48  1  0  0  0  0
  7 12  1  0  0  0  0
 36 41  1  0  0  0  0
 17 25  1  0  0  0  0
M  END
$$$$

  -OEChem-05262214473D

 51 50  0     1  0  0  0  0  0999 V2000
    1.3524   -3.0009    1.4091 C   0  0  0  0  0  0  0  0  0  0  0  0
    1.8758   -1.9880    0.9598 O   0  0  0  0  0  0  0  0  0  0  0  0
    2.2030   -4.1782    1.7536 C   0  0  0  0  0  0  0  0  0  0  0  0
    2.3264   -4.8705    0.9053 H   0  0  0  0  0  0  0  0  0  0  0  0
    3.2257   -3.8876    2.0432 H   0  0  0  0  0  0  0  0  0  0  0  0
    1.8327   -4.8004    2.5839 H   0  0  0  0  0  0  0  0  0  0  0  0
    0.0005   -3.1873    1.6465 N   0  0  0  0  0  0  0  0  0  0  0  0
   -0.9949   -2.1807    1.3864 C   0  0  2  0  0  0  0  0  0  0  0  0
   -0.3083   -0.8216    1.4164 C   0  0  0  0  0  0  0  0  0  0  0  0
    0.7533   -0.6191    2.0022 O   0  0  0  0  0  0  0  0  0  0  0  0
   -2.1232   -2.2423    2.4042 C   0  0  0  0  0  0  0  0  0  0  0  0
   -0.3048   -4.0823    2.0245 H   0  0  0  0  0  0  0  0  0  0  0  0
   -1.3830   -2.3724    0.3801 H   0  0  0  0  0  0  0  0  0  0  0  0
   -1.7534   -2.0527    3.4185 H   0  0  0  0  0  0  0  0  0  0  0  0
   -2.8936   -1.4947    2.1882 H   0  0  0  0  0  0  0  0  0  0  0  0
   -2.5964   -3.2301    2.4022 H   0  0  0  0  0  0  0  0  0  0  0  0
   -1.0412    0.1517    0.7482 N   0  0  0  0  0  0  0  0  0  0  0  0
   -0.6079    1.5223    0.6467 C   0  0  2  0  0  0  0  0  0  0  0  0
    0.7416    1.5434   -0.0698 C   0  0  0  0  0  0  0  0  0  0  0  0
    1.1676    0.5906   -0.7196 O   0  0  0  0  0  0  0  0  0  0  0  0
   -0.5634    2.2450    2.0147 C   0  0  2  0  0  0  0  0  0  0  0  0
   -1.9597    2.3464    2.6679 C   0  0  0  0  0  0  0  0  0  0  0  0
    0.0917    3.6242    1.8625 C   0  0  0  0  0  0  0  0  0  0  0  0
   -1.9188    2.8078    4.1192 C   0  0  0  0  0  0  0  0  0  0  0  0
   -1.9022   -0.1128    0.2753 H   0  0  0  0  0  0  0  0  0  0  0  0
   -1.3340    2.0186   -0.0098 H   0  0  0  0  0  0  0  0  0  0  0  0
    0.0770    1.6583    2.6867 H   0  0  0  0  0  0  0  0  0  0  0  0
   -2.5754    3.0610    2.1097 H   0  0  0  0  0  0  0  0  0  0  0  0
   -2.4748    1.3796    2.6212 H   0  0  0  0  0  0  0  0  0  0  0  0
   -0.4997    4.2652    1.1999 H   0  0  0  0  0  0  0  0  0  0  0  0
    0.1617    4.1381    2.8261 H   0  0  0  0  0  0  0  0  0  0  0  0
    1.1016    3.5455    1.4469 H   0  0  0  0  0  0  0  0  0  0  0  0
   -1.3174    2.1364    4.7386 H   0  0  0  0  0  0  0  0  0  0  0  0
   -2.9312    2.8209    4.5361 H   0  0  0  0  0  0  0  0  0  0  0  0
   -1.5073    3.8187    4.1992 H   0  0  0  0  0  0  0  0  0  0  0  0
    1.3932    2.7598    0.0761 N   0  0  0  0  0  0  0  0  0  0  0  0
    2.6776    3.0478   -0.5204 C   0  0  2  0  0  0  0  0  0  0  0  0
    2.7685    4.5525   -0.7376 C   0  0  0  0  0  0  0  0  0  0  0  0
    1.7804    5.2789   -0.8225 O   0  0  0  0  0  0  0  0  0  0  0  0
    2.8601    2.2976   -1.8305 C   0  0  0  0  0  0  0  0  0  0  0  0
    0.9450    3.4838    0.6297 H   0  0  0  0  0  0  0  0  0  0  0  0
    3.4392    2.7360    0.2027 H   0  0  0  0  0  0  0  0  0  0  0  0
    2.1059    2.5968   -2.5676 H   0  0  0  0  0  0  0  0  0  0  0  0
    3.8449    2.4945   -2.2667 H   0  0  0  0  0  0  0  0  0  0  0  0
    2.7648    1.2171   -1.6774 H   0  0  0  0  0  0  0  0  0  0  0  0
    4.0815    4.9826   -0.8686 N   0  0  0  0  0  0  0  0  0  0  0  0
    4.4299    6.3658   -1.0947 C   0  0  0  0  0  0  0  0  0  0  0  0
    4.8390    4.3138   -0.7655 H   0  0  0  0  0  0  0  0  0  0  0  0
    4.5116    6.5519   -2.1758 H   0  0  0  0  0  0  0  0  0  0  0  0
    3.6502    7.0146   -0.6690 H   0  0  0  0  0  0  0  0  0  0  0  0
    5.3934    6.5849   -0.6112 H   0  0  0  0  0  0  0  0  0  0  0  0
  1  3  1  0  0  0  0
  1  7  1  0  0  0  0
  1  2  2  0  0  0  0
 37 38  1  0  0  0  0
 38 46  1  0  0  0  0
 38 39  2  0  0  0  0
  8  9  1  0  0  0  0
  9 17  1  0  0  0  0
  9 10  2  0  0  0  0
 18 19  1  0  0  0  0
 19 36  1  0  0  0  0
 19 20  2  0  0  0  0
 22 24  1  0  0  0  0
 37 40  1  0  0  0  0
  8 11  1  0  0  0  0
 21 23  1  0  0  0  0
 46 47  1  0  0  0  0
 21 22  1  0  0  0  0
 36 37  1  0  0  0  0
  7  8  1  0  0  0  0
 18 21  1  0  0  0  0
 17 18  1  0  0  0  0
  3  4  1  0  0  0  0
  3  5  1  0  0  0  0
  3  6  1  0  0  0  0
 24 33  1  0  0  0  0
 24 34  1  0  0  0  0
 24 35  1  0  0  0  0
 40 43  1  0  0  0  0
 40 44  1  0  0  0  0
 40 45  1  0  0  0  0
 11 14  1  0  0  0  0
 11 15  1  0  0  0  0
 11 16  1  0  0  0  0
 23 30  1  0  0  0  0
 23 31  1  0  0  0  0
 23 32  1  0  0  0  0
 47 49  1  0  0  0  0
 47 50  1  0  0  0  0
 47 51  1  0  0  0  0
 22 28  1  0  0  0  0
 22 29  1  0  0  0  0
 37 42  1  0  0  0  0
  8 13  1  0  0  0  0
 18 26  1  0  0  0  0
 21 27  1  0  0  0  0
 46 48  1  0  0  0  0
  7 12  1  0  0  0  0
 36 41  1  0  0  0  0
 17 25  1  0  0  0  0
M  END
$$$$

  -OEChem-05262214473D

 51 50  0     1  0  0  0  0  0999 V2000
    1.3524   -3.0009    1.4091 C   0  0  0  0  0  0  0  0  0  0  0  0
    1.8758   -1.9880    0.9598 O   0  0  0  0  0  0  0  0  0  0  0  0
    2.2030   -4.1782    1.7536 C   0  0  0  0  0  0  0  0  0  0  0  0
    2.3264   -4.8705    0.9053 H   0  0  0  0  0  0  0  0  0  0  0  0
    3.2257   -3.8876    2.0432 H   0  0  0  0  0  0  0  0  0  0  0  0
    1.8327   -4.8004    2.5839 H   0  0  0  0  0  0  0  0  0  0  0  0
    0.0005   -3.1873    1.6465 N   0  0  0  0  0  0  0  0  0  0  0  0
   -0.9949   -2.1807    1.3864 C   0  0  2  0  0  0  0  0  0  0  0  0
   -0.3083   -0.8216    1.4164 C   0  0  0  0  0  0  0  0  0  0  0  0
    0.7533   -0.6191    2.0022 O   0  0  0  0  0  0  0  0  0  0  0  0
   -2.1232   -2.2423    2.4042 C   0  0  0  0  0  0  0  0  0  0  0  0
   -0.3048   -4.0823    2.0245 H   0  0  0  0  0  0  0  0  0  0  0  0
   -1.3830   -2.3724    0.3801 H   0  0  0  0  0  0  0  0  0  0  0  0
   -1.7534   -2.0527    3.4185 H   0  0  0  0  0  0  0  0  0  0  0  0
   -2.8936   -1.4947    2.1882 H   0  0  0  0  0  0  0  0  0  0  0  0
   -2.5964   -3.2301    2.4022 H   0  0  0  0  0  0  0  0  0  0  0  0
   -1.0412    0.1517    0.7482 N   0  0  0  0  0  0  0  0  0  0  0  0
   -0.6079    1.5223    0.6467 C   0  0  2  0  0  0  0  0  0  0  0  0
    0.7416    1.5434   -0.0698 C   0  0  0  0  0  0  0  0  0  0  0  0
    1.0552    0.7202   -0.9274 O   0  0  0  0  0  0  0  0  0  0  0  0
   -0.5634    2.2450    2.0147 C   0  0  2  0  0  0  0  0  0  0  0  0
   -1.9597    2.3464    2.6679 C   0  0  0  0  0  0  0  0  0  0  0  0
    0.0917    3.6242    1.8625 C   0  0  0  0  0  0  0  0  0  0  0  0
   -1.9188    2.8078    4.1192 C   0  0  0  0  0  0  0  0  0  0  0  0
   -1.9022   -0.1128    0.2753 H   0  0  0  0  0  0  0  0  0  0  0  0
   -1.3340    2.0186   -0.0098 H   0  0  0  0  0  0  0  0  0  0  0  0
    0.0770    1.6583    2.6867 H   0  0  0  0  0  0  0  0  0  0  0  0
   -2.5754    3.0610    2.1097 H   0  0  0  0  0  0  0  0  0  0  0  0
   -2.4748    1.3796    2.6212 H   0  0  0  0  0  0  0  0  0  0  0  0
   -0.4997    4.2652    1.1999 H   0  0  0  0  0  0  0  0  0  0  0  0
    0.1617    4.1381    2.8261 H   0  0  0  0  0  0  0  0  0  0  0  0
    1.1016    3.5455    1.4469 H   0  0  0  0  0  0  0  0  0  0  0  0
   -1.3174    2.1364    4.7386 H   0  0  0  0  0  0  0  0  0  0  0  0
   -2.9312    2.8209    4.5361 H   0  0  0  0  0  0  0  0  0  0  0  0
   -1.5073    3.8187    4.1992 H   0  0  0  0  0  0  0  0  0  0  0  0
    1.5349    2.6062    0.3385 N   0  0  0  0  0  0  0  0  0  0  0  0
    2.8511    2.8655   -0.1991 C   0  0  2  0  0  0  0  0  0  0  0  0
    3.1268    4.3576   -0.0685 C   0  0  0  0  0  0  0  0  0  0  0  0
    2.2354    5.1982    0.0322 O   0  0  0  0  0  0  0  0  0  0  0  0
    2.9546    2.4185   -1.6489 C   0  0  0  0  0  0  0  0  0  0  0  0
    1.1724    3.2331    1.0506 H   0  0  0  0  0  0  0  0  0  0  0  0
    3.5613    2.3068    0.4201 H   0  0  0  0  0  0  0  0  0  0  0  0
    2.2503    2.9674   -2.2847 H   0  0  0  0  0  0  0  0  0  0  0  0
    3.9607    2.5894   -2.0460 H   0  0  0  0  0  0  0  0  0  0  0  0
    2.7269    1.3514   -1.7450 H   0  0  0  0  0  0  0  0  0  0  0  0
    4.4837    4.6442   -0.1210 N   0  0  0  0  0  0  0  0  0  0  0  0
    5.0004    5.9900   -0.0314 C   0  0  0  0  0  0  0  0  0  0  0  0
    5.1530    3.8830   -0.1868 H   0  0  0  0  0  0  0  0  0  0  0  0
    5.1155    6.4072   -1.0427 H   0  0  0  0  0  0  0  0  0  0  0  0
    4.3010    6.6135    0.5449 H   0  0  0  0  0  0  0  0  0  0  0  0
    5.9782    5.9744    0.4722 H   0  0  0  0  0  0  0  0  0  0  0  0
  1  3  1  0  0  0  0
  1  7  1  0  0  0  0
  1  2  2  0  0  0  0
 37 38  1  0  0  0  0
 38 46  1  0  0  0  0
 38 39  2  0  0  0  0
  8  9  1  0  0  0  0
  9 17  1  0  0  0  0
  9 10  2  0  0  0  0
 18 19  1  0  0  0  0
 19 36  1  0  0  0  0
 19 20  2  0  0  0  0
 22 24  1  0  0  0  0
 37 40  1  0  0  0  0
  8 11  1  0  0  0  0
 21 23  1  0  0  0  0
 46 47  1  0  0  0  0
 21 22  1  0  0  0  0
 36 37  1  0  0  0  0
  7  8  1  0  0  0  0
 18 21  1  0  0  0  0
 17 18  1  0  0  0  0
  3  4  1  0  0  0  0
  3  5  1  0  0  0  0
  3  6  1  0  0  0  0
 24 33  1  0  0  0  0
 24 34  1  0  0  0  0
 24 35  1  0  0  0  0
 40 43  1  0  0  0  0
 40 44  1  0  0  0  0
 40 45  1  0  0  0  0
 11 14  1  0  0  0  0
 11 15  1  0  0  0  0
 11 16  1  0  0  0  0
 23 30  1  0  0  0  0
 23 31  1  0  0  0  0
 23 32  1  0  0  0  0
 47 49  1  0  0  0  0
 47 50  1  0  0  0  0
 47 51  1  0  0  0  0
 22 28  1  0  0  0  0
 22 29  1  0  0  0  0
 37 42  1  0  0  0  0
  8 13  1  0  0  0  0
 18 26  1  0  0  0  0
 21 27  1  0  0  0  0
 46 48  1  0  0  0  0
  7 12  1  0  0  0  0
 36 41  1  0  0  0  0
 17 25  1  0  0  0  0
M  END
$$$$

  -OEChem-05262214473D

 51 50  0     1  0  0  0  0  0999 V2000
    1.3524   -3.0009    1.4091 C   0  0  0  0  0  0  0  0  0  0  0  0
    1.8758   -1.9880    0.9598 O   0  0  0  0  0  0  0  0  0  0  0  0
    2.2030   -4.1782    1.7536 C   0  0  0  0  0  0  0  0  0  0  0  0
    2.3264   -4.8705    0.9053 H   0  0  0  0  0  0  0  0  0  0  0  0
    3.2257   -3.8876    2.0432 H   0  0  0  0  0  0  0  0  0  0  0  0
    1.8327   -4.8004    2.5839 H   0  0  0  0  0  0  0  0  0  0  0  0
    0.0005   -3.1873    1.6465 N   0  0  0  0  0  0  0  0  0  0  0  0
   -0.9949   -2.1807    1.3864 C   0  0  2  0  0  0  0  0  0  0  0  0
   -0.3083   -0.8216    1.4164 C   0  0  0  0  0  0  0  0  0  0  0  0
    0.7533   -0.6191    2.0022 O   0  0  0  0  0  0  0  0  0  0  0  0
   -2.1232   -2.2423    2.4042 C   0  0  0  0  0  0  0  0  0  0  0  0
   -0.3048   -4.0823    2.0245 H   0  0  0  0  0  0  0  0  0  0  0  0
   -1.3830   -2.3724    0.3801 H   0  0  0  0  0  0  0  0  0  0  0  0
   -1.7534   -2.0527    3.4185 H   0  0  0  0  0  0  0  0  0  0  0  0
   -2.8936   -1.4947    2.1882 H   0  0  0  0  0  0  0  0  0  0  0  0
   -2.5964   -3.2301    2.4022 H   0  0  0  0  0  0  0  0  0  0  0  0
   -1.0412    0.1517    0.7482 N   0  0  0  0  0  0  0  0  0  0  0  0
   -0.6079    1.5223    0.6467 C   0  0  2  0  0  0  0  0  0  0  0  0
    0.7416    1.5434   -0.0698 C   0  0  0  0  0  0  0  0  0  0  0  0
    0.9617    0.9065   -1.0981 O   0  0  0  0  0  0  0  0  0  0  0  0
   -0.5634    2.2450    2.0147 C   0  0  2  0  0  0  0  0  0  0  0  0
   -1.9597    2.3464    2.6679 C   0  0  0  0  0  0  0  0  0  0  0  0
    0.0917    3.6242    1.8625 C   0  0  0  0  0  0  0  0  0  0  0  0
   -1.9188    2.8078    4.1192 C   0  0  0  0  0  0  0  0  0  0  0  0
   -1.9022   -0.1128    0.2753 H   0  0  0  0  0  0  0  0  0  0  0  0
   -1.3340    2.0186   -0.0098 H   0  0  0  0  0  0  0  0  0  0  0  0
    0.0770    1.6583    2.6867 H   0  0  0  0  0  0  0  0  0  0  0  0
   -2.5754    3.0610    2.1097 H   0  0  0  0  0  0  0  0  0  0  0  0
   -2.4748    1.3796    2.6212 H   0  0  0  0  0  0  0  0  0  0  0  0
   -0.4997    4.2652    1.1999 H   0  0  0  0  0  0  0  0  0  0  0  0
    0.1617    4.1381    2.8261 H   0  0  0  0  0  0  0  0  0  0  0  0
    1.1016    3.5455    1.4469 H   0  0  0  0  0  0  0  0  0  0  0  0
   -1.3174    2.1364    4.7386 H   0  0  0  0  0  0  0  0  0  0  0  0
   -2.9312    2.8209    4.5361 H   0  0  0  0  0  0  0  0  0  0  0  0
   -1.5073    3.8187    4.1992 H   0  0  0  0  0  0  0  0  0  0  0  0
    1.6540    2.3806    0.5563 N   0  0  0  0  0  0  0  0  0  0  0  0
    2.9976    2.5949    0.0690 C   0  0  2  0  0  0  0  0  0  0  0  0
    3.4516    3.9730    0.5320 C   0  0  0  0  0  0  0  0  0  0  0  0
    2.6682    4.8696    0.8377 O   0  0  0  0  0  0  0  0  0  0  0  0
    3.0612    2.4823   -1.4462 C   0  0  0  0  0  0  0  0  0  0  0  0
    1.3631    2.8671    1.3991 H   0  0  0  0  0  0  0  0  0  0  0  0
    3.6280    1.8276    0.5316 H   0  0  0  0  0  0  0  0  0  0  0  0
    2.4358    3.2431   -1.9273 H   0  0  0  0  0  0  0  0  0  0  0  0
    4.0848    2.6166   -1.8115 H   0  0  0  0  0  0  0  0  0  0  0  0
    2.7063    1.5011   -1.7793 H   0  0  0  0  0  0  0  0  0  0  0  0
    4.8338    4.0977    0.5223 N   0  0  0  0  0  0  0  0  0  0  0  0
    5.5095    5.3146    0.9077 C   0  0  0  0  0  0  0  0  0  0  0  0
    5.4061    3.2965    0.2727 H   0  0  0  0  0  0  0  0  0  0  0  0
    5.6853    5.9350    0.0165 H   0  0  0  0  0  0  0  0  0  0  0  0
    4.8852    5.8696    1.6234 H   0  0  0  0  0  0  0  0  0  0  0  0
    6.4728    5.0661    1.3771 H   0  0  0  0  0  0  0  0  0  0  0  0
  1  3  1  0  0  0  0
  1  7  1  0  0  0  0
  1  2  2  0  0  0  0
 37 38  1  0  0  0  0
 38 46  1  0  0  0  0
 38 39  2  0  0  0  0
  8  9  1  0  0  0  0
  9 17  1  0  0  0  0
  9 10  2  0  0  0  0
 18 19  1  0  0  0  0
 19 36  1  0  0  0  0
 19 20  2  0  0  0  0
 22 24  1  0  0  0  0
 37 40  1  0  0  0  0
  8 11  1  0  0  0  0
 21 23  1  0  0  0  0
 46 47  1  0  0  0  0
 21 22  1  0  0  0  0
 36 37  1  0  0  0  0
  7  8  1  0  0  0  0
 18 21  1  0  0  0  0
 17 18  1  0  0  0  0
  3  4  1  0  0  0  0
  3  5  1  0  0  0  0
  3  6  1  0  0  0  0
 24 33  1  0  0  0  0
 24 34  1  0  0  0  0
 24 35  1  0  0  0  0
 40 43  1  0  0  0  0
 40 44  1  0  0  0  0
 40 45  1  0  0  0  0
 11 14  1  0  0  0  0
 11 15  1  0  0  0  0
 11 16  1  0  0  0  0
 23 30  1  0  0  0  0
 23 31  1  0  0  0  0
 23 32  1  0  0  0  0
 47 49  1  0  0  0  0
 47 50  1  0  0  0  0
 47 51  1  0  0  0  0
 22 28  1  0  0  0  0
 22 29  1  0  0  0  0
 37 42  1  0  0  0  0
  8 13  1  0  0  0  0
 18 26  1  0  0  0  0
 21 27  1  0  0  0  0
 46 48  1  0  0  0  0
  7 12  1  0  0  0  0
 36 41  1  0  0  0  0
 17 25  1  0  0  0  0
M  END
$$$$

  -OEChem-05262214473D

 51 50  0     1  0  0  0  0  0999 V2000
    1.3524   -3.0009    1.4091 C   0  0  0  0  0  0  0  0  0  0  0  0
    1.8758   -1.9880    0.9598 O   0  0  0  0  0  0  0  0  0  0  0  0
    2.2030   -4.1782    1.7536 C   0  0  0  0  0  0  0  0  0  0  0  0
    2.3264   -4.8705    0.9053 H   0  0  0  0  0  0  0  0  0  0  0  0
    3.2257   -3.8876    2.0432 H   0  0  0  0  0  0  0  0  0  0  0  0
    1.8327   -4.8004    2.5839 H   0  0  0  0  0  0  0  0  0  0  0  0
    0.0005   -3.1873    1.6465 N   0  0  0  0  0  0  0  0  0  0  0  0
   -0.9949   -2.1807    1.3864 C   0  0  2  0  0  0  0  0  0  0  0  0
   -0.3083   -0.8216    1.4164 C   0  0  0  0  0  0  0  0  0  0  0  0
    0.7533   -0.6191    2.0022 O   0  0  0  0  0  0  0  0  0  0  0  0
   -2.1232   -2.2423    2.4042 C   0  0  0  0  0  0  0  0  0  0  0  0
   -0.3048   -4.0823    2.0245 H   0  0  0  0  0  0  0  0  0  0  0  0
   -1.3830   -2.3724    0.3801 H   0  0  0  0  0  0  0  0  0  0  0  0
   -1.7534   -2.0527    3.4185 H   0  0  0  0  0  0  0  0  0  0  0  0
   -2.8936   -1.4947    2.1882 H   0  0  0  0  0  0  0  0  0  0  0  0
   -2.5964   -3.2301    2.4022 H   0  0  0  0  0  0  0  0  0  0  0  0
   -1.0412    0.1517    0.7482 N   0  0  0  0  0  0  0  0  0  0  0  0
   -0.6079    1.5223    0.6467 C   0  0  2  0  0  0  0  0  0  0  0  0
    0.7416    1.5434   -0.0698 C   0  0  0  0  0  0  0  0  0  0  0  0
    0.8933    1.1368   -1.2201 O   0  0  0  0  0  0  0  0  0  0  0  0
   -0.5634    2.2450    2.0147 C   0  0  2  0  0  0  0  0  0  0  0  0
   -1.9597    2.3464    2.6679 C   0  0  0  0  0  0  0  0  0  0  0  0
    0.0917    3.6242    1.8625 C   0  0  0  0  0  0  0  0  0  0  0  0
   -1.9188    2.8078    4.1192 C   0  0  0  0  0  0  0  0  0  0  0  0
   -1.9022   -0.1128    0.2753 H   0  0  0  0  0  0  0  0  0  0  0  0
   -1.3340    2.0186   -0.0098 H   0  0  0  0  0  0  0  0  0  0  0  0
    0.0770    1.6583    2.6867 H   0  0  0  0  0  0  0  0  0  0  0  0
   -2.5754    3.0610    2.1097 H   0  0  0  0  0  0  0  0  0  0  0  0
   -2.4748    1.3796    2.6212 H   0  0  0  0  0  0  0  0  0  0  0  0
   -0.4997    4.2652    1.1999 H   0  0  0  0  0  0  0  0  0  0  0  0
    0.1617    4.1381    2.8261 H   0  0  0  0  0  0  0  0  0  0  0  0
    1.1016    3.5455    1.4469 H   0  0  0  0  0  0  0  0  0  0  0  0
   -1.3174    2.1364    4.7386 H   0  0  0  0  0  0  0  0  0  0  0  0
   -2.9312    2.8209    4.5361 H   0  0  0  0  0  0  0  0  0  0  0  0
   -1.5073    3.8187    4.1992 H   0  0  0  0  0  0  0  0  0  0  0  0
    1.7426    2.0985    0.7147 N   0  0  0  0  0  0  0  0  0  0  0  0
    3.1073    2.2545    0.2656 C   0  0  2  0  0  0  0  0  0  0  0  0
    3.7208    3.4248    1.0229 C   0  0  0  0  0  0  0  0  0  0  0  0
    3.0493    4.3157    1.5391 O   0  0  0  0  0  0  0  0  0  0  0  0
    3.1727    2.4847   -1.2362 C   0  0  0  0  0  0  0  0  0  0  0  0
    1.5041    2.4107    1.6513 H   0  0  0  0  0  0  0  0  0  0  0  0
    3.6346    1.3312    0.5295 H   0  0  0  0  0  0  0  0  0  0  0  0
    2.6497    3.4053   -1.5197 H   0  0  0  0  0  0  0  0  0  0  0  0
    4.2088    2.5742   -1.5792 H   0  0  0  0  0  0  0  0  0  0  0  0
    2.7044    1.6560   -1.7783 H   0  0  0  0  0  0  0  0  0  0  0  0
    5.1079    3.3803    1.0175 N   0  0  0  0  0  0  0  0  0  0  0  0
    5.9227    4.3858    1.6586 C   0  0  0  0  0  0  0  0  0  0  0  0
    5.5810    2.5942    0.5815 H   0  0  0  0  0  0  0  0  0  0  0  0
    6.1821    5.1677    0.9297 H   0  0  0  0  0  0  0  0  0  0  0  0
    5.3631    4.8337    2.4931 H   0  0  0  0  0  0  0  0  0  0  0  0
    6.8435    3.9218    2.0418 H   0  0  0  0  0  0  0  0  0  0  0  0
  1  3  1  0  0  0  0
  1  7  1  0  0  0  0
  1  2  2  0  0  0  0
 37 38  1  0  0  0  0
 38 46  1  0  0  0  0
 38 39  2  0  0  0  0
  8  9  1  0  0  0  0
  9 17  1  0  0  0  0
  9 10  2  0  0  0  0
 18 19  1  0  0  0  0
 19 36  1  0  0  0  0
 19 20  2  0  0  0  0
 22 24  1  0  0  0  0
 37 40  1  0  0  0  0
  8 11  1  0  0  0  0
 21 23  1  0  0  0  0
 46 47  1  0  0  0  0
 21 22  1  0  0  0  0
 36 37  1  0  0  0  0
  7  8  1  0  0  0  0
 18 21  1  0  0  0  0
 17 18  1  0  0  0  0
  3  4  1  0  0  0  0
  3  5  1  0  0  0  0
  3  6  1  0  0  0  0
 24 33  1  0  0  0  0
 24 34  1  0  0  0  0
 24 35  1  0  0  0  0
 40 43  1  0  0  0  0
 40 44  1  0  0  0  0
 40 45  1  0  0  0  0
 11 14  1  0  0  0  0
 11 15  1  0  0  0  0
 11 16  1  0  0  0  0
 23 30  1  0  0  0  0
 23 31  1  0  0  0  0
 23 32  1  0  0  0  0
 47 49  1  0  0  0  0
 47 50  1  0  0  0  0
 47 51  1  0  0  0  0
 22 28  1  0  0  0  0
 22 29  1  0  0  0  0
 37 42  1  0  0  0  0
  8 13  1  0  0  0  0
 18 26  1  0  0  0  0
 21 27  1  0  0  0  0
 46 48  1  0  0  0  0
  7 12  1  0  0  0  0
 36 41  1  0  0  0  0
 17 25  1  0  0  0  0
M  END
$$$$

  -OEChem-05262214473D

 51 50  0     1  0  0  0  0  0999 V2000
    1.3524   -3.0009    1.4091 C   0  0  0  0  0  0  0  0  0  0  0  0
    1.8758   -1.9880    0.9598 O   0  0  0  0  0  0  0  0  0  0  0  0
    2.2030   -4.1782    1.7536 C   0  0  0  0  0  0  0  0  0  0  0  0
    2.3264   -4.8705    0.9053 H   0  0  0  0  0  0  0  0  0  0  0  0
    3.2257   -3.8876    2.0432 H   0  0  0  0  0  0  0  0  0  0  0  0
    1.8327   -4.8004    2.5839 H   0  0  0  0  0  0  0  0  0  0  0  0
    0.0005   -3.1873    1.6465 N   0  0  0  0  0  0  0  0  0  0  0  0
   -0.9949   -2.1807    1.3864 C   0  0  2  0  0  0  0  0  0  0  0  0
   -0.3083   -0.8216    1.4164 C   0  0  0  0  0  0  0  0  0  0  0  0
    0.7533   -0.6191    2.0022 O   0  0  0  0  0  0  0  0  0  0  0  0
   -2.1232   -2.2423    2.4042 C   0  0  0  0  0  0  0  0  0  0  0  0
   -0.3048   -4.0823    2.0245 H   0  0  0  0  0  0  0  0  0  0  0  0
   -1.3830   -2.3724    0.3801 H   0  0  0  0  0  0  0  0  0  0  0  0
   -1.7534   -2.0527    3.4185 H   0  0  0  0  0  0  0  0  0  0  0  0
   -2.8936   -1.4947    2.1882 H   0  0  0  0  0  0  0  0  0  0  0  0
   -2.5964   -3.2301    2.4022 H   0  0  0  0  0  0  0  0  0  0  0  0
   -1.0412    0.1517    0.7482 N   0  0  0  0  0  0  0  0  0  0  0  0
   -0.6079    1.5223    0.6467 C   0  0  2  0  0  0  0  0  0  0  0  0
    0.7416    1.5434   -0.0698 C   0  0  0  0  0  0  0  0  0  0  0  0
    0.8548    1.3955   -1.2850 O   0  0  0  0  0  0  0  0  0  0  0  0
   -0.5634    2.2450    2.0147 C   0  0  2  0  0  0  0  0  0  0  0  0
   -1.9597    2.3464    2.6679 C   0  0  0  0  0  0  0  0  0  0  0  0
    0.0917    3.6242    1.8625 C   0  0  0  0  0  0  0  0  0  0  0  0
   -1.9188    2.8078    4.1192 C   0  0  0  0  0  0  0  0  0  0  0  0
   -1.9022   -0.1128    0.2753 H   0  0  0  0  0  0  0  0  0  0  0  0
   -1.3340    2.0186   -0.0098 H   0  0  0  0  0  0  0  0  0  0  0  0
    0.0770    1.6583    2.6867 H   0  0  0  0  0  0  0  0  0  0  0  0
   -2.5754    3.0610    2.1097 H   0  0  0  0  0  0  0  0  0  0  0  0
   -2.4748    1.3796    2.6212 H   0  0  0  0  0  0  0  0  0  0  0  0
   -0.4997    4.2652    1.1999 H   0  0  0  0  0  0  0  0  0  0  0  0
    0.1617    4.1381    2.8261 H   0  0  0  0  0  0  0  0  0  0  0  0
    1.1016    3.5455    1.4469 H   0  0  0  0  0  0  0  0  0  0  0  0
   -1.3174    2.1364    4.7386 H   0  0  0  0  0  0  0  0  0  0  0  0
   -2.9312    2.8209    4.5361 H   0  0  0  0  0  0  0  0  0  0  0  0
   -1.5073    3.8187    4.1992 H   0  0  0  0  0  0  0  0  0  0  0  0
    1.7944    1.7790    0.8029 N   0  0  0  0  0  0  0  0  0  0  0  0
    3.1726    1.8674    0.3772 C   0  0  2  0  0  0  0  0  0  0  0  0
    3.9160    2.7503    1.3708 C   0  0  0  0  0  0  0  0  0  0  0  0
    3.3526    3.5740    2.0886 O   0  0  0  0  0  0  0  0  0  0  0  0
    3.2814    2.4254   -1.0332 C   0  0  0  0  0  0  0  0  0  0  0  0
    1.5859    1.8952    1.7902 H   0  0  0  0  0  0  0  0  0  0  0  0
    3.5807    0.8514    0.4140 H   0  0  0  0  0  0  0  0  0  0  0  0
    2.8774    3.4428   -1.0897 H   0  0  0  0  0  0  0  0  0  0  0  0
    4.3242    2.4650   -1.3649 H   0  0  0  0  0  0  0  0  0  0  0  0
    2.7215    1.8057   -1.7418 H   0  0  0  0  0  0  0  0  0  0  0  0
    5.2874    2.5408    1.3309 N   0  0  0  0  0  0  0  0  0  0  0  0
    6.2118    3.2669    2.1702 C   0  0  0  0  0  0  0  0  0  0  0  0
    5.6658    1.8241    0.7186 H   0  0  0  0  0  0  0  0  0  0  0  0
    6.5721    4.1575    1.6347 H   0  0  0  0  0  0  0  0  0  0  0  0
    5.7021    3.5762    3.0946 H   0  0  0  0  0  0  0  0  0  0  0  0
    7.0652    2.6197    2.4210 H   0  0  0  0  0  0  0  0  0  0  0  0
  1  3  1  0  0  0  0
  1  7  1  0  0  0  0
  1  2  2  0  0  0  0
 37 38  1  0  0  0  0
 38 46  1  0  0  0  0
 38 39  2  0  0  0  0
  8  9  1  0  0  0  0
  9 17  1  0  0  0  0
  9 10  2  0  0  0  0
 18 19  1  0  0  0  0
 19 36  1  0  0  0  0
 19 20  2  0  0  0  0
 22 24  1  0  0  0  0
 37 40  1  0  0  0  0
  8 11  1  0  0  0  0
 21 23  1  0  0  0  0
 46 47  1  0  0  0  0
 21 22  1  0  0  0  0
 36 37  1  0  0  0  0
  7  8  1  0  0  0  0
 18 21  1  0  0  0  0
 17 18  1  0  0  0  0
  3  4  1  0  0  0  0
  3  5  1  0  0  0  0
  3  6  1  0  0  0  0
 24 33  1  0  0  0  0
 24 34  1  0  0  0  0
 24 35  1  0  0  0  0
 40 43  1  0  0  0  0
 40 44  1  0  0  0  0
 40 45  1  0  0  0  0
 11 14  1  0  0  0  0
 11 15  1  0  0  0  0
 11 16  1  0  0  0  0
 23 30  1  0  0  0  0
 23 31  1  0  0  0  0
 23 32  1  0  0  0  0
 47 49  1  0  0  0  0
 47 50  1  0  0  0  0
 47 51  1  0  0  0  0
 22 28  1  0  0  0  0
 22 29  1  0  0  0  0
 37 42  1  0  0  0  0
  8 13  1  0  0  0  0
 18 26  1  0  0  0  0
 21 27  1  0  0  0  0
 46 48  1  0  0  0  0
  7 12  1  0  0  0  0
 36 41  1  0  0  0  0
 17 25  1  0  0  0  0
M  END
$$$$

  -OEChem-05262214473D

 51 50  0     1  0  0  0  0  0999 V2000
    1.3524   -3.0009    1.4091 C   0  0  0  0  0  0  0  0  0  0  0  0
    1.8758   -1.9880    0.9598 O   0  0  0  0  0  0  0  0  0  0  0  0
    2.2030   -4.1782    1.7536 C   0  0  0  0  0  0  0  0  0  0  0  0
    2.3264   -4.8705    0.9053 H   0  0  0  0  0  0  0  0  0  0  0  0
    3.2257   -3.8876    2.0432 H   0  0  0  0  0  0  0  0  0  0  0  0
    1.8327   -4.8004    2.5839 H   0  0  0  0  0  0  0  0  0  0  0  0
    0.0005   -3.1873    1.6465 N   0  0  0  0  0  0  0  0  0  0  0  0
   -0.9949   -2.1807    1.3864 C   0  0  2  0  0  0  0  0  0  0  0  0
   -0.3083   -0.8216    1.4164 C   0  0  0  0  0  0  0  0  0  0  0  0
    0.7533   -0.6191    2.0022 O   0  0  0  0  0  0  0  0  0  0  0  0
   -2.1232   -2.2423    2.4042 C   0  0  0  0  0  0  0  0  0  0  0  0
   -0.3048   -4.0823    2.0245 H   0  0  0  0  0  0  0  0  0  0  0  0
   -1.3830   -2.3724    0.3801 H   0  0  0  0  0  0  0  0  0  0  0  0
   -1.7534   -2.0527    3.4185 H   0  0  0  0  0  0  0  0  0  0  0  0
   -2.8936   -1.4947    2.1882 H   0  0  0  0  0  0  0  0  0  0  0  0
   -2.5964   -3.2301    2.4022 H   0  0  0  0  0  0  0  0  0  0  0  0
   -1.0412    0.1517    0.7482 N   0  0  0  0  0  0  0  0  0  0  0  0
   -0.6079    1.5223    0.6467 C   0  0  2  0  0  0  0  0  0  0  0  0
    0.7416    1.5434   -0.0698 C   0  0  0  0  0  0  0  0  0  0  0  0
    0.8488    1.6649   -1.2885 O   0  0  0  0  0  0  0  0  0  0  0  0
   -0.5634    2.2450    2.0147 C   0  0  2  0  0  0  0  0  0  0  0  0
   -1.9597    2.3464    2.6679 C   0  0  0  0  0  0  0  0  0  0  0  0
    0.0917    3.6242    1.8625 C   0  0  0  0  0  0  0  0  0  0  0  0
   -1.9188    2.8078    4.1192 C   0  0  0  0  0  0  0  0  0  0  0  0
   -1.9022   -0.1128    0.2753 H   0  0  0  0  0  0  0  0  0  0  0  0
   -1.3340    2.0186   -0.0098 H   0  0  0  0  0  0  0  0  0  0  0  0
    0.0770    1.6583    2.6867 H   0  0  0  0  0  0  0  0  0  0  0  0
   -2.5754    3.0610    2.1097 H   0  0  0  0  0  0  0  0  0  0  0  0
   -2.4748    1.3796    2.6212 H   0  0  0  0  0  0  0  0  0  0  0  0
   -0.4997    4.2652    1.1999 H   0  0  0  0  0  0  0  0  0  0  0  0
    0.1617    4.1381    2.8261 H   0  0  0  0  0  0  0  0  0  0  0  0
    1.1016    3.5455    1.4469 H   0  0  0  0  0  0  0  0  0  0  0  0
   -1.3174    2.1364    4.7386 H   0  0  0  0  0  0  0  0  0  0  0  0
   -2.9312    2.8209    4.5361 H   0  0  0  0  0  0  0  0  0  0  0  0
   -1.5073    3.8187    4.1992 H   0  0  0  0  0  0  0  0  0  0  0  0
    1.8060    1.4440    0.8149 N   0  0  0  0  0  0  0  0  0  0  0  0
    3.1891    1.4600    0.3964 C   0  0  2  0  0  0  0  0  0  0  0  0
    4.0240    1.9957    1.5521 C   0  0  0  0  0  0  0  0  0  0  0  0
    3.5575    2.6952    2.4488 O   0  0  0  0  0  0  0  0  0  0  0  0
    3.3799    2.3086   -0.8511 C   0  0  0  0  0  0  0  0  0  0  0  0
    1.6028    1.3555    1.8062 H   0  0  0  0  0  0  0  0  0  0  0  0
    3.4701    0.4209    0.1930 H   0  0  0  0  0  0  0  0  0  0  0  0
    3.1035    3.3531   -0.6666 H   0  0  0  0  0  0  0  0  0  0  0  0
    4.4232    2.2966   -1.1833 H   0  0  0  0  0  0  0  0  0  0  0  0
    2.7562    1.9398   -1.6725 H   0  0  0  0  0  0  0  0  0  0  0  0
    5.3600    1.6365    1.4411 N   0  0  0  0  0  0  0  0  0  0  0  0
    6.3570    2.0340    2.4076 C   0  0  0  0  0  0  0  0  0  0  0  0
    5.6547    1.0386    0.6747 H   0  0  0  0  0  0  0  0  0  0  0  0
    6.8288    2.9733    2.0833 H   0  0  0  0  0  0  0  0  0  0  0  0
    5.8791    2.1830    3.3871 H   0  0  0  0  0  0  0  0  0  0  0  0
    7.1225    1.2483    2.4888 H   0  0  0  0  0  0  0  0  0  0  0  0
  1  3  1  0  0  0  0
  1  7  1  0  0  0  0
  1  2  2  0  0  0  0
 37 38  1  0  0  0  0
 38 46  1  0  0  0  0
 38 39  2  0  0  0  0
  8  9  1  0  0  0  0
  9 17  1  0  0  0  0
  9 10  2  0  0  0  0
 18 19  1  0  0  0  0
 19 36  1  0  0  0  0
 19 20  2  0  0  0  0
 22 24  1  0  0  0  0
 37 40  1  0  0  0  0
  8 11  1  0  0  0  0
 21 23  1  0  0  0  0
 46 47  1  0  0  0  0
 21 22  1  0  0  0  0
 36 37  1  0  0  0  0
  7  8  1  0  0  0  0
 18 21  1  0  0  0  0
 17 18  1  0  0  0  0
  3  4  1  0  0  0  0
  3  5  1  0  0  0  0
  3  6  1  0  0  0  0
 24 33  1  0  0  0  0
 24 34  1  0  0  0  0
 24 35  1  0  0  0  0
 40 43  1  0  0  0  0
 40 44  1  0  0  0  0
 40 45  1  0  0  0  0
 11 14  1  0  0  0  0
 11 15  1  0  0  0  0
 11 16  1  0  0  0  0
 23 30  1  0  0  0  0
 23 31  1  0  0  0  0
 23 32  1  0  0  0  0
 47 49  1  0  0  0  0
 47 50  1  0  0  0  0
 47 51  1  0  0  0  0
 22 28  1  0  0  0  0
 22 29  1  0  0  0  0
 37 42  1  0  0  0  0
  8 13  1  0  0  0  0
 18 26  1  0  0  0  0
 21 27  1  0  0  0  0
 46 48  1  0  0  0  0
  7 12  1  0  0  0  0
 36 41  1  0  0  0  0
 17 25  1  0  0  0  0
M  END
$$$$

  -OEChem-05262214473D

 51 50  0     1  0  0  0  0  0999 V2000
    1.3524   -3.0009    1.4091 C   0  0  0  0  0  0  0  0  0  0  0  0
    1.8758   -1.9880    0.9598 O   0  0  0  0  0  0  0  0  0  0  0  0
    2.2030   -4.1782    1.7536 C   0  0  0  0  0  0  0  0  0  0  0  0
    2.3264   -4.8705    0.9053 H   0  0  0  0  0  0  0  0  0  0  0  0
    3.2257   -3.8876    2.0432 H   0  0  0  0  0  0  0  0  0  0  0  0
    1.8327   -4.8004    2.5839 H   0  0  0  0  0  0  0  0  0  0  0  0
    0.0005   -3.1873    1.6465 N   0  0  0  0  0  0  0  0  0  0  0  0
   -0.9949   -2.1807    1.3864 C   0  0  2  0  0  0  0  0  0  0  0  0
   -0.3083   -0.8216    1.4164 C   0  0  0  0  0  0  0  0  0  0  0  0
    0.7533   -0.6191    2.0022 O   0  0  0  0  0  0  0  0  0  0  0  0
   -2.1232   -2.2423    2.4042 C   0  0  0  0  0  0  0  0  0  0  0  0
   -0.3048   -4.0823    2.0245 H   0  0  0  0  0  0  0  0  0  0  0  0
   -1.3830   -2.3724    0.3801 H   0  0  0  0  0  0  0  0  0  0  0  0
   -1.7534   -2.0527    3.4185 H   0  0  0  0  0  0  0  0  0  0  0  0
   -2.8936   -1.4947    2.1882 H   0  0  0  0  0  0  0  0  0  0  0  0
   -2.5964   -3.2301    2.4022 H   0  0  0  0  0  0  0  0  0  0  0  0
   -1.0412    0.1517    0.7482 N   0  0  0  0  0  0  0  0  0  0  0  0
   -0.6079    1.5223    0.6467 C   0  0  2  0  0  0  0  0  0  0  0  0
    0.7416    1.5434   -0.0698 C   0  0  0  0  0  0  0  0  0  0  0  0
    0.8756    1.9266   -1.2302 O   0  0  0  0  0  0  0  0  0  0  0  0
   -0.5634    2.2450    2.0147 C   0  0  2  0  0  0  0  0  0  0  0  0
   -1.9597    2.3464    2.6679 C   0  0  0  0  0  0  0  0  0  0  0  0
    0.0917    3.6242    1.8625 C   0  0  0  0  0  0  0  0  0  0  0  0
   -1.9188    2.8078    4.1192 C   0  0  0  0  0  0  0  0  0  0  0  0
   -1.9022   -0.1128    0.2753 H   0  0  0  0  0  0  0  0  0  0  0  0
   -1.3340    2.0186   -0.0098 H   0  0  0  0  0  0  0  0  0  0  0  0
    0.0770    1.6583    2.6867 H   0  0  0  0  0  0  0  0  0  0  0  0
   -2.5754    3.0610    2.1097 H   0  0  0  0  0  0  0  0  0  0  0  0
   -2.4748    1.3796    2.6212 H   0  0  0  0  0  0  0  0  0  0  0  0
   -0.4997    4.2652    1.1999 H   0  0  0  0  0  0  0  0  0  0  0  0
    0.1617    4.1381    2.8261 H   0  0  0  0  0  0  0  0  0  0  0  0
    1.1016    3.5455    1.4469 H   0  0  0  0  0  0  0  0  0  0  0  0
   -1.3174    2.1364    4.7386 H   0  0  0  0  0  0  0  0  0  0  0  0
   -2.9312    2.8209    4.5361 H   0  0  0  0  0  0  0  0  0  0  0  0
   -1.5073    3.8187    4.1992 H   0  0  0  0  0  0  0  0  0  0  0  0
    1.7766    1.1162    0.7499 N   0  0  0  0  0  0  0  0  0  0  0  0
    3.1557    1.0602    0.3217 C   0  0  2  0  0  0  0  0  0  0  0  0
    4.0374    1.2122    1.5542 C   0  0  0  0  0  0  0  0  0  0  0  0
    3.6501    1.7391    2.5951 O   0  0  0  0  0  0  0  0  0  0  0  0
    3.4616    2.1422   -0.7022 C   0  0  0  0  0  0  0  0  0  0  0  0
    1.5537    0.8285    1.6982 H   0  0  0  0  0  0  0  0  0  0  0  0
    3.3102    0.0690   -0.1185 H   0  0  0  0  0  0  0  0  0  0  0  0
    3.3124    3.1424   -0.2792 H   0  0  0  0  0  0  0  0  0  0  0  0
    4.4991    2.0804   -1.0468 H   0  0  0  0  0  0  0  0  0  0  0  0
    2.8063    2.0493   -1.5749 H   0  0  0  0  0  0  0  0  0  0  0  0
    5.3208    0.7291    1.3406 N   0  0  0  0  0  0  0  0  0  0  0  0
    6.3485    0.7713    2.3545 C   0  0  0  0  0  0  0  0  0  0  0  0
    5.5486    0.2912    0.4529 H   0  0  0  0  0  0  0  0  0  0  0  0
    6.9345    1.6958    2.2450 H   0  0  0  0  0  0  0  0  0  0  0  0
    5.8820    0.7489    3.3505 H   0  0  0  0  0  0  0  0  0  0  0  0
    7.0118   -0.0988    2.2406 H   0  0  0  0  0  0  0  0  0  0  0  0
  1  3  1  0  0  0  0
  1  7  1  0  0  0  0
  1  2  2  0  0  0  0
 37 38  1  0  0  0  0
 38 46  1  0  0  0  0
 38 39  2  0  0  0  0
  8  9  1  0  0  0  0
  9 17  1  0  0  0  0
  9 10  2  0  0  0  0
 18 19  1  0  0  0  0
 19 36  1  0  0  0  0
 19 20  2  0  0  0  0
 22 24  1  0  0  0  0
 37 40  1  0  0  0  0
  8 11  1  0  0  0  0
 21 23  1  0  0  0  0
 46 47  1  0  0  0  0
 21 22  1  0  0  0  0
 36 37  1  0  0  0  0
  7  8  1  0  0  0  0
 18 21  1  0  0  0  0
 17 18  1  0  0  0  0
  3  4  1  0  0  0  0
  3  5  1  0  0  0  0
  3  6  1  0  0  0  0
 24 33  1  0  0  0  0
 24 34  1  0  0  0  0
 24 35  1  0  0  0  0
 40 43  1  0  0  0  0
 40 44  1  0  0  0  0
 40 45  1  0  0  0  0
 11 14  1  0  0  0  0
 11 15  1  0  0  0  0
 11 16  1  0  0  0  0
 23 30  1  0  0  0  0
 23 31  1  0  0  0  0
 23 32  1  0  0  0  0
 47 49  1  0  0  0  0
 47 50  1  0  0  0  0
 47 51  1  0  0  0  0
 22 28  1  0  0  0  0
 22 29  1  0  0  0  0
 37 42  1  0  0  0  0
  8 13  1  0  0  0  0
 18 26  1  0  0  0  0
 21 27  1  0  0  0  0
 46 48  1  0  0  0  0
  7 12  1  0  0  0  0
 36 41  1  0  0  0  0
 17 25  1  0  0  0  0
M  END
$$$$

  -OEChem-05262214473D

 51 50  0     1  0  0  0  0  0999 V2000
    1.3524   -3.0009    1.4091 C   0  0  0  0  0  0  0  0  0  0  0  0
    1.8758   -1.9880    0.9598 O   0  0  0  0  0  0  0  0  0  0  0  0
    2.2030   -4.1782    1.7536 C   0  0  0  0  0  0  0  0  0  0  0  0
    2.3264   -4.8705    0.9053 H   0  0  0  0  0  0  0  0  0  0  0  0
    3.2257   -3.8876    2.0432 H   0  0  0  0  0  0  0  0  0  0  0  0
    1.8327   -4.8004    2.5839 H   0  0  0  0  0  0  0  0  0  0  0  0
    0.0005   -3.1873    1.6465 N   0  0  0  0  0  0  0  0  0  0  0  0
   -0.9949   -2.1807    1.3864 C   0  0  2  0  0  0  0  0  0  0  0  0
   -0.3083   -0.8216    1.4164 C   0  0  0  0  0  0  0  0  0  0  0  0
    0.7533   -0.6191    2.0022 O   0  0  0  0  0  0  0  0  0  0  0  0
   -2.1232   -2.2423    2.4042 C   0  0  0  0  0  0  0  0  0  0  0  0
   -0.3048   -4.0823    2.0245 H   0  0  0  0  0  0  0  0  0  0  0  0
   -1.3830   -2.3724    0.3801 H   0  0  0  0  0  0  0  0  0  0  0  0
   -1.7534   -2.0527    3.4185 H   0  0  0  0  0  0  0  0  0  0  0  0
   -2.8936   -1.4947    2.1882 H   0  0  0  0  0  0  0  0  0  0  0  0
   -2.5964   -3.2301    2.4022 H   0  0  0  0  0  0  0  0  0  0  0  0
   -1.0412    0.1517    0.7482 N   0  0  0  0  0  0  0  0  0  0  0  0
   -0.6079    1.5223    0.6467 C   0  0  2  0  0  0  0  0  0  0  0  0
    0.7416    1.5434   -0.0698 C   0  0  0  0  0  0  0  0  0  0  0  0
    0.9335    2.1628   -1.1142 O   0  0  0  0  0  0  0  0  0  0  0  0
   -0.5634    2.2450    2.0147 C   0  0  2  0  0  0  0  0  0  0  0  0
   -1.9597    2.3464    2.6679 C   0  0  0  0  0  0  0  0  0  0  0  0
    0.0917    3.6242    1.8625 C   0  0  0  0  0  0  0  0  0  0  0  0
   -1.9188    2.8078    4.1192 C   0  0  0  0  0  0  0  0  0  0  0  0
   -1.9022   -0.1128    0.2753 H   0  0  0  0  0  0  0  0  0  0  0  0
   -1.3340    2.0186   -0.0098 H   0  0  0  0  0  0  0  0  0  0  0  0
    0.0770    1.6583    2.6867 H   0  0  0  0  0  0  0  0  0  0  0  0
   -2.5754    3.0610    2.1097 H   0  0  0  0  0  0  0  0  0  0  0  0
   -2.4748    1.3796    2.6212 H   0  0  0  0  0  0  0  0  0  0  0  0
   -0.4997    4.2652    1.1999 H   0  0  0  0  0  0  0  0  0  0  0  0
    0.1617    4.1381    2.8261 H   0  0  0  0  0  0  0  0  0  0  0  0
    1.1016    3.5455    1.4469 H   0  0  0  0  0  0  0  0  0  0  0  0
   -1.3174    2.1364    4.7386 H   0  0  0  0  0  0  0  0  0  0  0  0
   -2.9312    2.8209    4.5361 H   0  0  0  0  0  0  0  0  0  0  0  0
   -1.5073    3.8187    4.1992 H   0  0  0  0  0  0  0  0  0  0  0  0
    1.7081    0.8180    0.6123 N   0  0  0  0  0  0  0  0  0  0  0  0
    3.0746    0.6951    0.1583 C   0  0  2  0  0  0  0  0  0  0  0  0
    3.9552    0.4533    1.3772 C   0  0  0  0  0  0  0  0  0  0  0  0
    3.6240    0.7710    2.5176 O   0  0  0  0  0  0  0  0  0  0  0  0
    3.5208    1.9375   -0.5967 C   0  0  0  0  0  0  0  0  0  0  0  0
    1.4419    0.3502    1.4736 H   0  0  0  0  0  0  0  0  0  0  0  0
    3.1119   -0.1803   -0.4993 H   0  0  0  0  0  0  0  0  0  0  0  0
    3.4901    2.8249    0.0460 H   0  0  0  0  0  0  0  0  0  0  0  0
    4.5467    1.8312   -0.9646 H   0  0  0  0  0  0  0  0  0  0  0  0
    2.8683    2.1267   -1.4559 H   0  0  0  0  0  0  0  0  0  0  0  0
    5.1724   -0.1197    1.0363 N   0  0  0  0  0  0  0  0  0  0  0  0
    6.1869   -0.4352    2.0147 C   0  0  0  0  0  0  0  0  0  0  0  0
    5.3545   -0.3671    0.0681 H   0  0  0  0  0  0  0  0  0  0  0  0
    6.8822    0.4119    2.1088 H   0  0  0  0  0  0  0  0  0  0  0  0
    5.7106   -0.6283    2.9873 H   0  0  0  0  0  0  0  0  0  0  0  0
    6.7404   -1.3298    1.6934 H   0  0  0  0  0  0  0  0  0  0  0  0
  1  3  1  0  0  0  0
  1  7  1  0  0  0  0
  1  2  2  0  0  0  0
 37 38  1  0  0  0  0
 38 46  1  0  0  0  0
 38 39  2  0  0  0  0
  8  9  1  0  0  0  0
  9 17  1  0  0  0  0
  9 10  2  0  0  0  0
 18 19  1  0  0  0  0
 19 36  1  0  0  0  0
 19 20  2  0  0  0  0
 22 24  1  0  0  0  0
 37 40  1  0  0  0  0
  8 11  1  0  0  0  0
 21 23  1  0  0  0  0
 46 47  1  0  0  0  0
 21 22  1  0  0  0  0
 36 37  1  0  0  0  0
  7  8  1  0  0  0  0
 18 21  1  0  0  0  0
 17 18  1  0  0  0  0
  3  4  1  0  0  0  0
  3  5  1  0  0  0  0
  3  6  1  0  0  0  0
 24 33  1  0  0  0  0
 24 34  1  0  0  0  0
 24 35  1  0  0  0  0
 40 43  1  0  0  0  0
 40 44  1  0  0  0  0
 40 45  1  0  0  0  0
 11 14  1  0  0  0  0
 11 15  1  0  0  0  0
 11 16  1  0  0  0  0
 23 30  1  0  0  0  0
 23 31  1  0  0  0  0
 23 32  1  0  0  0  0
 47 49  1  0  0  0  0
 47 50  1  0  0  0  0
 47 51  1  0  0  0  0
 22 28  1  0  0  0  0
 22 29  1  0  0  0  0
 37 42  1  0  0  0  0
  8 13  1  0  0  0  0
 18 26  1  0  0  0  0
 21 27  1  0  0  0  0
 46 48  1  0  0  0  0
  7 12  1  0  0  0  0
 36 41  1  0  0  0  0
 17 25  1  0  0  0  0
M  END
$$$$

  -OEChem-05262214473D

 51 50  0     1  0  0  0  0  0999 V2000
    1.3524   -3.0009    1.4091 C   0  0  0  0  0  0  0  0  0  0  0  0
    1.8758   -1.9880    0.9598 O   0  0  0  0  0  0  0  0  0  0  0  0
    2.2030   -4.1782    1.7536 C   0  0  0  0  0  0  0  0  0  0  0  0
    2.3264   -4.8705    0.9053 H   0  0  0  0  0  0  0  0  0  0  0  0
    3.2257   -3.8876    2.0432 H   0  0  0  0  0  0  0  0  0  0  0  0
    1.8327   -4.8004    2.5839 H   0  0  0  0  0  0  0  0  0  0  0  0
    0.0005   -3.1873    1.6465 N   0  0  0  0  0  0  0  0  0  0  0  0
   -0.9949   -2.1807    1.3864 C   0  0  2  0  0  0  0  0  0  0  0  0
   -0.3083   -0.8216    1.4164 C   0  0  0  0  0  0  0  0  0  0  0  0
    0.7533   -0.6191    2.0022 O   0  0  0  0  0  0  0  0  0  0  0  0
   -2.1232   -2.2423    2.4042 C   0  0  0  0  0  0  0  0  0  0  0  0
   -0.3048   -4.0823    2.0245 H   0  0  0  0  0  0  0  0  0  0  0  0
   -1.3830   -2.3724    0.3801 H   0  0  0  0  0  0  0  0  0  0  0  0
   -1.7534   -2.0527    3.4185 H   0  0  0  0  0  0  0  0  0  0  0  0
   -2.8936   -1.4947    2.1882 H   0  0  0  0  0  0  0  0  0  0  0  0
   -2.5964   -3.2301    2.4022 H   0  0  0  0  0  0  0  0  0  0  0  0
   -1.0412    0.1517    0.7482 N   0  0  0  0  0  0  0  0  0  0  0  0
   -0.6079    1.5223    0.6467 C   0  0  2  0  0  0  0  0  0  0  0  0
    0.7416    1.5434   -0.0698 C   0  0  0  0  0  0  0  0  0  0  0  0
    1.0186    2.3575   -0.9484 O   0  0  0  0  0  0  0  0  0  0  0  0
   -0.5634    2.2450    2.0147 C   0  0  2  0  0  0  0  0  0  0  0  0
   -1.9597    2.3464    2.6679 C   0  0  0  0  0  0  0  0  0  0  0  0
    0.0917    3.6242    1.8625 C   0  0  0  0  0  0  0  0  0  0  0  0
   -1.9188    2.8078    4.1192 C   0  0  0  0  0  0  0  0  0  0  0  0
   -1.9022   -0.1128    0.2753 H   0  0  0  0  0  0  0  0  0  0  0  0
   -1.3340    2.0186   -0.0098 H   0  0  0  0  0  0  0  0  0  0  0  0
    0.0770    1.6583    2.6867 H   0  0  0  0  0  0  0  0  0  0  0  0
   -2.5754    3.0610    2.1097 H   0  0  0  0  0  0  0  0  0  0  0  0
   -2.4748    1.3796    2.6212 H   0  0  0  0  0  0  0  0  0  0  0  0
   -0.4997    4.2652    1.1999 H   0  0  0  0  0  0  0  0  0  0  0  0
    0.1617    4.1381    2.8261 H   0  0  0  0  0  0  0  0  0  0  0  0
    1.1016    3.5455    1.4469 H   0  0  0  0  0  0  0  0  0  0  0  0
   -1.3174    2.1364    4.7386 H   0  0  0  0  0  0  0  0  0  0  0  0
   -2.9312    2.8209    4.5361 H   0  0  0  0  0  0  0  0  0  0  0  0
   -1.5073    3.8187    4.1992 H   0  0  0  0  0  0  0  0  0  0  0  0
    1.6054    0.5698    0.4114 N   0  0  0  0  0  0  0  0  0  0  0  0
    2.9514    0.3896   -0.0827 C   0  0  2  0  0  0  0  0  0  0  0  0
    3.7831   -0.2293    1.0330 C   0  0  0  0  0  0  0  0  0  0  0  0
    3.4811   -0.1433    2.2215 O   0  0  0  0  0  0  0  0  0  0  0  0
    3.5535    1.7085   -0.5418 C   0  0  0  0  0  0  0  0  0  0  0  0
    1.2750   -0.0470    1.1477 H   0  0  0  0  0  0  0  0  0  0  0  0
    2.8888   -0.3100   -0.9234 H   0  0  0  0  0  0  0  0  0  0  0  0
    3.6243    2.4223    0.2870 H   0  0  0  0  0  0  0  0  0  0  0  0
    4.5626    1.5659   -0.9423 H   0  0  0  0  0  0  0  0  0  0  0  0
    2.9380    2.1668   -1.3234 H   0  0  0  0  0  0  0  0  0  0  0  0
    4.9250   -0.8520    0.5488 N   0  0  0  0  0  0  0  0  0  0  0  0
    5.8831   -1.5033    1.4113 C   0  0  0  0  0  0  0  0  0  0  0  0
    5.0858   -0.8915   -0.4533 H   0  0  0  0  0  0  0  0  0  0  0  0
    6.6754   -0.7907    1.6840 H   0  0  0  0  0  0  0  0  0  0  0  0
    5.3767   -1.8547    2.3223 H   0  0  0  0  0  0  0  0  0  0  0  0
    6.3269   -2.3609    0.8844 H   0  0  0  0  0  0  0  0  0  0  0  0
  1  3  1  0  0  0  0
  1  7  1  0  0  0  0
  1  2  2  0  0  0  0
 37 38  1  0  0  0  0
 38 46  1  0  0  0  0
 38 39  2  0  0  0  0
  8  9  1  0  0  0  0
  9 17  1  0  0  0  0
  9 10  2  0  0  0  0
 18 19  1  0  0  0  0
 19 36  1  0  0  0  0
 19 20  2  0  0  0  0
 22 24  1  0  0  0  0
 37 40  1  0  0  0  0
  8 11  1  0  0  0  0
 21 23  1  0  0  0  0
 46 47  1  0  0  0  0
 21 22  1  0  0  0  0
 36 37  1  0  0  0  0
  7  8  1  0  0  0  0
 18 21  1  0  0  0  0
 17 18  1  0  0  0  0
  3  4  1  0  0  0  0
  3  5  1  0  0  0  0
  3  6  1  0  0  0  0
 24 33  1  0  0  0  0
 24 34  1  0  0  0  0
 24 35  1  0  0  0  0
 40 43  1  0  0  0  0
 40 44  1  0  0  0  0
 40 45  1  0  0  0  0
 11 14  1  0  0  0  0
 11 15  1  0  0  0  0
 11 16  1  0  0  0  0
 23 30  1  0  0  0  0
 23 31  1  0  0  0  0
 23 32  1  0  0  0  0
 47 49  1  0  0  0  0
 47 50  1  0  0  0  0
 47 51  1  0  0  0  0
 22 28  1  0  0  0  0
 22 29  1  0  0  0  0
 37 42  1  0  0  0  0
  8 13  1  0  0  0  0
 18 26  1  0  0  0  0
 21 27  1  0  0  0  0
 46 48  1  0  0  0  0
  7 12  1  0  0  0  0
 36 41  1  0  0  0  0
 17 25  1  0  0  0  0
M  END
$$$$

  -OEChem-05262214473D

 51 50  0     1  0  0  0  0  0999 V2000
    1.3524   -3.0009    1.4091 C   0  0  0  0  0  0  0  0  0  0  0  0
    1.8758   -1.9880    0.9598 O   0  0  0  0  0  0  0  0  0  0  0  0
    2.2030   -4.1782    1.7536 C   0  0  0  0  0  0  0  0  0  0  0  0
    2.3264   -4.8705    0.9053 H   0  0  0  0  0  0  0  0  0  0  0  0
    3.2257   -3.8876    2.0432 H   0  0  0  0  0  0  0  0  0  0  0  0
    1.8327   -4.8004    2.5839 H   0  0  0  0  0  0  0  0  0  0  0  0
    0.0005   -3.1873    1.6465 N   0  0  0  0  0  0  0  0  0  0  0  0
   -0.9949   -2.1807    1.3864 C   0  0  2  0  0  0  0  0  0  0  0  0
   -0.3083   -0.8216    1.4164 C   0  0  0  0  0  0  0  0  0  0  0  0
    0.7533   -0.6191    2.0022 O   0  0  0  0  0  0  0  0  0  0  0  0
   -2.1232   -2.2423    2.4042 C   0  0  0  0  0  0  0  0  0  0  0  0
   -0.3048   -4.0823    2.0245 H   0  0  0  0  0  0  0  0  0  0  0  0
   -1.3830   -2.3724    0.3801 H   0  0  0  0  0  0  0  0  0  0  0  0
   -1.7534   -2.0527    3.4185 H   0  0  0  0  0  0  0  0  0  0  0  0
   -2.8936   -1.4947    2.1882 H   0  0  0  0  0  0  0  0  0  0  0  0
   -2.5964   -3.2301    2.4022 H   0  0  0  0  0  0  0  0  0  0  0  0
   -1.0412    0.1517    0.7482 N   0  0  0  0  0  0  0  0  0  0  0  0
   -0.6079    1.5223    0.6467 C   0  0  2  0  0  0  0  0  0  0  0  0
    0.7416    1.5434   -0.0698 C   0  0  0  0  0  0  0  0  0  0  0  0
    1.1249    2.4973   -0.7440 O   0  0  0  0  0  0  0  0  0  0  0  0
   -0.5634    2.2450    2.0147 C   0  0  2  0  0  0  0  0  0  0  0  0
   -1.9597    2.3464    2.6679 C   0  0  0  0  0  0  0  0  0  0  0  0
    0.0917    3.6242    1.8625 C   0  0  0  0  0  0  0  0  0  0  0  0
   -1.9188    2.8078    4.1192 C   0  0  0  0  0  0  0  0  0  0  0  0
   -1.9022   -0.1128    0.2753 H   0  0  0  0  0  0  0  0  0  0  0  0
   -1.3340    2.0186   -0.0098 H   0  0  0  0  0  0  0  0  0  0  0  0
    0.0770    1.6583    2.6867 H   0  0  0  0  0  0  0  0  0  0  0  0
   -2.5754    3.0610    2.1097 H   0  0  0  0  0  0  0  0  0  0  0  0
   -2.4748    1.3796    2.6212 H   0  0  0  0  0  0  0  0  0  0  0  0
   -0.4997    4.2652    1.1999 H   0  0  0  0  0  0  0  0  0  0  0  0
    0.1617    4.1381    2.8261 H   0  0  0  0  0  0  0  0  0  0  0  0
    1.1016    3.5455    1.4469 H   0  0  0  0  0  0  0  0  0  0  0  0
   -1.3174    2.1364    4.7386 H   0  0  0  0  0  0  0  0  0  0  0  0
   -2.9312    2.8209    4.5361 H   0  0  0  0  0  0  0  0  0  0  0  0
   -1.5073    3.8187    4.1992 H   0  0  0  0  0  0  0  0  0  0  0  0
    1.4752    0.3884    0.1611 N   0  0  0  0  0  0  0  0  0  0  0  0
    2.7945    0.1646   -0.3849 C   0  0  2  0  0  0  0  0  0  0  0  0
    3.5328   -0.7891    0.5452 C   0  0  0  0  0  0  0  0  0  0  0  0
    3.2310   -0.9414    1.7270 O   0  0  0  0  0  0  0  0  0  0  0  0
    3.5575    1.4707   -0.5412 C   0  0  0  0  0  0  0  0  0  0  0  0
    1.0645   -0.3359    0.7428 H   0  0  0  0  0  0  0  0  0  0  0  0
    2.6560   -0.3112   -1.3618 H   0  0  0  0  0  0  0  0  0  0  0  0
    3.7060    1.9620    0.4273 H   0  0  0  0  0  0  0  0  0  0  0  0
    4.5459    1.3026   -0.9815 H   0  0  0  0  0  0  0  0  0  0  0  0
    3.0107    2.1667   -1.1865 H   0  0  0  0  0  0  0  0  0  0  0  0
    4.5954   -1.4179   -0.0886 N   0  0  0  0  0  0  0  0  0  0  0  0
    5.4579   -2.3602    0.5853 C   0  0  0  0  0  0  0  0  0  0  0  0
    4.7608   -1.2462   -1.0759 H   0  0  0  0  0  0  0  0  0  0  0  0
    6.3282   -1.8301    0.9996 H   0  0  0  0  0  0  0  0  0  0  0  0
    4.9029   -2.8469    1.4009 H   0  0  0  0  0  0  0  0  0  0  0  0
    5.7995   -3.1218   -0.1312 H   0  0  0  0  0  0  0  0  0  0  0  0
  1  3  1  0  0  0  0
  1  7  1  0  0  0  0
  1  2  2  0  0  0  0
 37 38  1  0  0  0  0
 38 46  1  0  0  0  0
 38 39  2  0  0  0  0
  8  9  1  0  0  0  0
  9 17  1  0  0  0  0
  9 10  2  0  0  0  0
 18 19  1  0  0  0  0
 19 36  1  0  0  0  0
 19 20  2  0  0  0  0
 22 24  1  0  0  0  0
 37 40  1  0  0  0  0
  8 11  1  0  0  0  0
 21 23  1  0  0  0  0
 46 47  1  0  0  0  0
 21 22  1  0  0  0  0
 36 37  1  0  0  0  0
  7  8  1  0  0  0  0
 18 21  1  0  0  0  0
 17 18  1  0  0  0  0
  3  4  1  0  0  0  0
  3  5  1  0  0  0  0
  3  6  1  0  0  0  0
 24 33  1  0  0  0  0
 24 34  1  0  0  0  0
 24 35  1  0  0  0  0
 40 43  1  0  0  0  0
 40 44  1  0  0  0  0
 40 45  1  0  0  0  0
 11 14  1  0  0  0  0
 11 15  1  0  0  0  0
 11 16  1  0  0  0  0
 23 30  1  0  0  0  0
 23 31  1  0  0  0  0
 23 32  1  0  0  0  0
 47 49  1  0  0  0  0
 47 50  1  0  0  0  0
 47 51  1  0  0  0  0
 22 28  1  0  0  0  0
 22 29  1  0  0  0  0
 37 42  1  0  0  0  0
  8 13  1  0  0  0  0
 18 26  1  0  0  0  0
 21 27  1  0  0  0  0
 46 48  1  0  0  0  0
  7 12  1  0  0  0  0
 36 41  1  0  0  0  0
 17 25  1  0  0  0  0
M  END
$$$$

  -OEChem-05262214473D

 51 50  0     1  0  0  0  0  0999 V2000
    1.3524   -3.0009    1.4091 C   0  0  0  0  0  0  0  0  0  0  0  0
    1.8758   -1.9880    0.9598 O   0  0  0  0  0  0  0  0  0  0  0  0
    2.2030   -4.1782    1.7536 C   0  0  0  0  0  0  0  0  0  0  0  0
    2.3264   -4.8705    0.9053 H   0  0  0  0  0  0  0  0  0  0  0  0
    3.2257   -3.8876    2.0432 H   0  0  0  0  0  0  0  0  0  0  0  0
    1.8327   -4.8004    2.5839 H   0  0  0  0  0  0  0  0  0  0  0  0
    0.0005   -3.1873    1.6465 N   0  0  0  0  0  0  0  0  0  0  0  0
   -0.9949   -2.1807    1.3864 C   0  0  2  0  0  0  0  0  0  0  0  0
   -0.3083   -0.8216    1.4164 C   0  0  0  0  0  0  0  0  0  0  0  0
    0.7533   -0.6191    2.0022 O   0  0  0  0  0  0  0  0  0  0  0  0
   -2.1232   -2.2423    2.4042 C   0  0  0  0  0  0  0  0  0  0  0  0
   -0.3048   -4.0823    2.0245 H   0  0  0  0  0  0  0  0  0  0  0  0
   -1.3830   -2.3724    0.3801 H   0  0  0  0  0  0  0  0  0  0  0  0
   -1.7534   -2.0527    3.4185 H   0  0  0  0  0  0  0  0  0  0  0  0
   -2.8936   -1.4947    2.1882 H   0  0  0  0  0  0  0  0  0  0  0  0
   -2.5964   -3.2301    2.4022 H   0  0  0  0  0  0  0  0  0  0  0  0
   -1.0412    0.1517    0.7482 N   0  0  0  0  0  0  0  0  0  0  0  0
   -0.6079    1.5223    0.6467 C   0  0  2  0  0  0  0  0  0  0  0  0
    0.7416    1.5434   -0.0698 C   0  0  0  0  0  0  0  0  0  0  0  0
    1.2453    2.5727   -0.5151 O   0  0  0  0  0  0  0  0  0  0  0  0
   -0.5634    2.2450    2.0147 C   0  0  2  0  0  0  0  0  0  0  0  0
   -1.9597    2.3464    2.6679 C   0  0  0  0  0  0  0  0  0  0  0  0
    0.0917    3.6242    1.8625 C   0  0  0  0  0  0  0  0  0  0  0  0
   -1.9188    2.8078    4.1192 C   0  0  0  0  0  0  0  0  0  0  0  0
   -1.9022   -0.1128    0.2753 H   0  0  0  0  0  0  0  0  0  0  0  0
   -1.3340    2.0186   -0.0098 H   0  0  0  0  0  0  0  0  0  0  0  0
    0.0770    1.6583    2.6867 H   0  0  0  0  0  0  0  0  0  0  0  0
   -2.5754    3.0610    2.1097 H   0  0  0  0  0  0  0  0  0  0  0  0
   -2.4748    1.3796    2.6212 H   0  0  0  0  0  0  0  0  0  0  0  0
   -0.4997    4.2652    1.1999 H   0  0  0  0  0  0  0  0  0  0  0  0
    0.1617    4.1381    2.8261 H   0  0  0  0  0  0  0  0  0  0  0  0
    1.1016    3.5455    1.4469 H   0  0  0  0  0  0  0  0  0  0  0  0
   -1.3174    2.1364    4.7386 H   0  0  0  0  0  0  0  0  0  0  0  0
   -2.9312    2.8209    4.5361 H   0  0  0  0  0  0  0  0  0  0  0  0
   -1.5073    3.8187    4.1992 H   0  0  0  0  0  0  0  0  0  0  0  0
    1.3267    0.2862   -0.1218 N   0  0  0  0  0  0  0  0  0  0  0  0
    2.6145    0.0353   -0.7276 C   0  0  2  0  0  0  0  0  0  0  0  0
    3.2213   -1.1879   -0.0531 C   0  0  0  0  0  0  0  0  0  0  0  0
    2.8908   -1.5690    1.0679 O   0  0  0  0  0  0  0  0  0  0  0  0
    3.5325    1.2405   -0.5950 C   0  0  0  0  0  0  0  0  0  0  0  0
    0.8247   -0.4968    0.2863 H   0  0  0  0  0  0  0  0  0  0  0  0
    2.4294   -0.1840   -1.7848 H   0  0  0  0  0  0  0  0  0  0  0  0
    3.7295    1.4755    0.4573 H   0  0  0  0  0  0  0  0  0  0  0  0
    4.4977    1.0593   -1.0795 H   0  0  0  0  0  0  0  0  0  0  0  0
    3.0813    2.1265   -1.0546 H   0  0  0  0  0  0  0  0  0  0  0  0
    4.2061   -1.7789   -0.8324 N   0  0  0  0  0  0  0  0  0  0  0  0
    4.9403   -2.9476   -0.4068 C   0  0  0  0  0  0  0  0  0  0  0  0
    4.4016   -1.4071   -1.7572 H   0  0  0  0  0  0  0  0  0  0  0  0
    5.8642   -2.6356    0.1021 H   0  0  0  0  0  0  0  0  0  0  0  0
    4.3215   -3.5371    0.2857 H   0  0  0  0  0  0  0  0  0  0  0  0
    5.1942   -3.5605   -1.2842 H   0  0  0  0  0  0  0  0  0  0  0  0
  1  3  1  0  0  0  0
  1  7  1  0  0  0  0
  1  2  2  0  0  0  0
 37 38  1  0  0  0  0
 38 46  1  0  0  0  0
 38 39  2  0  0  0  0
  8  9  1  0  0  0  0
  9 17  1  0  0  0  0
  9 10  2  0  0  0  0
 18 19  1  0  0  0  0
 19 36  1  0  0  0  0
 19 20  2  0  0  0  0
 22 24  1  0  0  0  0
 37 40  1  0  0  0  0
  8 11  1  0  0  0  0
 21 23  1  0  0  0  0
 46 47  1  0  0  0  0
 21 22  1  0  0  0  0
 36 37  1  0  0  0  0
  7  8  1  0  0  0  0
 18 21  1  0  0  0  0
 17 18  1  0  0  0  0
  3  4  1  0  0  0  0
  3  5  1  0  0  0  0
  3  6  1  0  0  0  0
 24 33  1  0  0  0  0
 24 34  1  0  0  0  0
 24 35  1  0  0  0  0
 40 43  1  0  0  0  0
 40 44  1  0  0  0  0
 40 45  1  0  0  0  0
 11 14  1  0  0  0  0
 11 15  1  0  0  0  0
 11 16  1  0  0  0  0
 23 30  1  0  0  0  0
 23 31  1  0  0  0  0
 23 32  1  0  0  0  0
 47 49  1  0  0  0  0
 47 50  1  0  0  0  0
 47 51  1  0  0  0  0
 22 28  1  0  0  0  0
 22 29  1  0  0  0  0
 37 42  1  0  0  0  0
  8 13  1  0  0  0  0
 18 26  1  0  0  0  0
 21 27  1  0  0  0  0
 46 48  1  0  0  0  0
  7 12  1  0  0  0  0
 36 41  1  0  0  0  0
 17 25  1  0  0  0  0
M  END
$$$$

  -OEChem-05262214473D

 51 50  0     1  0  0  0  0  0999 V2000
    1.3524   -3.0009    1.4091 C   0  0  0  0  0  0  0  0  0  0  0  0
    1.8758   -1.9880    0.9598 O   0  0  0  0  0  0  0  0  0  0  0  0
    2.2030   -4.1782    1.7536 C   0  0  0  0  0  0  0  0  0  0  0  0
    2.3264   -4.8705    0.9053 H   0  0  0  0  0  0  0  0  0  0  0  0
    3.2257   -3.8876    2.0432 H   0  0  0  0  0  0  0  0  0  0  0  0
    1.8327   -4.8004    2.5839 H   0  0  0  0  0  0  0  0  0  0  0  0
    0.0005   -3.1873    1.6465 N   0  0  0  0  0  0  0  0  0  0  0  0
   -0.9949   -2.1807    1.3864 C   0  0  2  0  0  0  0  0  0  0  0  0
   -0.3083   -0.8216    1.4164 C   0  0  0  0  0  0  0  0  0  0  0  0
    0.7533   -0.6191    2.0022 O   0  0  0  0  0  0  0  0  0  0  0  0
   -2.1232   -2.2423    2.4042 C   0  0  0  0  0  0  0  0  0  0  0  0
   -0.3048   -4.0823    2.0245 H   0  0  0  0  0  0  0  0  0  0  0  0
   -1.3830   -2.3724    0.3801 H   0  0  0  0  0  0  0  0  0  0  0  0
   -1.7534   -2.0527    3.4185 H   0  0  0  0  0  0  0  0  0  0  0  0
   -2.8936   -1.4947    2.1882 H   0  0  0  0  0  0  0  0  0  0  0  0
   -2.5964   -3.2301    2.4022 H   0  0  0  0  0  0  0  0  0  0  0  0
   -1.0412    0.1517    0.7482 N   0  0  0  0  0  0  0  0  0  0  0  0
   -0.6079    1.5223    0.6467 C   0  0  2  0  0  0  0  0  0  0  0  0
    0.7416    1.5434   -0.0698 C   0  0  0  0  0  0  0  0  0  0  0  0
    1.3716    2.5786   -0.2771 O   0  0  0  0  0  0  0  0  0  0  0  0
   -0.5634    2.2450    2.0147 C   0  0  2  0  0  0  0  0  0  0  0  0
   -1.9597    2.3464    2.6679 C   0  0  0  0  0  0  0  0  0  0  0  0
    0.0917    3.6242    1.8625 C   0  0  0  0  0  0  0  0  0  0  0  0
   -1.9188    2.8078    4.1192 C   0  0  0  0  0  0  0  0  0  0  0  0
   -1.9022   -0.1128    0.2753 H   0  0  0  0  0  0  0  0  0  0  0  0
   -1.3340    2.0186   -0.0098 H   0  0  0  0  0  0  0  0  0  0  0  0
    0.0770    1.6583    2.6867 H   0  0  0  0  0  0  0  0  0  0  0  0
   -2.5754    3.0610    2.1097 H   0  0  0  0  0  0  0  0  0  0  0  0
   -2.4748    1.3796    2.6212 H   0  0  0  0  0  0  0  0  0  0  0  0
   -0.4997    4.2652    1.1999 H   0  0  0  0  0  0  0  0  0  0  0  0
    0.1617    4.1381    2.8261 H   0  0  0  0  0  0  0  0  0  0  0  0
    1.1016    3.5455    1.4469 H   0  0  0  0  0  0  0  0  0  0  0  0
   -1.3174    2.1364    4.7386 H   0  0  0  0  0  0  0  0  0  0  0  0
   -2.9312    2.8209    4.5361 H   0  0  0  0  0  0  0  0  0  0  0  0
   -1.5073    3.8187    4.1992 H   0  0  0  0  0  0  0  0  0  0  0  0
    1.1697    0.2701   -0.4178 N   0  0  0  0  0  0  0  0  0  0  0  0
    2.4238    0.0107   -1.0876 C   0  0  2  0  0  0  0  0  0  0  0  0
    2.8699   -1.3986   -0.7211 C   0  0  0  0  0  0  0  0  0  0  0  0
    2.4836   -1.9831    0.2889 O   0  0  0  0  0  0  0  0  0  0  0  0
    3.4803    1.0334   -0.6996 C   0  0  0  0  0  0  0  0  0  0  0  0
    0.5719   -0.5189   -0.1905 H   0  0  0  0  0  0  0  0  0  0  0  0
    2.2245    0.0631   -2.1635 H   0  0  0  0  0  0  0  0  0  0  0  0
    3.6933    0.9958    0.3750 H   0  0  0  0  0  0  0  0  0  0  0  0
    4.4212    0.8525   -1.2295 H   0  0  0  0  0  0  0  0  0  0  0  0
    3.1452    2.0490   -0.9366 H   0  0  0  0  0  0  0  0  0  0  0  0
    3.7836   -1.9102   -1.6320 N   0  0  0  0  0  0  0  0  0  0  0  0
    4.3655   -3.2253   -1.4976 C   0  0  0  0  0  0  0  0  0  0  0  0
    4.0326   -1.3632   -2.4508 H   0  0  0  0  0  0  0  0  0  0  0  0
    5.3151   -3.1521   -0.9473 H   0  0  0  0  0  0  0  0  0  0  0  0
    3.6723   -3.8783   -0.9471 H   0  0  0  0  0  0  0  0  0  0  0  0
    4.5520   -3.6473   -2.4961 H   0  0  0  0  0  0  0  0  0  0  0  0
  1  3  1  0  0  0  0
  1  7  1  0  0  0  0
  1  2  2  0  0  0  0
 37 38  1  0  0  0  0
 38 46  1  0  0  0  0
 38 39  2  0  0  0  0
  8  9  1  0  0  0  0
  9 17  1  0  0  0  0
  9 10  2  0  0  0  0
 18 19  1  0  0  0  0
 19 36  1  0  0  0  0
 19 20  2  0  0  0  0
 22 24  1  0  0  0  0
 37 40  1  0  0  0  0
  8 11  1  0  0  0  0
 21 23  1  0  0  0  0
 46 47  1  0  0  0  0
 21 22  1  0  0  0  0
 36 37  1  0  0  0  0
  7  8  1  0  0  0  0
 18 21  1  0  0  0  0
 17 18  1  0  0  0  0
  3  4  1  0  0  0  0
  3  5  1  0  0  0  0
  3  6  1  0  0  0  0
 24 33  1  0  0  0  0
 24 34  1  0  0  0  0
 24 35  1  0  0  0  0
 40 43  1  0  0  0  0
 40 44  1  0  0  0  0
 40 45  1  0  0  0  0
 11 14  1  0  0  0  0
 11 15  1  0  0  0  0
 11 16  1  0  0  0  0
 23 30  1  0  0  0  0
 23 31  1  0  0  0  0
 23 32  1  0  0  0  0
 47 49  1  0  0  0  0
 47 50  1  0  0  0  0
 47 51  1  0  0  0  0
 22 28  1  0  0  0  0
 22 29  1  0  0  0  0
 37 42  1  0  0  0  0
  8 13  1  0  0  0  0
 18 26  1  0  0  0  0
 21 27  1  0  0  0  0
 46 48  1  0  0  0  0
  7 12  1  0  0  0  0
 36 41  1  0  0  0  0
 17 25  1  0  0  0  0
M  END
$$$$

  -OEChem-05262214473D

 51 50  0     1  0  0  0  0  0999 V2000
    1.3524   -3.0009    1.4091 C   0  0  0  0  0  0  0  0  0  0  0  0
    1.8758   -1.9880    0.9598 O   0  0  0  0  0  0  0  0  0  0  0  0
    2.2030   -4.1782    1.7536 C   0  0  0  0  0  0  0  0  0  0  0  0
    2.3264   -4.8705    0.9053 H   0  0  0  0  0  0  0  0  0  0  0  0
    3.2257   -3.8876    2.0432 H   0  0  0  0  0  0  0  0  0  0  0  0
    1.8327   -4.8004    2.5839 H   0  0  0  0  0  0  0  0  0  0  0  0
    0.0005   -3.1873    1.6465 N   0  0  0  0  0  0  0  0  0  0  0  0
   -0.9949   -2.1807    1.3864 C   0  0  2  0  0  0  0  0  0  0  0  0
   -0.3083   -0.8216    1.4164 C   0  0  0  0  0  0  0  0  0  0  0  0
    0.7533   -0.6191    2.0022 O   0  0  0  0  0  0  0  0  0  0  0  0
   -2.1232   -2.2423    2.4042 C   0  0  0  0  0  0  0  0  0  0  0  0
   -0.3048   -4.0823    2.0245 H   0  0  0  0  0  0  0  0  0  0  0  0
   -1.3830   -2.3724    0.3801 H   0  0  0  0  0  0  0  0  0  0  0  0
   -1.7534   -2.0527    3.4185 H   0  0  0  0  0  0  0  0  0  0  0  0
   -2.8936   -1.4947    2.1882 H   0  0  0  0  0  0  0  0  0  0  0  0
   -2.5964   -3.2301    2.4022 H   0  0  0  0  0  0  0  0  0  0  0  0
   -1.0412    0.1517    0.7482 N   0  0  0  0  0  0  0  0  0  0  0  0
   -0.6079    1.5223    0.6467 C   0  0  2  0  0  0  0  0  0  0  0  0
    0.7416    1.5434   -0.0698 C   0  0  0  0  0  0  0  0  0  0  0  0
    1.4951    2.5145   -0.0463 O   0  0  0  0  0  0  0  0  0  0  0  0
   -0.5634    2.2450    2.0147 C   0  0  2  0  0  0  0  0  0  0  0  0
   -1.9597    2.3464    2.6679 C   0  0  0  0  0  0  0  0  0  0  0  0
    0.0917    3.6242    1.8625 C   0  0  0  0  0  0  0  0  0  0  0  0
   -1.9188    2.8078    4.1192 C   0  0  0  0  0  0  0  0  0  0  0  0
   -1.9022   -0.1128    0.2753 H   0  0  0  0  0  0  0  0  0  0  0  0
   -1.3340    2.0186   -0.0098 H   0  0  0  0  0  0  0  0  0  0  0  0
    0.0770    1.6583    2.6867 H   0  0  0  0  0  0  0  0  0  0  0  0
   -2.5754    3.0610    2.1097 H   0  0  0  0  0  0  0  0  0  0  0  0
   -2.4748    1.3796    2.6212 H   0  0  0  0  0  0  0  0  0  0  0  0
   -0.4997    4.2652    1.1999 H   0  0  0  0  0  0  0  0  0  0  0  0
    0.1617    4.1381    2.8261 H   0  0  0  0  0  0  0  0  0  0  0  0
    1.1016    3.5455    1.4469 H   0  0  0  0  0  0  0  0  0  0  0  0
   -1.3174    2.1364    4.7386 H   0  0  0  0  0  0  0  0  0  0  0  0
   -2.9312    2.8209    4.5361 H   0  0  0  0  0  0  0  0  0  0  0  0
   -1.5073    3.8187    4.1992 H   0  0  0  0  0  0  0  0  0  0  0  0
    1.0151    0.3413   -0.7069 N   0  0  0  0  0  0  0  0  0  0  0  0
    2.2353    0.0923   -1.4402 C   0  0  2  0  0  0  0  0  0  0  0  0
    2.5026   -1.4068   -1.4132 C   0  0  0  0  0  0  0  0  0  0  0  0
    2.0373   -2.1558   -0.5567 O   0  0  0  0  0  0  0  0  0  0  0  0
    3.4043    0.8636   -0.8477 C   0  0  0  0  0  0  0  0  0  0  0  0
    0.3233   -0.4005   -0.6552 H   0  0  0  0  0  0  0  0  0  0  0  0
    2.0552    0.4132   -2.4721 H   0  0  0  0  0  0  0  0  0  0  0  0
    3.5998    0.5557    0.1860 H   0  0  0  0  0  0  0  0  0  0  0  0
    4.3217    0.6963   -1.4215 H   0  0  0  0  0  0  0  0  0  0  0  0
    3.1979    1.9394   -0.8406 H   0  0  0  0  0  0  0  0  0  0  0  0
    3.3567   -1.8031   -2.4329 N   0  0  0  0  0  0  0  0  0  0  0  0
    3.7726   -3.1745   -2.6126 C   0  0  0  0  0  0  0  0  0  0  0  0
    3.6791   -1.1175   -3.1094 H   0  0  0  0  0  0  0  0  0  0  0  0
    4.7183   -3.3445   -2.0770 H   0  0  0  0  0  0  0  0  0  0  0  0
    2.9993   -3.8474   -2.2137 H   0  0  0  0  0  0  0  0  0  0  0  0
    3.9170   -3.3762   -3.6843 H   0  0  0  0  0  0  0  0  0  0  0  0
  1  3  1  0  0  0  0
  1  7  1  0  0  0  0
  1  2  2  0  0  0  0
 37 38  1  0  0  0  0
 38 46  1  0  0  0  0
 38 39  2  0  0  0  0
  8  9  1  0  0  0  0
  9 17  1  0  0  0  0
  9 10  2  0  0  0  0
 18 19  1  0  0  0  0
 19 36  1  0  0  0  0
 19 20  2  0  0  0  0
 22 24  1  0  0  0  0
 37 40  1  0  0  0  0
  8 11  1  0  0  0  0
 21 23  1  0  0  0  0
 46 47  1  0  0  0  0
 21 22  1  0  0  0  0
 36 37  1  0  0  0  0
  7  8  1  0  0  0  0
 18 21  1  0  0  0  0
 17 18  1  0  0  0  0
  3  4  1  0  0  0  0
  3  5  1  0  0  0  0
  3  6  1  0  0  0  0
 24 33  1  0  0  0  0
 24 34  1  0  0  0  0
 24 35  1  0  0  0  0
 40 43  1  0  0  0  0
 40 44  1  0  0  0  0
 40 45  1  0  0  0  0
 11 14  1  0  0  0  0
 11 15  1  0  0  0  0
 11 16  1  0  0  0  0
 23 30  1  0  0  0  0
 23 31  1  0  0  0  0
 23 32  1  0  0  0  0
 47 49  1  0  0  0  0
 47 50  1  0  0  0  0
 47 51  1  0  0  0  0
 22 28  1  0  0  0  0
 22 29  1  0  0  0  0
 37 42  1  0  0  0  0
  8 13  1  0  0  0  0
 18 26  1  0  0  0  0
 21 27  1  0  0  0  0
 46 48  1  0  0  0  0
  7 12  1  0  0  0  0
 36 41  1  0  0  0  0
 17 25  1  0  0  0  0
M  END
$$$$

  -OEChem-05262214473D

 51 50  0     1  0  0  0  0  0999 V2000
    1.3524   -3.0009    1.4091 C   0  0  0  0  0  0  0  0  0  0  0  0
    1.8758   -1.9880    0.9598 O   0  0  0  0  0  0  0  0  0  0  0  0
    2.2030   -4.1782    1.7536 C   0  0  0  0  0  0  0  0  0  0  0  0
    2.3264   -4.8705    0.9053 H   0  0  0  0  0  0  0  0  0  0  0  0
    3.2257   -3.8876    2.0432 H   0  0  0  0  0  0  0  0  0  0  0  0
    1.8327   -4.8004    2.5839 H   0  0  0  0  0  0  0  0  0  0  0  0
    0.0005   -3.1873    1.6465 N   0  0  0  0  0  0  0  0  0  0  0  0
   -0.9949   -2.1807    1.3864 C   0  0  2  0  0  0  0  0  0  0  0  0
   -0.3083   -0.8216    1.4164 C   0  0  0  0  0  0  0  0  0  0  0  0
    0.7533   -0.6191    2.0022 O   0  0  0  0  0  0  0  0  0  0  0  0
   -2.1232   -2.2423    2.4042 C   0  0  0  0  0  0  0  0  0  0  0  0
   -0.3048   -4.0823    2.0245 H   0  0  0  0  0  0  0  0  0  0  0  0
   -1.3830   -2.3724    0.3801 H   0  0  0  0  0  0  0  0  0  0  0  0
   -1.7534   -2.0527    3.4185 H   0  0  0  0  0  0  0  0  0  0  0  0
   -2.8936   -1.4947    2.1882 H   0  0  0  0  0  0  0  0  0  0  0  0
   -2.5964   -3.2301    2.4022 H   0  0  0  0  0  0  0  0  0  0  0  0
   -1.0412    0.1517    0.7482 N   0  0  0  0  0  0  0  0  0  0  0  0
   -0.6079    1.5223    0.6467 C   0  0  2  0  0  0  0  0  0  0  0  0
    0.7416    1.5434   -0.0698 C   0  0  0  0  0  0  0  0  0  0  0  0
    1.6075    2.3849    0.1615 O   0  0  0  0  0  0  0  0  0  0  0  0
   -0.5634    2.2450    2.0147 C   0  0  2  0  0  0  0  0  0  0  0  0
   -1.9597    2.3464    2.6679 C   0  0  0  0  0  0  0  0  0  0  0  0
    0.0917    3.6242    1.8625 C   0  0  0  0  0  0  0  0  0  0  0  0
   -1.9188    2.8078    4.1192 C   0  0  0  0  0  0  0  0  0  0  0  0
   -1.9022   -0.1128    0.2753 H   0  0  0  0  0  0  0  0  0  0  0  0
   -1.3340    2.0186   -0.0098 H   0  0  0  0  0  0  0  0  0  0  0  0
    0.0770    1.6583    2.6867 H   0  0  0  0  0  0  0  0  0  0  0  0
   -2.5754    3.0610    2.1097 H   0  0  0  0  0  0  0  0  0  0  0  0
   -2.4748    1.3796    2.6212 H   0  0  0  0  0  0  0  0  0  0  0  0
   -0.4997    4.2652    1.1999 H   0  0  0  0  0  0  0  0  0  0  0  0
    0.1617    4.1381    2.8261 H   0  0  0  0  0  0  0  0  0  0  0  0
    1.1016    3.5455    1.4469 H   0  0  0  0  0  0  0  0  0  0  0  0
   -1.3174    2.1364    4.7386 H   0  0  0  0  0  0  0  0  0  0  0  0
   -2.9312    2.8209    4.5361 H   0  0  0  0  0  0  0  0  0  0  0  0
   -1.5073    3.8187    4.1992 H   0  0  0  0  0  0  0  0  0  0  0  0
    0.8734    0.4950   -0.9693 N   0  0  0  0  0  0  0  0  0  0  0  0
    2.0618    0.2746   -1.7616 C   0  0  2  0  0  0  0  0  0  0  0  0
    2.1443   -1.2119   -2.0823 C   0  0  0  0  0  0  0  0  0  0  0  0
    1.5823   -2.0751   -1.4113 O   0  0  0  0  0  0  0  0  0  0  0  0
    3.3097    0.7427   -1.0293 C   0  0  0  0  0  0  0  0  0  0  0  0
    0.0959   -0.1497   -1.0761 H   0  0  0  0  0  0  0  0  0  0  0  0
    1.9331    0.8424   -2.6895 H   0  0  0  0  0  0  0  0  0  0  0  0
    3.4554    0.1851   -0.0969 H   0  0  0  0  0  0  0  0  0  0  0  0
    4.2060    0.6014   -1.6423 H   0  0  0  0  0  0  0  0  0  0  0  0
    3.2358    1.8051   -0.7731 H   0  0  0  0  0  0  0  0  0  0  0  0
    2.9545   -1.4647   -3.1804 N   0  0  0  0  0  0  0  0  0  0  0  0
    3.2022   -2.7986   -3.6759 C   0  0  0  0  0  0  0  0  0  0  0  0
    3.3651   -0.6867   -3.6881 H   0  0  0  0  0  0  0  0  0  0  0  0
    4.1144   -3.1997   -3.2101 H   0  0  0  0  0  0  0  0  0  0  0  0
    2.3485   -3.4463   -3.4276 H   0  0  0  0  0  0  0  0  0  0  0  0
    3.3322   -2.7657   -4.7677 H   0  0  0  0  0  0  0  0  0  0  0  0
  1  3  1  0  0  0  0
  1  7  1  0  0  0  0
  1  2  2  0  0  0  0
 37 38  1  0  0  0  0
 38 46  1  0  0  0  0
 38 39  2  0  0  0  0
  8  9  1  0  0  0  0
  9 17  1  0  0  0  0
  9 10  2  0  0  0  0
 18 19  1  0  0  0  0
 19 36  1  0  0  0  0
 19 20  2  0  0  0  0
 22 24  1  0  0  0  0
 37 40  1  0  0  0  0
  8 11  1  0  0  0  0
 21 23  1  0  0  0  0
 46 47  1  0  0  0  0
 21 22  1  0  0  0  0
 36 37  1  0  0  0  0
  7  8  1  0  0  0  0
 18 21  1  0  0  0  0
 17 18  1  0  0  0  0
  3  4  1  0  0  0  0
  3  5  1  0  0  0  0
  3  6  1  0  0  0  0
 24 33  1  0  0  0  0
 24 34  1  0  0  0  0
 24 35  1  0  0  0  0
 40 43  1  0  0  0  0
 40 44  1  0  0  0  0
 40 45  1  0  0  0  0
 11 14  1  0  0  0  0
 11 15  1  0  0  0  0
 11 16  1  0  0  0  0
 23 30  1  0  0  0  0
 23 31  1  0  0  0  0
 23 32  1  0  0  0  0
 47 49  1  0  0  0  0
 47 50  1  0  0  0  0
 47 51  1  0  0  0  0
 22 28  1  0  0  0  0
 22 29  1  0  0  0  0
 37 42  1  0  0  0  0
  8 13  1  0  0  0  0
 18 26  1  0  0  0  0
 21 27  1  0  0  0  0
 46 48  1  0  0  0  0
  7 12  1  0  0  0  0
 36 41  1  0  0  0  0
 17 25  1  0  0  0  0
M  END
$$$$

  -OEChem-05262214473D

 51 50  0     1  0  0  0  0  0999 V2000
    1.3524   -3.0009    1.4091 C   0  0  0  0  0  0  0  0  0  0  0  0
    1.8758   -1.9880    0.9598 O   0  0  0  0  0  0  0  0  0  0  0  0
    2.2030   -4.1782    1.7536 C   0  0  0  0  0  0  0  0  0  0  0  0
    2.3264   -4.8705    0.9053 H   0  0  0  0  0  0  0  0  0  0  0  0
    3.2257   -3.8876    2.0432 H   0  0  0  0  0  0  0  0  0  0  0  0
    1.8327   -4.8004    2.5839 H   0  0  0  0  0  0  0  0  0  0  0  0
    0.0005   -3.1873    1.6465 N   0  0  0  0  0  0  0  0  0  0  0  0
   -0.9949   -2.1807    1.3864 C   0  0  2  0  0  0  0  0  0  0  0  0
   -0.3083   -0.8216    1.4164 C   0  0  0  0  0  0  0  0  0  0  0  0
    0.7533   -0.6191    2.0022 O   0  0  0  0  0  0  0  0  0  0  0  0
   -2.1232   -2.2423    2.4042 C   0  0  0  0  0  0  0  0  0  0  0  0
   -0.3048   -4.0823    2.0245 H   0  0  0  0  0  0  0  0  0  0  0  0
   -1.3830   -2.3724    0.3801 H   0  0  0  0  0  0  0  0  0  0  0  0
   -1.7534   -2.0527    3.4185 H   0  0  0  0  0  0  0  0  0  0  0  0
   -2.8936   -1.4947    2.1882 H   0  0  0  0  0  0  0  0  0  0  0  0
   -2.5964   -3.2301    2.4022 H   0  0  0  0  0  0  0  0  0  0  0  0
   -1.0412    0.1517    0.7482 N   0  0  0  0  0  0  0  0  0  0  0  0
   -0.6079    1.5223    0.6467 C   0  0  2  0  0  0  0  0  0  0  0  0
    0.7416    1.5434   -0.0698 C   0  0  0  0  0  0  0  0  0  0  0  0
    1.7010    2.1986    0.3322 O   0  0  0  0  0  0  0  0  0  0  0  0
   -0.5634    2.2450    2.0147 C   0  0  2  0  0  0  0  0  0  0  0  0
   -1.9597    2.3464    2.6679 C   0  0  0  0  0  0  0  0  0  0  0  0
    0.0917    3.6242    1.8625 C   0  0  0  0  0  0  0  0  0  0  0  0
   -1.9188    2.8078    4.1192 C   0  0  0  0  0  0  0  0  0  0  0  0
   -1.9022   -0.1128    0.2753 H   0  0  0  0  0  0  0  0  0  0  0  0
   -1.3340    2.0186   -0.0098 H   0  0  0  0  0  0  0  0  0  0  0  0
    0.0770    1.6583    2.6867 H   0  0  0  0  0  0  0  0  0  0  0  0
   -2.5754    3.0610    2.1097 H   0  0  0  0  0  0  0  0  0  0  0  0
   -2.4748    1.3796    2.6212 H   0  0  0  0  0  0  0  0  0  0  0  0
   -0.4997    4.2652    1.1999 H   0  0  0  0  0  0  0  0  0  0  0  0
    0.1617    4.1381    2.8261 H   0  0  0  0  0  0  0  0  0  0  0  0
    1.1016    3.5455    1.4469 H   0  0  0  0  0  0  0  0  0  0  0  0
   -1.3174    2.1364    4.7386 H   0  0  0  0  0  0  0  0  0  0  0  0
   -2.9312    2.8209    4.5361 H   0  0  0  0  0  0  0  0  0  0  0  0
   -1.5073    3.8187    4.1992 H   0  0  0  0  0  0  0  0  0  0  0  0
    0.7543    0.7205   -1.1871 N   0  0  0  0  0  0  0  0  0  0  0  0
    1.9153    0.5452   -2.0296 C   0  0  2  0  0  0  0  0  0  0  0  0
    1.8195   -0.8273   -2.6828 C   0  0  0  0  0  0  0  0  0  0  0  0
    1.1495   -1.7466   -2.2168 O   0  0  0  0  0  0  0  0  0  0  0  0
    3.2031    0.6789   -1.2320 C   0  0  0  0  0  0  0  0  0  0  0  0
   -0.0948    0.2163   -1.4246 H   0  0  0  0  0  0  0  0  0  0  0  0
    1.8664    1.3216   -2.8010 H   0  0  0  0  0  0  0  0  0  0  0  0
    3.2699   -0.0906   -0.4542 H   0  0  0  0  0  0  0  0  0  0  0  0
    4.0819    0.5742   -1.8768 H   0  0  0  0  0  0  0  0  0  0  0  0
    3.2564    1.6554   -0.7387 H   0  0  0  0  0  0  0  0  0  0  0  0
    2.6044   -0.9182   -3.8237 N   0  0  0  0  0  0  0  0  0  0  0  0
    2.6931   -2.1232   -4.6150 C   0  0  0  0  0  0  0  0  0  0  0  0
    3.1121   -0.1002   -4.1475 H   0  0  0  0  0  0  0  0  0  0  0  0
    3.5446   -2.7276   -4.2693 H   0  0  0  0  0  0  0  0  0  0  0  0
    1.7643   -2.7024   -4.5061 H   0  0  0  0  0  0  0  0  0  0  0  0
    2.8376   -1.8574   -5.6726 H   0  0  0  0  0  0  0  0  0  0  0  0
  1  3  1  0  0  0  0
  1  7  1  0  0  0  0
  1  2  2  0  0  0  0
 37 38  1  0  0  0  0
 38 46  1  0  0  0  0
 38 39  2  0  0  0  0
  8  9  1  0  0  0  0
  9 17  1  0  0  0  0
  9 10  2  0  0  0  0
 18 19  1  0  0  0  0
 19 36  1  0  0  0  0
 19 20  2  0  0  0  0
 22 24  1  0  0  0  0
 37 40  1  0  0  0  0
  8 11  1  0  0  0  0
 21 23  1  0  0  0  0
 46 47  1  0  0  0  0
 21 22  1  0  0  0  0
 36 37  1  0  0  0  0
  7  8  1  0  0  0  0
 18 21  1  0  0  0  0
 17 18  1  0  0  0  0
  3  4  1  0  0  0  0
  3  5  1  0  0  0  0
  3  6  1  0  0  0  0
 24 33  1  0  0  0  0
 24 34  1  0  0  0  0
 24 35  1  0  0  0  0
 40 43  1  0  0  0  0
 40 44  1  0  0  0  0
 40 45  1  0  0  0  0
 11 14  1  0  0  0  0
 11 15  1  0  0  0  0
 11 16  1  0  0  0  0
 23 30  1  0  0  0  0
 23 31  1  0  0  0  0
 23 32  1  0  0  0  0
 47 49  1  0  0  0  0
 47 50  1  0  0  0  0
 47 51  1  0  0  0  0
 22 28  1  0  0  0  0
 22 29  1  0  0  0  0
 37 42  1  0  0  0  0
  8 13  1  0  0  0  0
 18 26  1  0  0  0  0
 21 27  1  0  0  0  0
 46 48  1  0  0  0  0
  7 12  1  0  0  0  0
 36 41  1  0  0  0  0
 17 25  1  0  0  0  0
M  END
$$$$

  -OEChem-05262214473D

 51 50  0     1  0  0  0  0  0999 V2000
    1.3524   -3.0009    1.4091 C   0  0  0  0  0  0  0  0  0  0  0  0
    1.8758   -1.9880    0.9598 O   0  0  0  0  0  0  0  0  0  0  0  0
    2.2030   -4.1782    1.7536 C   0  0  0  0  0  0  0  0  0  0  0  0
    2.3264   -4.8705    0.9053 H   0  0  0  0  0  0  0  0  0  0  0  0
    3.2257   -3.8876    2.0432 H   0  0  0  0  0  0  0  0  0  0  0  0
    1.8327   -4.8004    2.5839 H   0  0  0  0  0  0  0  0  0  0  0  0
    0.0005   -3.1873    1.6465 N   0  0  0  0  0  0  0  0  0  0  0  0
   -0.9949   -2.1807    1.3864 C   0  0  2  0  0  0  0  0  0  0  0  0
   -0.3083   -0.8216    1.4164 C   0  0  0  0  0  0  0  0  0  0  0  0
    0.7533   -0.6191    2.0022 O   0  0  0  0  0  0  0  0  0  0  0  0
   -2.1232   -2.2423    2.4042 C   0  0  0  0  0  0  0  0  0  0  0  0
   -0.3048   -4.0823    2.0245 H   0  0  0  0  0  0  0  0  0  0  0  0
   -1.3830   -2.3724    0.3801 H   0  0  0  0  0  0  0  0  0  0  0  0
   -1.7534   -2.0527    3.4185 H   0  0  0  0  0  0  0  0  0  0  0  0
   -2.8936   -1.4947    2.1882 H   0  0  0  0  0  0  0  0  0  0  0  0
   -2.5964   -3.2301    2.4022 H   0  0  0  0  0  0  0  0  0  0  0  0
   -1.0412    0.1517    0.7482 N   0  0  0  0  0  0  0  0  0  0  0  0
   -0.6079    1.5223    0.6467 C   0  0  2  0  0  0  0  0  0  0  0  0
    0.7416    1.5434   -0.0698 C   0  0  0  0  0  0  0  0  0  0  0  0
    1.7694    1.9683    0.4542 O   0  0  0  0  0  0  0  0  0  0  0  0
   -0.5634    2.2450    2.0147 C   0  0  2  0  0  0  0  0  0  0  0  0
   -1.9597    2.3464    2.6679 C   0  0  0  0  0  0  0  0  0  0  0  0
    0.0917    3.6242    1.8625 C   0  0  0  0  0  0  0  0  0  0  0  0
   -1.9188    2.8078    4.1192 C   0  0  0  0  0  0  0  0  0  0  0  0
   -1.9022   -0.1128    0.2753 H   0  0  0  0  0  0  0  0  0  0  0  0
   -1.3340    2.0186   -0.0098 H   0  0  0  0  0  0  0  0  0  0  0  0
    0.0770    1.6583    2.6867 H   0  0  0  0  0  0  0  0  0  0  0  0
   -2.5754    3.0610    2.1097 H   0  0  0  0  0  0  0  0  0  0  0  0
   -2.4748    1.3796    2.6212 H   0  0  0  0  0  0  0  0  0  0  0  0
   -0.4997    4.2652    1.1999 H   0  0  0  0  0  0  0  0  0  0  0  0
    0.1617    4.1381    2.8261 H   0  0  0  0  0  0  0  0  0  0  0  0
    1.1016    3.5455    1.4469 H   0  0  0  0  0  0  0  0  0  0  0  0
   -1.3174    2.1364    4.7386 H   0  0  0  0  0  0  0  0  0  0  0  0
   -2.9312    2.8209    4.5361 H   0  0  0  0  0  0  0  0  0  0  0  0
   -1.5073    3.8187    4.1992 H   0  0  0  0  0  0  0  0  0  0  0  0
    0.6657    1.0027   -1.3455 N   0  0  0  0  0  0  0  0  0  0  0  0
    1.8056    0.8857   -2.2262 C   0  0  2  0  0  0  0  0  0  0  0  0
    1.5503   -0.2790   -3.1737 C   0  0  0  0  0  0  0  0  0  0  0  0
    0.7685   -1.1926   -2.9182 O   0  0  0  0  0  0  0  0  0  0  0  0
    3.0916    0.6765   -1.4420 C   0  0  0  0  0  0  0  0  0  0  0  0
   -0.2359    0.6726   -1.6768 H   0  0  0  0  0  0  0  0  0  0  0  0
    1.8598    1.8180   -2.7989 H   0  0  0  0  0  0  0  0  0  0  0  0
    3.0560   -0.2528   -0.8618 H   0  0  0  0  0  0  0  0  0  0  0  0
    3.9579    0.6167   -2.1091 H   0  0  0  0  0  0  0  0  0  0  0  0
    3.2583    1.5005   -0.7397 H   0  0  0  0  0  0  0  0  0  0  0  0
    2.3302   -0.2008   -4.3190 N   0  0  0  0  0  0  0  0  0  0  0  0
    2.2799   -1.1944   -5.3659 C   0  0  0  0  0  0  0  0  0  0  0  0
    2.9372    0.6021   -4.4563 H   0  0  0  0  0  0  0  0  0  0  0  0
    3.0478   -1.9603   -5.1825 H   0  0  0  0  0  0  0  0  0  0  0  0
    1.2864   -1.6665   -5.3758 H   0  0  0  0  0  0  0  0  0  0  0  0
    2.4668   -0.7132   -6.3373 H   0  0  0  0  0  0  0  0  0  0  0  0
  1  3  1  0  0  0  0
  1  7  1  0  0  0  0
  1  2  2  0  0  0  0
 37 38  1  0  0  0  0
 38 46  1  0  0  0  0
 38 39  2  0  0  0  0
  8  9  1  0  0  0  0
  9 17  1  0  0  0  0
  9 10  2  0  0  0  0
 18 19  1  0  0  0  0
 19 36  1  0  0  0  0
 19 20  2  0  0  0  0
 22 24  1  0  0  0  0
 37 40  1  0  0  0  0
  8 11  1  0  0  0  0
 21 23  1  0  0  0  0
 46 47  1  0  0  0  0
 21 22  1  0  0  0  0
 36 37  1  0  0  0  0
  7  8  1  0  0  0  0
 18 21  1  0  0  0  0
 17 18  1  0  0  0  0
  3  4  1  0  0  0  0
  3  5  1  0  0  0  0
  3  6  1  0  0  0  0
 24 33  1  0  0  0  0
 24 34  1  0  0  0  0
 24 35  1  0  0  0  0
 40 43  1  0  0  0  0
 40 44  1  0  0  0  0
 40 45  1  0  0  0  0
 11 14  1  0  0  0  0
 11 15  1  0  0  0  0
 11 16  1  0  0  0  0
 23 30  1  0  0  0  0
 23 31  1  0  0  0  0
 23 32  1  0  0  0  0
 47 49  1  0  0  0  0
 47 50  1  0  0  0  0
 47 51  1  0  0  0  0
 22 28  1  0  0  0  0
 22 29  1  0  0  0  0
 37 42  1  0  0  0  0
  8 13  1  0  0  0  0
 18 26  1  0  0  0  0
 21 27  1  0  0  0  0
 46 48  1  0  0  0  0
  7 12  1  0  0  0  0
 36 41  1  0  0  0  0
 17 25  1  0  0  0  0
M  END
$$$$

  -OEChem-05262214473D

 51 50  0     1  0  0  0  0  0999 V2000
    1.3524   -3.0009    1.4091 C   0  0  0  0  0  0  0  0  0  0  0  0
    1.8758   -1.9880    0.9598 O   0  0  0  0  0  0  0  0  0  0  0  0
    2.2030   -4.1782    1.7536 C   0  0  0  0  0  0  0  0  0  0  0  0
    2.3264   -4.8705    0.9053 H   0  0  0  0  0  0  0  0  0  0  0  0
    3.2257   -3.8876    2.0432 H   0  0  0  0  0  0  0  0  0  0  0  0
    1.8327   -4.8004    2.5839 H   0  0  0  0  0  0  0  0  0  0  0  0
    0.0005   -3.1873    1.6465 N   0  0  0  0  0  0  0  0  0  0  0  0
   -0.9949   -2.1807    1.3864 C   0  0  2  0  0  0  0  0  0  0  0  0
   -0.3083   -0.8216    1.4164 C   0  0  0  0  0  0  0  0  0  0  0  0
    0.7533   -0.6191    2.0022 O   0  0  0  0  0  0  0  0  0  0  0  0
   -2.1232   -2.2423    2.4042 C   0  0  0  0  0  0  0  0  0  0  0  0
   -0.3048   -4.0823    2.0245 H   0  0  0  0  0  0  0  0  0  0  0  0
   -1.3830   -2.3724    0.3801 H   0  0  0  0  0  0  0  0  0  0  0  0
   -1.7534   -2.0527    3.4185 H   0  0  0  0  0  0  0  0  0  0  0  0
   -2.8936   -1.4947    2.1882 H   0  0  0  0  0  0  0  0  0  0  0  0
   -2.5964   -3.2301    2.4022 H   0  0  0  0  0  0  0  0  0  0  0  0
   -1.0412    0.1517    0.7482 N   0  0  0  0  0  0  0  0  0  0  0  0
   -0.6079    1.5223    0.6467 C   0  0  2  0  0  0  0  0  0  0  0  0
    0.7416    1.5434   -0.0698 C   0  0  0  0  0  0  0  0  0  0  0  0
    1.8079    1.7096    0.5192 O   0  0  0  0  0  0  0  0  0  0  0  0
   -0.5634    2.2450    2.0147 C   0  0  2  0  0  0  0  0  0  0  0  0
   -1.9597    2.3464    2.6679 C   0  0  0  0  0  0  0  0  0  0  0  0
    0.0917    3.6242    1.8625 C   0  0  0  0  0  0  0  0  0  0  0  0
   -1.9188    2.8078    4.1192 C   0  0  0  0  0  0  0  0  0  0  0  0
   -1.9022   -0.1128    0.2753 H   0  0  0  0  0  0  0  0  0  0  0  0
   -1.3340    2.0186   -0.0098 H   0  0  0  0  0  0  0  0  0  0  0  0
    0.0770    1.6583    2.6867 H   0  0  0  0  0  0  0  0  0  0  0  0
   -2.5754    3.0610    2.1097 H   0  0  0  0  0  0  0  0  0  0  0  0
   -2.4748    1.3796    2.6212 H   0  0  0  0  0  0  0  0  0  0  0  0
   -0.4997    4.2652    1.1999 H   0  0  0  0  0  0  0  0  0  0  0  0
    0.1617    4.1381    2.8261 H   0  0  0  0  0  0  0  0  0  0  0  0
    1.1016    3.5455    1.4469 H   0  0  0  0  0  0  0  0  0  0  0  0
   -1.3174    2.1364    4.7386 H   0  0  0  0  0  0  0  0  0  0  0  0
   -2.9312    2.8209    4.5361 H   0  0  0  0  0  0  0  0  0  0  0  0
   -1.5073    3.8187    4.1992 H   0  0  0  0  0  0  0  0  0  0  0  0
    0.6139    1.3221   -1.4337 N   0  0  0  0  0  0  0  0  0  0  0  0
    1.7403    1.2728   -2.3379 C   0  0  2  0  0  0  0  0  0  0  0  0
    1.3550    0.3954   -3.5216 C   0  0  0  0  0  0  0  0  0  0  0  0
    0.4651   -0.4509   -3.4677 O   0  0  0  0  0  0  0  0  0  0  0  0
    2.9829    0.7358   -1.6450 C   0  0  0  0  0  0  0  0  0  0  0  0
   -0.3176    1.1882   -1.8157 H   0  0  0  0  0  0  0  0  0  0  0  0
    1.9136    2.2978   -2.6834 H   0  0  0  0  0  0  0  0  0  0  0  0
    2.8283   -0.2903   -1.2918 H   0  0  0  0  0  0  0  0  0  0  0  0
    3.8424    0.7258   -2.3233 H   0  0  0  0  0  0  0  0  0  0  0  0
    3.2413    1.3508   -0.7762 H   0  0  0  0  0  0  0  0  0  0  0  0
    2.1508    0.6387   -4.6324 N   0  0  0  0  0  0  0  0  0  0  0  0
    1.9908   -0.0755   -5.8775 C   0  0  0  0  0  0  0  0  0  0  0  0
    2.8523    1.3722   -4.5934 H   0  0  0  0  0  0  0  0  0  0  0  0
    2.6578   -0.9501   -5.8874 H   0  0  0  0  0  0  0  0  0  0  0  0
    0.9474   -0.4090   -5.9773 H   0  0  0  0  0  0  0  0  0  0  0  0
    2.2452    0.5890   -6.7165 H   0  0  0  0  0  0  0  0  0  0  0  0
  1  3  1  0  0  0  0
  1  7  1  0  0  0  0
  1  2  2  0  0  0  0
 37 38  1  0  0  0  0
 38 46  1  0  0  0  0
 38 39  2  0  0  0  0
  8  9  1  0  0  0  0
  9 17  1  0  0  0  0
  9 10  2  0  0  0  0
 18 19  1  0  0  0  0
 19 36  1  0  0  0  0
 19 20  2  0  0  0  0
 22 24  1  0  0  0  0
 37 40  1  0  0  0  0
  8 11  1  0  0  0  0
 21 23  1  0  0  0  0
 46 47  1  0  0  0  0
 21 22  1  0  0  0  0
 36 37  1  0  0  0  0
  7  8  1  0  0  0  0
 18 21  1  0  0  0  0
 17 18  1  0  0  0  0
  3  4  1  0  0  0  0
  3  5  1  0  0  0  0
  3  6  1  0  0  0  0
 24 33  1  0  0  0  0
 24 34  1  0  0  0  0
 24 35  1  0  0  0  0
 40 43  1  0  0  0  0
 40 44  1  0  0  0  0
 40 45  1  0  0  0  0
 11 14  1  0  0  0  0
 11 15  1  0  0  0  0
 11 16  1  0  0  0  0
 23 30  1  0  0  0  0
 23 31  1  0  0  0  0
 23 32  1  0  0  0  0
 47 49  1  0  0  0  0
 47 50  1  0  0  0  0
 47 51  1  0  0  0  0
 22 28  1  0  0  0  0
 22 29  1  0  0  0  0
 37 42  1  0  0  0  0
  8 13  1  0  0  0  0
 18 26  1  0  0  0  0
 21 27  1  0  0  0  0
 46 48  1  0  0  0  0
  7 12  1  0  0  0  0
 36 41  1  0  0  0  0
 17 25  1  0  0  0  0
M  END
$$$$

  -OEChem-05262214473D

 51 50  0     1  0  0  0  0  0999 V2000
    1.3524   -3.0009    1.4091 C   0  0  0  0  0  0  0  0  0  0  0  0
    1.8758   -1.9880    0.9598 O   0  0  0  0  0  0  0  0  0  0  0  0
    2.2030   -4.1782    1.7536 C   0  0  0  0  0  0  0  0  0  0  0  0
    2.3264   -4.8705    0.9053 H   0  0  0  0  0  0  0  0  0  0  0  0
    3.2257   -3.8876    2.0432 H   0  0  0  0  0  0  0  0  0  0  0  0
    1.8327   -4.8004    2.5839 H   0  0  0  0  0  0  0  0  0  0  0  0
    0.0005   -3.1873    1.6465 N   0  0  0  0  0  0  0  0  0  0  0  0
   -0.9949   -2.1807    1.3864 C   0  0  2  0  0  0  0  0  0  0  0  0
   -0.3083   -0.8216    1.4164 C   0  0  0  0  0  0  0  0  0  0  0  0
    0.7533   -0.6191    2.0022 O   0  0  0  0  0  0  0  0  0  0  0  0
   -2.1232   -2.2423    2.4042 C   0  0  0  0  0  0  0  0  0  0  0  0
   -0.3048   -4.0823    2.0245 H   0  0  0  0  0  0  0  0  0  0  0  0
   -1.3830   -2.3724    0.3801 H   0  0  0  0  0  0  0  0  0  0  0  0
   -1.7534   -2.0527    3.4185 H   0  0  0  0  0  0  0  0  0  0  0  0
   -2.8936   -1.4947    2.1882 H   0  0  0  0  0  0  0  0  0  0  0  0
   -2.5964   -3.2301    2.4022 H   0  0  0  0  0  0  0  0  0  0  0  0
   -1.0412    0.1517    0.7482 N   0  0  0  0  0  0  0  0  0  0  0  0
   -0.6079    1.5223    0.6467 C   0  0  2  0  0  0  0  0  0  0  0  0
    0.7416    1.5434   -0.0698 C   0  0  0  0  0  0  0  0  0  0  0  0
    1.8139    1.4402    0.5226 O   0  0  0  0  0  0  0  0  0  0  0  0
   -0.5634    2.2450    2.0147 C   0  0  2  0  0  0  0  0  0  0  0  0
   -1.9597    2.3464    2.6679 C   0  0  0  0  0  0  0  0  0  0  0  0
    0.0917    3.6242    1.8625 C   0  0  0  0  0  0  0  0  0  0  0  0
   -1.9188    2.8078    4.1192 C   0  0  0  0  0  0  0  0  0  0  0  0
   -1.9022   -0.1128    0.2753 H   0  0  0  0  0  0  0  0  0  0  0  0
   -1.3340    2.0186   -0.0098 H   0  0  0  0  0  0  0  0  0  0  0  0
    0.0770    1.6583    2.6867 H   0  0  0  0  0  0  0  0  0  0  0  0
   -2.5754    3.0610    2.1097 H   0  0  0  0  0  0  0  0  0  0  0  0
   -2.4748    1.3796    2.6212 H   0  0  0  0  0  0  0  0  0  0  0  0
   -0.4997    4.2652    1.1999 H   0  0  0  0  0  0  0  0  0  0  0  0
    0.1617    4.1381    2.8261 H   0  0  0  0  0  0  0  0  0  0  0  0
    1.1016    3.5455    1.4469 H   0  0  0  0  0  0  0  0  0  0  0  0
   -1.3174    2.1364    4.7386 H   0  0  0  0  0  0  0  0  0  0  0  0
   -2.9312    2.8209    4.5361 H   0  0  0  0  0  0  0  0  0  0  0  0
   -1.5073    3.8187    4.1992 H   0  0  0  0  0  0  0  0  0  0  0  0
    0.6023    1.6572   -1.4457 N   0  0  0  0  0  0  0  0  0  0  0  0
    1.7238    1.6801   -2.3570 C   0  0  2  0  0  0  0  0  0  0  0  0
    1.2470    1.1501   -3.7028 C   0  0  0  0  0  0  0  0  0  0  0  0
    0.2602    0.4279   -3.8279 O   0  0  0  0  0  0  0  0  0  0  0  0
    2.8844    0.8526   -1.8271 C   0  0  0  0  0  0  0  0  0  0  0  0
   -0.3345    1.7278   -1.8316 H   0  0  0  0  0  0  0  0  0  0  0  0
    2.0243    2.7283   -2.4623 H   0  0  0  0  0  0  0  0  0  0  0  0
    2.6022   -0.2006   -1.7149 H   0  0  0  0  0  0  0  0  0  0  0  0
    3.7434    0.8942   -2.5049 H   0  0  0  0  0  0  0  0  0  0  0  0
    3.2065    1.2167   -0.8456 H   0  0  0  0  0  0  0  0  0  0  0  0
    2.0782    1.5430   -4.7426 N   0  0  0  0  0  0  0  0  0  0  0  0
    1.8456    1.1574   -6.1149 C   0  0  0  0  0  0  0  0  0  0  0  0
    2.8634    2.1577   -4.5496 H   0  0  0  0  0  0  0  0  0  0  0  0
    2.4011    0.2341   -6.3360 H   0  0  0  0  0  0  0  0  0  0  0  0
    0.7704    0.9842   -6.2698 H   0  0  0  0  0  0  0  0  0  0  0  0
    2.1878    1.9603   -6.7843 H   0  0  0  0  0  0  0  0  0  0  0  0
  1  3  1  0  0  0  0
  1  7  1  0  0  0  0
  1  2  2  0  0  0  0
 37 38  1  0  0  0  0
 38 46  1  0  0  0  0
 38 39  2  0  0  0  0
  8  9  1  0  0  0  0
  9 17  1  0  0  0  0
  9 10  2  0  0  0  0
 18 19  1  0  0  0  0
 19 36  1  0  0  0  0
 19 20  2  0  0  0  0
 22 24  1  0  0  0  0
 37 40  1  0  0  0  0
  8 11  1  0  0  0  0
 21 23  1  0  0  0  0
 46 47  1  0  0  0  0
 21 22  1  0  0  0  0
 36 37  1  0  0  0  0
  7  8  1  0  0  0  0
 18 21  1  0  0  0  0
 17 18  1  0  0  0  0
  3  4  1  0  0  0  0
  3  5  1  0  0  0  0
  3  6  1  0  0  0  0
 24 33  1  0  0  0  0
 24 34  1  0  0  0  0
 24 35  1  0  0  0  0
 40 43  1  0  0  0  0
 40 44  1  0  0  0  0
 40 45  1  0  0  0  0
 11 14  1  0  0  0  0
 11 15  1  0  0  0  0
 11 16  1  0  0  0  0
 23 30  1  0  0  0  0
 23 31  1  0  0  0  0
 23 32  1  0  0  0  0
 47 49  1  0  0  0  0
 47 50  1  0  0  0  0
 47 51  1  0  0  0  0
 22 28  1  0  0  0  0
 22 29  1  0  0  0  0
 37 42  1  0  0  0  0
  8 13  1  0  0  0  0
 18 26  1  0  0  0  0
 21 27  1  0  0  0  0
 46 48  1  0  0  0  0
  7 12  1  0  0  0  0
 36 41  1  0  0  0  0
 17 25  1  0  0  0  0
M  END
$$$$

  -OEChem-05262214473D

 51 50  0     1  0  0  0  0  0999 V2000
    1.3524   -3.0009    1.4091 C   0  0  0  0  0  0  0  0  0  0  0  0
    1.8758   -1.9880    0.9598 O   0  0  0  0  0  0  0  0  0  0  0  0
    2.2030   -4.1782    1.7536 C   0  0  0  0  0  0  0  0  0  0  0  0
    2.3264   -4.8705    0.9053 H   0  0  0  0  0  0  0  0  0  0  0  0
    3.2257   -3.8876    2.0432 H   0  0  0  0  0  0  0  0  0  0  0  0
    1.8327   -4.8004    2.5839 H   0  0  0  0  0  0  0  0  0  0  0  0
    0.0005   -3.1873    1.6465 N   0  0  0  0  0  0  0  0  0  0  0  0
   -0.9949   -2.1807    1.3864 C   0  0  2  0  0  0  0  0  0  0  0  0
   -0.3083   -0.8216    1.4164 C   0  0  0  0  0  0  0  0  0  0  0  0
    0.7533   -0.6191    2.0022 O   0  0  0  0  0  0  0  0  0  0  0  0
   -2.1232   -2.2423    2.4042 C   0  0  0  0  0  0  0  0  0  0  0  0
   -0.3048   -4.0823    2.0245 H   0  0  0  0  0  0  0  0  0  0  0  0
   -1.3830   -2.3724    0.3801 H   0  0  0  0  0  0  0  0  0  0  0  0
   -1.7534   -2.0527    3.4185 H   0  0  0  0  0  0  0  0  0  0  0  0
   -2.8936   -1.4947    2.1882 H   0  0  0  0  0  0  0  0  0  0  0  0
   -2.5964   -3.2301    2.4022 H   0  0  0  0  0  0  0  0  0  0  0  0
   -1.0412    0.1517    0.7482 N   0  0  0  0  0  0  0  0  0  0  0  0
   -0.6079    1.5223    0.6467 C   0  0  2  0  0  0  0  0  0  0  0  0
    0.7416    1.5434   -0.0698 C   0  0  0  0  0  0  0  0  0  0  0  0
    1.7871    1.1785    0.4644 O   0  0  0  0  0  0  0  0  0  0  0  0
   -0.5634    2.2450    2.0147 C   0  0  2  0  0  0  0  0  0  0  0  0
   -1.9597    2.3464    2.6679 C   0  0  0  0  0  0  0  0  0  0  0  0
    0.0917    3.6242    1.8625 C   0  0  0  0  0  0  0  0  0  0  0  0
   -1.9188    2.8078    4.1192 C   0  0  0  0  0  0  0  0  0  0  0  0
   -1.9022   -0.1128    0.2753 H   0  0  0  0  0  0  0  0  0  0  0  0
   -1.3340    2.0186   -0.0098 H   0  0  0  0  0  0  0  0  0  0  0  0
    0.0770    1.6583    2.6867 H   0  0  0  0  0  0  0  0  0  0  0  0
   -2.5754    3.0610    2.1097 H   0  0  0  0  0  0  0  0  0  0  0  0
   -2.4748    1.3796    2.6212 H   0  0  0  0  0  0  0  0  0  0  0  0
   -0.4997    4.2652    1.1999 H   0  0  0  0  0  0  0  0  0  0  0  0
    0.1617    4.1381    2.8261 H   0  0  0  0  0  0  0  0  0  0  0  0
    1.1016    3.5455    1.4469 H   0  0  0  0  0  0  0  0  0  0  0  0
   -1.3174    2.1364    4.7386 H   0  0  0  0  0  0  0  0  0  0  0  0
   -2.9312    2.8209    4.5361 H   0  0  0  0  0  0  0  0  0  0  0  0
   -1.5073    3.8187    4.1992 H   0  0  0  0  0  0  0  0  0  0  0  0
    0.6317    1.9849   -1.3807 N   0  0  0  0  0  0  0  0  0  0  0  0
    1.7572    2.0800   -2.2823 C   0  0  2  0  0  0  0  0  0  0  0  0
    1.2337    1.9335   -3.7050 C   0  0  0  0  0  0  0  0  0  0  0  0
    0.1676    1.3839   -3.9742 O   0  0  0  0  0  0  0  0  0  0  0  0
    2.8027    1.0190   -1.9760 C   0  0  0  0  0  0  0  0  0  0  0  0
   -0.2854    2.2548   -1.7237 H   0  0  0  0  0  0  0  0  0  0  0  0
    2.1842    3.0802   -2.1508 H   0  0  0  0  0  0  0  0  0  0  0  0
    2.3933    0.0101   -2.1023 H   0  0  0  0  0  0  0  0  0  0  0  0
    3.6675    1.1104   -2.6414 H   0  0  0  0  0  0  0  0  0  0  0  0
    3.1564    1.1072   -0.9431 H   0  0  0  0  0  0  0  0  0  0  0  0
    2.1174    2.4504   -4.6421 N   0  0  0  0  0  0  0  0  0  0  0  0
    1.8541    2.4201   -6.0618 C   0  0  0  0  0  0  0  0  0  0  0  0
    2.9696    2.9051   -4.3277 H   0  0  0  0  0  0  0  0  0  0  0  0
    2.2954    1.5116   -6.4978 H   0  0  0  0  0  0  0  0  0  0  0  0
    0.7675    2.4183   -6.2332 H   0  0  0  0  0  0  0  0  0  0  0  0
    2.2986    3.3074   -6.5361 H   0  0  0  0  0  0  0  0  0  0  0  0
  1  3  1  0  0  0  0
  1  7  1  0  0  0  0
  1  2  2  0  0  0  0
 37 38  1  0  0  0  0
 38 46  1  0  0  0  0
 38 39  2  0  0  0  0
  8  9  1  0  0  0  0
  9 17  1  0  0  0  0
  9 10  2  0  0  0  0
 18 19  1  0  0  0  0
 19 36  1  0  0  0  0
 19 20  2  0  0  0  0
 22 24  1  0  0  0  0
 37 40  1  0  0  0  0
  8 11  1  0  0  0  0
 21 23  1  0  0  0  0
 46 47  1  0  0  0  0
 21 22  1  0  0  0  0
 36 37  1  0  0  0  0
  7  8  1  0  0  0  0
 18 21  1  0  0  0  0
 17 18  1  0  0  0  0
  3  4  1  0  0  0  0
  3  5  1  0  0  0  0
  3  6  1  0  0  0  0
 24 33  1  0  0  0  0
 24 34  1  0  0  0  0
 24 35  1  0  0  0  0
 40 43  1  0  0  0  0
 40 44  1  0  0  0  0
 40 45  1  0  0  0  0
 11 14  1  0  0  0  0
 11 15  1  0  0  0  0
 11 16  1  0  0  0  0
 23 30  1  0  0  0  0
 23 31  1  0  0  0  0
 23 32  1  0  0  0  0
 47 49  1  0  0  0  0
 47 50  1  0  0  0  0
 47 51  1  0  0  0  0
 22 28  1  0  0  0  0
 22 29  1  0  0  0  0
 37 42  1  0  0  0  0
  8 13  1  0  0  0  0
 18 26  1  0  0  0  0
 21 27  1  0  0  0  0
 46 48  1  0  0  0  0
  7 12  1  0  0  0  0
 36 41  1  0  0  0  0
 17 25  1  0  0  0  0
M  END
$$$$

  -OEChem-05262214473D

 51 50  0     1  0  0  0  0  0999 V2000
    1.3524   -3.0009    1.4091 C   0  0  0  0  0  0  0  0  0  0  0  0
    1.8758   -1.9880    0.9598 O   0  0  0  0  0  0  0  0  0  0  0  0
    2.2030   -4.1782    1.7536 C   0  0  0  0  0  0  0  0  0  0  0  0
    2.3264   -4.8705    0.9053 H   0  0  0  0  0  0  0  0  0  0  0  0
    3.2257   -3.8876    2.0432 H   0  0  0  0  0  0  0  0  0  0  0  0
    1.8327   -4.8004    2.5839 H   0  0  0  0  0  0  0  0  0  0  0  0
    0.0005   -3.1873    1.6465 N   0  0  0  0  0  0  0  0  0  0  0  0
   -0.9949   -2.1807    1.3864 C   0  0  2  0  0  0  0  0  0  0  0  0
   -0.3083   -0.8216    1.4164 C   0  0  0  0  0  0  0  0  0  0  0  0
    0.7533   -0.6191    2.0022 O   0  0  0  0  0  0  0  0  0  0  0  0
   -2.1232   -2.2423    2.4042 C   0  0  0  0  0  0  0  0  0  0  0  0
   -0.3048   -4.0823    2.0245 H   0  0  0  0  0  0  0  0  0  0  0  0
   -1.3830   -2.3724    0.3801 H   0  0  0  0  0  0  0  0  0  0  0  0
   -1.7534   -2.0527    3.4185 H   0  0  0  0  0  0  0  0  0  0  0  0
   -2.8936   -1.4947    2.1882 H   0  0  0  0  0  0  0  0  0  0  0  0
   -2.5964   -3.2301    2.4022 H   0  0  0  0  0  0  0  0  0  0  0  0
   -1.0412    0.1517    0.7482 N   0  0  0  0  0  0  0  0  0  0  0  0
   -0.6079    1.5223    0.6467 C   0  0  2  0  0  0  0  0  0  0  0  0
    0.7416    1.5434   -0.0698 C   0  0  0  0  0  0  0  0  0  0  0  0
    1.7292    0.9422    0.3484 O   0  0  0  0  0  0  0  0  0  0  0  0
   -0.5634    2.2450    2.0147 C   0  0  2  0  0  0  0  0  0  0  0  0
   -1.9597    2.3464    2.6679 C   0  0  0  0  0  0  0  0  0  0  0  0
    0.0917    3.6242    1.8625 C   0  0  0  0  0  0  0  0  0  0  0  0
   -1.9188    2.8078    4.1192 C   0  0  0  0  0  0  0  0  0  0  0  0
   -1.9022   -0.1128    0.2753 H   0  0  0  0  0  0  0  0  0  0  0  0
   -1.3340    2.0186   -0.0098 H   0  0  0  0  0  0  0  0  0  0  0  0
    0.0770    1.6583    2.6867 H   0  0  0  0  0  0  0  0  0  0  0  0
   -2.5754    3.0610    2.1097 H   0  0  0  0  0  0  0  0  0  0  0  0
   -2.4748    1.3796    2.6212 H   0  0  0  0  0  0  0  0  0  0  0  0
   -0.4997    4.2652    1.1999 H   0  0  0  0  0  0  0  0  0  0  0  0
    0.1617    4.1381    2.8261 H   0  0  0  0  0  0  0  0  0  0  0  0
    1.1016    3.5455    1.4469 H   0  0  0  0  0  0  0  0  0  0  0  0
   -1.3174    2.1364    4.7386 H   0  0  0  0  0  0  0  0  0  0  0  0
   -2.9312    2.8209    4.5361 H   0  0  0  0  0  0  0  0  0  0  0  0
   -1.5073    3.8187    4.1992 H   0  0  0  0  0  0  0  0  0  0  0  0
    0.7002    2.2831   -1.2431 N   0  0  0  0  0  0  0  0  0  0  0  0
    1.8382    2.4451   -2.1189 C   0  0  2  0  0  0  0  0  0  0  0  0
    1.3159    2.6925   -3.5280 C   0  0  0  0  0  0  0  0  0  0  0  0
    0.1937    2.3521   -3.8967 O   0  0  0  0  0  0  0  0  0  0  0  0
    2.7435    1.2237   -2.0815 C   0  0  0  0  0  0  0  0  0  0  0  0
   -0.1736    2.7332   -1.4991 H   0  0  0  0  0  0  0  0  0  0  0  0
    2.3825    3.3295   -1.7701 H   0  0  0  0  0  0  0  0  0  0  0  0
    2.2156    0.3276   -2.4276 H   0  0  0  0  0  0  0  0  0  0  0  0
    3.6200    1.3596   -2.7237 H   0  0  0  0  0  0  0  0  0  0  0  0
    3.0944    1.0298   -1.0621 H   0  0  0  0  0  0  0  0  0  0  0  0
    2.2658    3.2992   -4.3377 N   0  0  0  0  0  0  0  0  0  0  0  0
    2.0157    3.6266   -5.7220 C   0  0  0  0  0  0  0  0  0  0  0  0
    3.1636    3.5634   -3.9429 H   0  0  0  0  0  0  0  0  0  0  0  0
    2.3477    2.7955   -6.3616 H   0  0  0  0  0  0  0  0  0  0  0  0
    0.9389    3.7955   -5.8700 H   0  0  0  0  0  0  0  0  0  0  0  0
    2.5700    4.5385   -5.9889 H   0  0  0  0  0  0  0  0  0  0  0  0
  1  3  1  0  0  0  0
  1  7  1  0  0  0  0
  1  2  2  0  0  0  0
 37 38  1  0  0  0  0
 38 46  1  0  0  0  0
 38 39  2  0  0  0  0
  8  9  1  0  0  0  0
  9 17  1  0  0  0  0
  9 10  2  0  0  0  0
 18 19  1  0  0  0  0
 19 36  1  0  0  0  0
 19 20  2  0  0  0  0
 22 24  1  0  0  0  0
 37 40  1  0  0  0  0
  8 11  1  0  0  0  0
 21 23  1  0  0  0  0
 46 47  1  0  0  0  0
 21 22  1  0  0  0  0
 36 37  1  0  0  0  0
  7  8  1  0  0  0  0
 18 21  1  0  0  0  0
 17 18  1  0  0  0  0
  3  4  1  0  0  0  0
  3  5  1  0  0  0  0
  3  6  1  0  0  0  0
 24 33  1  0  0  0  0
 24 34  1  0  0  0  0
 24 35  1  0  0  0  0
 40 43  1  0  0  0  0
 40 44  1  0  0  0  0
 40 45  1  0  0  0  0
 11 14  1  0  0  0  0
 11 15  1  0  0  0  0
 11 16  1  0  0  0  0
 23 30  1  0  0  0  0
 23 31  1  0  0  0  0
 23 32  1  0  0  0  0
 47 49  1  0  0  0  0
 47 50  1  0  0  0  0
 47 51  1  0  0  0  0
 22 28  1  0  0  0  0
 22 29  1  0  0  0  0
 37 42  1  0  0  0  0
  8 13  1  0  0  0  0
 18 26  1  0  0  0  0
 21 27  1  0  0  0  0
 46 48  1  0  0  0  0
  7 12  1  0  0  0  0
 36 41  1  0  0  0  0
 17 25  1  0  0  0  0
M  END
$$$$

  -OEChem-05262214473D

 51 50  0     1  0  0  0  0  0999 V2000
    1.3524   -3.0009    1.4091 C   0  0  0  0  0  0  0  0  0  0  0  0
    1.8758   -1.9880    0.9598 O   0  0  0  0  0  0  0  0  0  0  0  0
    2.2030   -4.1782    1.7536 C   0  0  0  0  0  0  0  0  0  0  0  0
    2.3264   -4.8705    0.9053 H   0  0  0  0  0  0  0  0  0  0  0  0
    3.2257   -3.8876    2.0432 H   0  0  0  0  0  0  0  0  0  0  0  0
    1.8327   -4.8004    2.5839 H   0  0  0  0  0  0  0  0  0  0  0  0
    0.0005   -3.1873    1.6465 N   0  0  0  0  0  0  0  0  0  0  0  0
   -0.9949   -2.1807    1.3864 C   0  0  2  0  0  0  0  0  0  0  0  0
   -0.3083   -0.8216    1.4164 C   0  0  0  0  0  0  0  0  0  0  0  0
    0.7533   -0.6191    2.0022 O   0  0  0  0  0  0  0  0  0  0  0  0
   -2.1232   -2.2423    2.4042 C   0  0  0  0  0  0  0  0  0  0  0  0
   -0.3048   -4.0823    2.0245 H   0  0  0  0  0  0  0  0  0  0  0  0
   -1.3830   -2.3724    0.3801 H   0  0  0  0  0  0  0  0  0  0  0  0
   -1.7534   -2.0527    3.4185 H   0  0  0  0  0  0  0  0  0  0  0  0
   -2.8936   -1.4947    2.1882 H   0  0  0  0  0  0  0  0  0  0  0  0
   -2.5964   -3.2301    2.4022 H   0  0  0  0  0  0  0  0  0  0  0  0
   -1.0412    0.1517    0.7482 N   0  0  0  0  0  0  0  0  0  0  0  0
   -0.6079    1.5223    0.6467 C   0  0  2  0  0  0  0  0  0  0  0  0
    0.7416    1.5434   -0.0698 C   0  0  0  0  0  0  0  0  0  0  0  0
    1.6441    0.7476    0.1825 O   0  0  0  0  0  0  0  0  0  0  0  0
   -0.5634    2.2450    2.0147 C   0  0  2  0  0  0  0  0  0  0  0  0
   -1.9597    2.3464    2.6679 C   0  0  0  0  0  0  0  0  0  0  0  0
    0.0917    3.6242    1.8625 C   0  0  0  0  0  0  0  0  0  0  0  0
   -1.9188    2.8078    4.1192 C   0  0  0  0  0  0  0  0  0  0  0  0
   -1.9022   -0.1128    0.2753 H   0  0  0  0  0  0  0  0  0  0  0  0
   -1.3340    2.0186   -0.0098 H   0  0  0  0  0  0  0  0  0  0  0  0
    0.0770    1.6583    2.6867 H   0  0  0  0  0  0  0  0  0  0  0  0
   -2.5754    3.0610    2.1097 H   0  0  0  0  0  0  0  0  0  0  0  0
   -2.4748    1.3796    2.6212 H   0  0  0  0  0  0  0  0  0  0  0  0
   -0.4997    4.2652    1.1999 H   0  0  0  0  0  0  0  0  0  0  0  0
    0.1617    4.1381    2.8261 H   0  0  0  0  0  0  0  0  0  0  0  0
    1.1016    3.5455    1.4469 H   0  0  0  0  0  0  0  0  0  0  0  0
   -1.3174    2.1364    4.7386 H   0  0  0  0  0  0  0  0  0  0  0  0
   -2.9312    2.8209    4.5361 H   0  0  0  0  0  0  0  0  0  0  0  0
   -1.5073    3.8187    4.1992 H   0  0  0  0  0  0  0  0  0  0  0  0
    0.8029    2.5313   -1.0422 N   0  0  0  0  0  0  0  0  0  0  0  0
    1.9615    2.7505   -1.8779 C   0  0  2  0  0  0  0  0  0  0  0  0
    1.4880    3.3751   -3.1838 C   0  0  0  0  0  0  0  0  0  0  0  0
    0.3367    3.2664   -3.6006 O   0  0  0  0  0  0  0  0  0  0  0  0
    2.7108    1.4527   -2.1364 C   0  0  0  0  0  0  0  0  0  0  0  0
   -0.0068    3.1304   -1.1732 H   0  0  0  0  0  0  0  0  0  0  0  0
    2.6056    3.4592   -1.3460 H   0  0  0  0  0  0  0  0  0  0  0  0
    2.0814    0.7302   -2.6686 H   0  0  0  0  0  0  0  0  0  0  0  0
    3.6040    1.6249   -2.7459 H   0  0  0  0  0  0  0  0  0  0  0  0
    3.0247    0.9897   -1.1946 H   0  0  0  0  0  0  0  0  0  0  0  0
    2.5132    4.0315   -3.8502 N   0  0  0  0  0  0  0  0  0  0  0  0
    2.3195    4.6947   -5.1186 C   0  0  0  0  0  0  0  0  0  0  0  0
    3.4323    4.0878   -3.4215 H   0  0  0  0  0  0  0  0  0  0  0  0
    2.5545    3.9981   -5.9368 H   0  0  0  0  0  0  0  0  0  0  0  0
    1.2728    5.0219   -5.2050 H   0  0  0  0  0  0  0  0  0  0  0  0
    2.9834    5.5696   -5.1799 H   0  0  0  0  0  0  0  0  0  0  0  0
  1  3  1  0  0  0  0
  1  7  1  0  0  0  0
  1  2  2  0  0  0  0
 37 38  1  0  0  0  0
 38 46  1  0  0  0  0
 38 39  2  0  0  0  0
  8  9  1  0  0  0  0
  9 17  1  0  0  0  0
  9 10  2  0  0  0  0
 18 19  1  0  0  0  0
 19 36  1  0  0  0  0
 19 20  2  0  0  0  0
 22 24  1  0  0  0  0
 37 40  1  0  0  0  0
  8 11  1  0  0  0  0
 21 23  1  0  0  0  0
 46 47  1  0  0  0  0
 21 22  1  0  0  0  0
 36 37  1  0  0  0  0
  7  8  1  0  0  0  0
 18 21  1  0  0  0  0
 17 18  1  0  0  0  0
  3  4  1  0  0  0  0
  3  5  1  0  0  0  0
  3  6  1  0  0  0  0
 24 33  1  0  0  0  0
 24 34  1  0  0  0  0
 24 35  1  0  0  0  0
 40 43  1  0  0  0  0
 40 44  1  0  0  0  0
 40 45  1  0  0  0  0
 11 14  1  0  0  0  0
 11 15  1  0  0  0  0
 11 16  1  0  0  0  0
 23 30  1  0  0  0  0
 23 31  1  0  0  0  0
 23 32  1  0  0  0  0
 47 49  1  0  0  0  0
 47 50  1  0  0  0  0
 47 51  1  0  0  0  0
 22 28  1  0  0  0  0
 22 29  1  0  0  0  0
 37 42  1  0  0  0  0
  8 13  1  0  0  0  0
 18 26  1  0  0  0  0
 21 27  1  0  0  0  0
 46 48  1  0  0  0  0
  7 12  1  0  0  0  0
 36 41  1  0  0  0  0
 17 25  1  0  0  0  0
M  END
$$$$

  -OEChem-05262214473D

 51 50  0     1  0  0  0  0  0999 V2000
    1.3524   -3.0009    1.4091 C   0  0  0  0  0  0  0  0  0  0  0  0
    1.8758   -1.9880    0.9598 O   0  0  0  0  0  0  0  0  0  0  0  0
    2.2030   -4.1782    1.7536 C   0  0  0  0  0  0  0  0  0  0  0  0
    2.3264   -4.8705    0.9053 H   0  0  0  0  0  0  0  0  0  0  0  0
    3.2257   -3.8876    2.0432 H   0  0  0  0  0  0  0  0  0  0  0  0
    1.8327   -4.8004    2.5839 H   0  0  0  0  0  0  0  0  0  0  0  0
    0.0005   -3.1873    1.6465 N   0  0  0  0  0  0  0  0  0  0  0  0
   -0.9949   -2.1807    1.3864 C   0  0  2  0  0  0  0  0  0  0  0  0
   -0.3083   -0.8216    1.4164 C   0  0  0  0  0  0  0  0  0  0  0  0
    0.7533   -0.6191    2.0022 O   0  0  0  0  0  0  0  0  0  0  0  0
   -2.1232   -2.2423    2.4042 C   0  0  0  0  0  0  0  0  0  0  0  0
   -0.3048   -4.0823    2.0245 H   0  0  0  0  0  0  0  0  0  0  0  0
   -1.3830   -2.3724    0.3801 H   0  0  0  0  0  0  0  0  0  0  0  0
   -1.7534   -2.0527    3.4185 H   0  0  0  0  0  0  0  0  0  0  0  0
   -2.8936   -1.4947    2.1882 H   0  0  0  0  0  0  0  0  0  0  0  0
   -2.5964   -3.2301    2.4022 H   0  0  0  0  0  0  0  0  0  0  0  0
   -1.0412    0.1517    0.7482 N   0  0  0  0  0  0  0  0  0  0  0  0
   -0.6079    1.5223    0.6467 C   0  0  2  0  0  0  0  0  0  0  0  0
    0.7416    1.5434   -0.0698 C   0  0  0  0  0  0  0  0  0  0  0  0
    1.5378    0.6078   -0.0218 O   0  0  0  0  0  0  0  0  0  0  0  0
   -0.5634    2.2450    2.0147 C   0  0  2  0  0  0  0  0  0  0  0  0
   -1.9597    2.3464    2.6679 C   0  0  0  0  0  0  0  0  0  0  0  0
    0.0917    3.6242    1.8625 C   0  0  0  0  0  0  0  0  0  0  0  0
   -1.9188    2.8078    4.1192 C   0  0  0  0  0  0  0  0  0  0  0  0
   -1.9022   -0.1128    0.2753 H   0  0  0  0  0  0  0  0  0  0  0  0
   -1.3340    2.0186   -0.0098 H   0  0  0  0  0  0  0  0  0  0  0  0
    0.0770    1.6583    2.6867 H   0  0  0  0  0  0  0  0  0  0  0  0
   -2.5754    3.0610    2.1097 H   0  0  0  0  0  0  0  0  0  0  0  0
   -2.4748    1.3796    2.6212 H   0  0  0  0  0  0  0  0  0  0  0  0
   -0.4997    4.2652    1.1999 H   0  0  0  0  0  0  0  0  0  0  0  0
    0.1617    4.1381    2.8261 H   0  0  0  0  0  0  0  0  0  0  0  0
    1.1016    3.5455    1.4469 H   0  0  0  0  0  0  0  0  0  0  0  0
   -1.3174    2.1364    4.7386 H   0  0  0  0  0  0  0  0  0  0  0  0
   -2.9312    2.8209    4.5361 H   0  0  0  0  0  0  0  0  0  0  0  0
   -1.5073    3.8187    4.1992 H   0  0  0  0  0  0  0  0  0  0  0  0
    0.9331    2.7128   -0.7919 N   0  0  0  0  0  0  0  0  0  0  0  0
    2.1184    2.9756   -1.5758 C   0  0  2  0  0  0  0  0  0  0  0  0
    1.7383    3.9348   -2.6959 C   0  0  0  0  0  0  0  0  0  0  0  0
    0.5868    4.0645   -3.1062 O   0  0  0  0  0  0  0  0  0  0  0  0
    2.7068    1.6905   -2.1369 C   0  0  0  0  0  0  0  0  0  0  0  0
    0.2037    3.4193   -0.7683 H   0  0  0  0  0  0  0  0  0  0  0  0
    2.8384    3.4604   -0.9075 H   0  0  0  0  0  0  0  0  0  0  0  0
    1.9997    1.1905   -2.8089 H   0  0  0  0  0  0  0  0  0  0  0  0
    3.6207    1.8882   -2.7068 H   0  0  0  0  0  0  0  0  0  0  0  0
    2.9520    0.9898   -1.3315 H   0  0  0  0  0  0  0  0  0  0  0  0
    2.8428    4.5974   -3.2129 N   0  0  0  0  0  0  0  0  0  0  0  0
    2.7447    5.5516   -4.2926 C   0  0  0  0  0  0  0  0  0  0  0  0
    3.7573    4.4425   -2.7989 H   0  0  0  0  0  0  0  0  0  0  0  0
    2.9017    5.0375   -5.2524 H   0  0  0  0  0  0  0  0  0  0  0  0
    1.7466    6.0141   -4.2836 H   0  0  0  0  0  0  0  0  0  0  0  0
    3.5108    6.3304   -4.1643 H   0  0  0  0  0  0  0  0  0  0  0  0
  1  3  1  0  0  0  0
  1  7  1  0  0  0  0
  1  2  2  0  0  0  0
 37 38  1  0  0  0  0
 38 46  1  0  0  0  0
 38 39  2  0  0  0  0
  8  9  1  0  0  0  0
  9 17  1  0  0  0  0
  9 10  2  0  0  0  0
 18 19  1  0  0  0  0
 19 36  1  0  0  0  0
 19 20  2  0  0  0  0
 22 24  1  0  0  0  0
 37 40  1  0  0  0  0
  8 11  1  0  0  0  0
 21 23  1  0  0  0  0
 46 47  1  0  0  0  0
 21 22  1  0  0  0  0
 36 37  1  0  0  0  0
  7  8  1  0  0  0  0
 18 21  1  0  0  0  0
 17 18  1  0  0  0  0
  3  4  1  0  0  0  0
  3  5  1  0  0  0  0
  3  6  1  0  0  0  0
 24 33  1  0  0  0  0
 24 34  1  0  0  0  0
 24 35  1  0  0  0  0
 40 43  1  0  0  0  0
 40 44  1  0  0  0  0
 40 45  1  0  0  0  0
 11 14  1  0  0  0  0
 11 15  1  0  0  0  0
 11 16  1  0  0  0  0
 23 30  1  0  0  0  0
 23 31  1  0  0  0  0
 23 32  1  0  0  0  0
 47 49  1  0  0  0  0
 47 50  1  0  0  0  0
 47 51  1  0  0  0  0
 22 28  1  0  0  0  0
 22 29  1  0  0  0  0
 37 42  1  0  0  0  0
  8 13  1  0  0  0  0
 18 26  1  0  0  0  0
 21 27  1  0  0  0  0
 46 48  1  0  0  0  0
  7 12  1  0  0  0  0
 36 41  1  0  0  0  0
 17 25  1  0  0  0  0
M  END
$$$$

  -OEChem-05262214473D

 51 50  0     1  0  0  0  0  0999 V2000
    1.3524   -3.0009    1.4091 C   0  0  0  0  0  0  0  0  0  0  0  0
    1.8758   -1.9880    0.9598 O   0  0  0  0  0  0  0  0  0  0  0  0
    2.2030   -4.1782    1.7536 C   0  0  0  0  0  0  0  0  0  0  0  0
    2.3264   -4.8705    0.9053 H   0  0  0  0  0  0  0  0  0  0  0  0
    3.2257   -3.8876    2.0432 H   0  0  0  0  0  0  0  0  0  0  0  0
    1.8327   -4.8004    2.5839 H   0  0  0  0  0  0  0  0  0  0  0  0
    0.0005   -3.1873    1.6465 N   0  0  0  0  0  0  0  0  0  0  0  0
   -0.9949   -2.1807    1.3864 C   0  0  2  0  0  0  0  0  0  0  0  0
   -0.3083   -0.8216    1.4164 C   0  0  0  0  0  0  0  0  0  0  0  0
    0.7533   -0.6191    2.0022 O   0  0  0  0  0  0  0  0  0  0  0  0
   -2.1232   -2.2423    2.4042 C   0  0  0  0  0  0  0  0  0  0  0  0
   -0.3048   -4.0823    2.0245 H   0  0  0  0  0  0  0  0  0  0  0  0
   -1.3830   -2.3724    0.3801 H   0  0  0  0  0  0  0  0  0  0  0  0
   -1.7534   -2.0527    3.4185 H   0  0  0  0  0  0  0  0  0  0  0  0
   -2.8936   -1.4947    2.1882 H   0  0  0  0  0  0  0  0  0  0  0  0
   -2.5964   -3.2301    2.4022 H   0  0  0  0  0  0  0  0  0  0  0  0
   -1.0412    0.1517    0.7482 N   0  0  0  0  0  0  0  0  0  0  0  0
   -0.6079    1.5223    0.6467 C   0  0  2  0  0  0  0  0  0  0  0  0
    0.7416    1.5434   -0.0698 C   0  0  0  0  0  0  0  0  0  0  0  0
    1.4174    0.5324   -0.2508 O   0  0  0  0  0  0  0  0  0  0  0  0
   -0.5634    2.2450    2.0147 C   0  0  2  0  0  0  0  0  0  0  0  0
   -1.9597    2.3464    2.6679 C   0  0  0  0  0  0  0  0  0  0  0  0
    0.0917    3.6242    1.8625 C   0  0  0  0  0  0  0  0  0  0  0  0
   -1.9188    2.8078    4.1192 C   0  0  0  0  0  0  0  0  0  0  0  0
   -1.9022   -0.1128    0.2753 H   0  0  0  0  0  0  0  0  0  0  0  0
   -1.3340    2.0186   -0.0098 H   0  0  0  0  0  0  0  0  0  0  0  0
    0.0770    1.6583    2.6867 H   0  0  0  0  0  0  0  0  0  0  0  0
   -2.5754    3.0610    2.1097 H   0  0  0  0  0  0  0  0  0  0  0  0
   -2.4748    1.3796    2.6212 H   0  0  0  0  0  0  0  0  0  0  0  0
   -0.4997    4.2652    1.1999 H   0  0  0  0  0  0  0  0  0  0  0  0
    0.1617    4.1381    2.8261 H   0  0  0  0  0  0  0  0  0  0  0  0
    1.1016    3.5455    1.4469 H   0  0  0  0  0  0  0  0  0  0  0  0
   -1.3174    2.1364    4.7386 H   0  0  0  0  0  0  0  0  0  0  0  0
   -2.9312    2.8209    4.5361 H   0  0  0  0  0  0  0  0  0  0  0  0
   -1.5073    3.8187    4.1992 H   0  0  0  0  0  0  0  0  0  0  0  0
    1.0816    2.8150   -0.5090 N   0  0  0  0  0  0  0  0  0  0  0  0
    2.2984    3.1048   -1.2330 C   0  0  2  0  0  0  0  0  0  0  0  0
    2.0497    4.3337   -2.0976 C   0  0  0  0  0  0  0  0  0  0  0  0
    0.9270    4.6920   -2.4470 O   0  0  0  0  0  0  0  0  0  0  0  0
    2.7318    1.9207   -2.0831 C   0  0  0  0  0  0  0  0  0  0  0  0
    0.4436    3.5802   -0.3118 H   0  0  0  0  0  0  0  0  0  0  0  0
    3.0650    3.3332   -0.4846 H   0  0  0  0  0  0  0  0  0  0  0  0
    1.9762    1.6770   -2.8389 H   0  0  0  0  0  0  0  0  0  0  0  0
    3.6690    2.1316   -2.6088 H   0  0  0  0  0  0  0  0  0  0  0  0
    2.8814    1.0300   -1.4634 H   0  0  0  0  0  0  0  0  0  0  0  0
    3.2321    4.9584   -2.4690 N   0  0  0  0  0  0  0  0  0  0  0  0
    3.2623    6.1389   -3.3005 C   0  0  0  0  0  0  0  0  0  0  0  0
    4.1166    4.6034   -2.1176 H   0  0  0  0  0  0  0  0  0  0  0  0
    3.3657    5.8430   -4.3549 H   0  0  0  0  0  0  0  0  0  0  0  0
    2.3280    6.7043   -3.1684 H   0  0  0  0  0  0  0  0  0  0  0  0
    4.1162    6.7692   -3.0113 H   0  0  0  0  0  0  0  0  0  0  0  0
  1  3  1  0  0  0  0
  1  7  1  0  0  0  0
  1  2  2  0  0  0  0
 37 38  1  0  0  0  0
 38 46  1  0  0  0  0
 38 39  2  0  0  0  0
  8  9  1  0  0  0  0
  9 17  1  0  0  0  0
  9 10  2  0  0  0  0
 18 19  1  0  0  0  0
 19 36  1  0  0  0  0
 19 20  2  0  0  0  0
 22 24  1  0  0  0  0
 37 40  1  0  0  0  0
  8 11  1  0  0  0  0
 21 23  1  0  0  0  0
 46 47  1  0  0  0  0
 21 22  1  0  0  0  0
 36 37  1  0  0  0  0
  7  8  1  0  0  0  0
 18 21  1  0  0  0  0
 17 18  1  0  0  0  0
  3  4  1  0  0  0  0
  3  5  1  0  0  0  0
  3  6  1  0  0  0  0
 24 33  1  0  0  0  0
 24 34  1  0  0  0  0
 24 35  1  0  0  0  0
 40 43  1  0  0  0  0
 40 44  1  0  0  0  0
 40 45  1  0  0  0  0
 11 14  1  0  0  0  0
 11 15  1  0  0  0  0
 11 16  1  0  0  0  0
 23 30  1  0  0  0  0
 23 31  1  0  0  0  0
 23 32  1  0  0  0  0
 47 49  1  0  0  0  0
 47 50  1  0  0  0  0
 47 51  1  0  0  0  0
 22 28  1  0  0  0  0
 22 29  1  0  0  0  0
 37 42  1  0  0  0  0
  8 13  1  0  0  0  0
 18 26  1  0  0  0  0
 21 27  1  0  0  0  0
 46 48  1  0  0  0  0
  7 12  1  0  0  0  0
 36 41  1  0  0  0  0
 17 25  1  0  0  0  0
M  END
$$$$

  -OEChem-05262214473D

 51 50  0     1  0  0  0  0  0999 V2000
    1.3524   -3.0009    1.4091 C   0  0  0  0  0  0  0  0  0  0  0  0
    1.8758   -1.9880    0.9598 O   0  0  0  0  0  0  0  0  0  0  0  0
    2.2030   -4.1782    1.7536 C   0  0  0  0  0  0  0  0  0  0  0  0
    2.3264   -4.8705    0.9053 H   0  0  0  0  0  0  0  0  0  0  0  0
    3.2257   -3.8876    2.0432 H   0  0  0  0  0  0  0  0  0  0  0  0
    1.8327   -4.8004    2.5839 H   0  0  0  0  0  0  0  0  0  0  0  0
    0.0005   -3.1873    1.6465 N   0  0  0  0  0  0  0  0  0  0  0  0
   -0.9949   -2.1807    1.3864 C   0  0  2  0  0  0  0  0  0  0  0  0
   -0.3083   -0.8216    1.4164 C   0  0  0  0  0  0  0  0  0  0  0  0
    0.7533   -0.6191    2.0022 O   0  0  0  0  0  0  0  0  0  0  0  0
   -2.1232   -2.2423    2.4042 C   0  0  0  0  0  0  0  0  0  0  0  0
   -0.3048   -4.0823    2.0245 H   0  0  0  0  0  0  0  0  0  0  0  0
   -1.3830   -2.3724    0.3801 H   0  0  0  0  0  0  0  0  0  0  0  0
   -1.7534   -2.0527    3.4185 H   0  0  0  0  0  0  0  0  0  0  0  0
   -2.8936   -1.4947    2.1882 H   0  0  0  0  0  0  0  0  0  0  0  0
   -2.5964   -3.2301    2.4022 H   0  0  0  0  0  0  0  0  0  0  0  0
   -1.0412    0.1517    0.7482 N   0  0  0  0  0  0  0  0  0  0  0  0
   -0.6079    1.5223    0.6467 C   0  0  2  0  0  0  0  0  0  0  0  0
    0.5245    1.5892   -0.3771 C   0  0  0  0  0  0  0  0  0  0  0  0
    0.9257    0.6046   -0.9944 O   0  0  0  0  0  0  0  0  0  0  0  0
   -0.2088    2.1327    2.0119 C   0  0  2  0  0  0  0  0  0  0  0  0
   -1.3986    2.1933    2.9954 C   0  0  0  0  0  0  0  0  0  0  0  0
    0.4272    3.5141    1.8073 C   0  0  0  0  0  0  0  0  0  0  0  0
   -0.9899    2.5365    4.4222 C   0  0  0  0  0  0  0  0  0  0  0  0
   -1.9022   -0.1128    0.2753 H   0  0  0  0  0  0  0  0  0  0  0  0
   -1.4587    2.0758    0.2292 H   0  0  0  0  0  0  0  0  0  0  0  0
    0.5603    1.4886    2.4587 H   0  0  0  0  0  0  0  0  0  0  0  0
   -2.1123    2.9555    2.6620 H   0  0  0  0  0  0  0  0  0  0  0  0
   -1.9363    1.2377    3.0044 H   0  0  0  0  0  0  0  0  0  0  0  0
   -0.2906    4.2110    1.3616 H   0  0  0  0  0  0  0  0  0  0  0  0
    0.7460    3.9485    2.7598 H   0  0  0  0  0  0  0  0  0  0  0  0
    1.3016    3.4604    1.1506 H   0  0  0  0  0  0  0  0  0  0  0  0
   -0.2739    1.8126    4.8214 H   0  0  0  0  0  0  0  0  0  0  0  0
   -1.8682    2.5248    5.0760 H   0  0  0  0  0  0  0  0  0  0  0  0
   -0.5433    3.5343    4.4743 H   0  0  0  0  0  0  0  0  0  0  0  0
    1.0069    2.8800   -0.5408 N   0  0  0  0  0  0  0  0  0  0  0  0
    2.0650    3.2197   -1.4647 C   0  0  2  0  0  0  0  0  0  0  0  0
    1.8827    4.6754   -1.8739 C   0  0  0  0  0  0  0  0  0  0  0  0
    0.8060    5.2636   -1.7983 O   0  0  0  0  0  0  0  0  0  0  0  0
    2.0515    2.3074   -2.6813 C   0  0  0  0  0  0  0  0  0  0  0  0
    0.5959    3.6230    0.0164 H   0  0  0  0  0  0  0  0  0  0  0  0
    3.0087    3.1084   -0.9196 H   0  0  0  0  0  0  0  0  0  0  0  0
    1.1136    2.4050   -3.2402 H   0  0  0  0  0  0  0  0  0  0  0  0
    2.8711    2.5476   -3.3666 H   0  0  0  0  0  0  0  0  0  0  0  0
    2.1528    1.2583   -2.3829 H   0  0  0  0  0  0  0  0  0  0  0  0
    3.0538    5.2276   -2.3738 N   0  0  0  0  0  0  0  0  0  0  0  0
    3.1351    6.5919   -2.8406 C   0  0  0  0  0  0  0  0  0  0  0  0
    3.9043    4.6723   -2.3819 H   0  0  0  0  0  0  0  0  0  0  0  0
    2.9398    6.6220   -3.9227 H   0  0  0  0  0  0  0  0  0  0  0  0
    2.3868    7.2041   -2.3159 H   0  0  0  0  0  0  0  0  0  0  0  0
    4.1408    6.9891   -2.6384 H   0  0  0  0  0  0  0  0  0  0  0  0
  1  3  1  0  0  0  0
  1  7  1  0  0  0  0
  1  2  2  0  0  0  0
 37 38  1  0  0  0  0
 38 46  1  0  0  0  0
 38 39  2  0  0  0  0
  8  9  1  0  0  0  0
  9 17  1  0  0  0  0
  9 10  2  0  0  0  0
 18 19  1  0  0  0  0
 19 36  1  0  0  0  0
 19 20  2  0  0  0  0
 22 24  1  0  0  0  0
 37 40  1  0  0  0  0
  8 11  1  0  0  0  0
 21 23  1  0  0  0  0
 46 47  1  0  0  0  0
 21 22  1  0  0  0  0
 36 37  1  0  0  0  0
  7  8  1  0  0  0  0
 18 21  1  0  0  0  0
 17 18  1  0  0  0  0
  3  4  1  0  0  0  0
  3  5  1  0  0  0  0
  3  6  1  0  0  0  0
 24 33  1  0  0  0  0
 24 34  1  0  0  0  0
 24 35  1  0  0  0  0
 40 43  1  0  0  0  0
 40 44  1  0  0  0  0
 40 45  1  0  0  0  0
 11 14  1  0  0  0  0
 11 15  1  0  0  0  0
 11 16  1  0  0  0  0
 23 30  1  0  0  0  0
 23 31  1  0  0  0  0
 23 32  1  0  0  0  0
 47 49  1  0  0  0  0
 47 50  1  0  0  0  0
 47 51  1  0  0  0  0
 22 28  1  0  0  0  0
 22 29  1  0  0  0  0
 37 42  1  0  0  0  0
  8 13  1  0  0  0  0
 18 26  1  0  0  0  0
 21 27  1  0  0  0  0
 46 48  1  0  0  0  0
  7 12  1  0  0  0  0
 36 41  1  0  0  0  0
 17 25  1  0  0  0  0
M  END
$$$$

  -OEChem-05262214473D

 51 50  0     1  0  0  0  0  0999 V2000
    1.3524   -3.0009    1.4091 C   0  0  0  0  0  0  0  0  0  0  0  0
    1.8758   -1.9880    0.9598 O   0  0  0  0  0  0  0  0  0  0  0  0
    2.2030   -4.1782    1.7536 C   0  0  0  0  0  0  0  0  0  0  0  0
    2.3264   -4.8705    0.9053 H   0  0  0  0  0  0  0  0  0  0  0  0
    3.2257   -3.8876    2.0432 H   0  0  0  0  0  0  0  0  0  0  0  0
    1.8327   -4.8004    2.5839 H   0  0  0  0  0  0  0  0  0  0  0  0
    0.0005   -3.1873    1.6465 N   0  0  0  0  0  0  0  0  0  0  0  0
   -0.9949   -2.1807    1.3864 C   0  0  2  0  0  0  0  0  0  0  0  0
   -0.3083   -0.8216    1.4164 C   0  0  0  0  0  0  0  0  0  0  0  0
    0.7533   -0.6191    2.0022 O   0  0  0  0  0  0  0  0  0  0  0  0
   -2.1232   -2.2423    2.4042 C   0  0  0  0  0  0  0  0  0  0  0  0
   -0.3048   -4.0823    2.0245 H   0  0  0  0  0  0  0  0  0  0  0  0
   -1.3830   -2.3724    0.3801 H   0  0  0  0  0  0  0  0  0  0  0  0
   -1.7534   -2.0527    3.4185 H   0  0  0  0  0  0  0  0  0  0  0  0
   -2.8936   -1.4947    2.1882 H   0  0  0  0  0  0  0  0  0  0  0  0
   -2.5964   -3.2301    2.4022 H   0  0  0  0  0  0  0  0  0  0  0  0
   -1.0412    0.1517    0.7482 N   0  0  0  0  0  0  0  0  0  0  0  0
   -0.6079    1.5223    0.6467 C   0  0  2  0  0  0  0  0  0  0  0  0
    0.5245    1.5892   -0.3771 C   0  0  0  0  0  0  0  0  0  0  0  0
    0.7512    0.6880   -1.1820 O   0  0  0  0  0  0  0  0  0  0  0  0
   -0.2088    2.1327    2.0119 C   0  0  2  0  0  0  0  0  0  0  0  0
   -1.3986    2.1933    2.9954 C   0  0  0  0  0  0  0  0  0  0  0  0
    0.4272    3.5141    1.8073 C   0  0  0  0  0  0  0  0  0  0  0  0
   -0.9899    2.5365    4.4222 C   0  0  0  0  0  0  0  0  0  0  0  0
   -1.9022   -0.1128    0.2753 H   0  0  0  0  0  0  0  0  0  0  0  0
   -1.4587    2.0758    0.2292 H   0  0  0  0  0  0  0  0  0  0  0  0
    0.5603    1.4886    2.4587 H   0  0  0  0  0  0  0  0  0  0  0  0
   -2.1123    2.9555    2.6620 H   0  0  0  0  0  0  0  0  0  0  0  0
   -1.9363    1.2377    3.0044 H   0  0  0  0  0  0  0  0  0  0  0  0
   -0.2906    4.2110    1.3616 H   0  0  0  0  0  0  0  0  0  0  0  0
    0.7460    3.9485    2.7598 H   0  0  0  0  0  0  0  0  0  0  0  0
    1.3016    3.4604    1.1506 H   0  0  0  0  0  0  0  0  0  0  0  0
   -0.2739    1.8126    4.8214 H   0  0  0  0  0  0  0  0  0  0  0  0
   -1.8682    2.5248    5.0760 H   0  0  0  0  0  0  0  0  0  0  0  0
   -0.5433    3.5343    4.4743 H   0  0  0  0  0  0  0  0  0  0  0  0
    1.2257    2.7845   -0.3051 N   0  0  0  0  0  0  0  0  0  0  0  0
    2.3320    3.1085   -1.1767 C   0  0  2  0  0  0  0  0  0  0  0  0
    2.4088    4.6249   -1.2953 C   0  0  0  0  0  0  0  0  0  0  0  0
    1.4508    5.3641   -1.0785 O   0  0  0  0  0  0  0  0  0  0  0  0
    2.1662    2.4641   -2.5442 C   0  0  0  0  0  0  0  0  0  0  0  0
    0.9475    3.4657    0.3951 H   0  0  0  0  0  0  0  0  0  0  0  0
    3.2387    2.7333   -0.6898 H   0  0  0  0  0  0  0  0  0  0  0  0
    1.2629    2.8278   -3.0474 H   0  0  0  0  0  0  0  0  0  0  0  0
    3.0190    2.6870   -3.1939 H   0  0  0  0  0  0  0  0  0  0  0  0
    2.0813    1.3757   -2.4544 H   0  0  0  0  0  0  0  0  0  0  0  0
    3.6610    5.0530   -1.7136 N   0  0  0  0  0  0  0  0  0  0  0  0
    3.9818    6.4469   -1.9136 C   0  0  0  0  0  0  0  0  0  0  0  0
    4.4016    4.3717   -1.8515 H   0  0  0  0  0  0  0  0  0  0  0  0
    3.8008    6.7183   -2.9641 H   0  0  0  0  0  0  0  0  0  0  0  0
    3.3489    7.0660   -1.2608 H   0  0  0  0  0  0  0  0  0  0  0  0
    5.0402    6.6184   -1.6678 H   0  0  0  0  0  0  0  0  0  0  0  0
  1  3  1  0  0  0  0
  1  7  1  0  0  0  0
  1  2  2  0  0  0  0
 37 38  1  0  0  0  0
 38 46  1  0  0  0  0
 38 39  2  0  0  0  0
  8  9  1  0  0  0  0
  9 17  1  0  0  0  0
  9 10  2  0  0  0  0
 18 19  1  0  0  0  0
 19 36  1  0  0  0  0
 19 20  2  0  0  0  0
 22 24  1  0  0  0  0
 37 40  1  0  0  0  0
  8 11  1  0  0  0  0
 21 23  1  0  0  0  0
 46 47  1  0  0  0  0
 21 22  1  0  0  0  0
 36 37  1  0  0  0  0
  7  8  1  0  0  0  0
 18 21  1  0  0  0  0
 17 18  1  0  0  0  0
  3  4  1  0  0  0  0
  3  5  1  0  0  0  0
  3  6  1  0  0  0  0
 24 33  1  0  0  0  0
 24 34  1  0  0  0  0
 24 35  1  0  0  0  0
 40 43  1  0  0  0  0
 40 44  1  0  0  0  0
 40 45  1  0  0  0  0
 11 14  1  0  0  0  0
 11 15  1  0  0  0  0
 11 16  1  0  0  0  0
 23 30  1  0  0  0  0
 23 31  1  0  0  0  0
 23 32  1  0  0  0  0
 47 49  1  0  0  0  0
 47 50  1  0  0  0  0
 47 51  1  0  0  0  0
 22 28  1  0  0  0  0
 22 29  1  0  0  0  0
 37 42  1  0  0  0  0
  8 13  1  0  0  0  0
 18 26  1  0  0  0  0
 21 27  1  0  0  0  0
 46 48  1  0  0  0  0
  7 12  1  0  0  0  0
 36 41  1  0  0  0  0
 17 25  1  0  0  0  0
M  END
$$$$

  -OEChem-05262214473D

 51 50  0     1  0  0  0  0  0999 V2000
    1.3524   -3.0009    1.4091 C   0  0  0  0  0  0  0  0  0  0  0  0
    1.8758   -1.9880    0.9598 O   0  0  0  0  0  0  0  0  0  0  0  0
    2.2030   -4.1782    1.7536 C   0  0  0  0  0  0  0  0  0  0  0  0
    2.3264   -4.8705    0.9053 H   0  0  0  0  0  0  0  0  0  0  0  0
    3.2257   -3.8876    2.0432 H   0  0  0  0  0  0  0  0  0  0  0  0
    1.8327   -4.8004    2.5839 H   0  0  0  0  0  0  0  0  0  0  0  0
    0.0005   -3.1873    1.6465 N   0  0  0  0  0  0  0  0  0  0  0  0
   -0.9949   -2.1807    1.3864 C   0  0  2  0  0  0  0  0  0  0  0  0
   -0.3083   -0.8216    1.4164 C   0  0  0  0  0  0  0  0  0  0  0  0
    0.7533   -0.6191    2.0022 O   0  0  0  0  0  0  0  0  0  0  0  0
   -2.1232   -2.2423    2.4042 C   0  0  0  0  0  0  0  0  0  0  0  0
   -0.3048   -4.0823    2.0245 H   0  0  0  0  0  0  0  0  0  0  0  0
   -1.3830   -2.3724    0.3801 H   0  0  0  0  0  0  0  0  0  0  0  0
   -1.7534   -2.0527    3.4185 H   0  0  0  0  0  0  0  0  0  0  0  0
   -2.8936   -1.4947    2.1882 H   0  0  0  0  0  0  0  0  0  0  0  0
   -2.5964   -3.2301    2.4022 H   0  0  0  0  0  0  0  0  0  0  0  0
   -1.0412    0.1517    0.7482 N   0  0  0  0  0  0  0  0  0  0  0  0
   -0.6079    1.5223    0.6467 C   0  0  2  0  0  0  0  0  0  0  0  0
    0.5245    1.5892   -0.3771 C   0  0  0  0  0  0  0  0  0  0  0  0
    0.5949    0.8348   -1.3452 O   0  0  0  0  0  0  0  0  0  0  0  0
   -0.2088    2.1327    2.0119 C   0  0  2  0  0  0  0  0  0  0  0  0
   -1.3986    2.1933    2.9954 C   0  0  0  0  0  0  0  0  0  0  0  0
    0.4272    3.5141    1.8073 C   0  0  0  0  0  0  0  0  0  0  0  0
   -0.9899    2.5365    4.4222 C   0  0  0  0  0  0  0  0  0  0  0  0
   -1.9022   -0.1128    0.2753 H   0  0  0  0  0  0  0  0  0  0  0  0
   -1.4587    2.0758    0.2292 H   0  0  0  0  0  0  0  0  0  0  0  0
    0.5603    1.4886    2.4587 H   0  0  0  0  0  0  0  0  0  0  0  0
   -2.1123    2.9555    2.6620 H   0  0  0  0  0  0  0  0  0  0  0  0
   -1.9363    1.2377    3.0044 H   0  0  0  0  0  0  0  0  0  0  0  0
   -0.2906    4.2110    1.3616 H   0  0  0  0  0  0  0  0  0  0  0  0
    0.7460    3.9485    2.7598 H   0  0  0  0  0  0  0  0  0  0  0  0
    1.3016    3.4604    1.1506 H   0  0  0  0  0  0  0  0  0  0  0  0
   -0.2739    1.8126    4.8214 H   0  0  0  0  0  0  0  0  0  0  0  0
   -1.8682    2.5248    5.0760 H   0  0  0  0  0  0  0  0  0  0  0  0
   -0.5433    3.5343    4.4743 H   0  0  0  0  0  0  0  0  0  0  0  0
    1.4231    2.6092   -0.0982 N   0  0  0  0  0  0  0  0  0  0  0  0
    2.5738    2.8996   -0.9229 C   0  0  2  0  0  0  0  0  0  0  0  0
    2.9148    4.3741   -0.7521 C   0  0  0  0  0  0  0  0  0  0  0  0
    2.0993    5.2113   -0.3713 O   0  0  0  0  0  0  0  0  0  0  0  0
    2.3058    2.5693   -2.3829 C   0  0  0  0  0  0  0  0  0  0  0  0
    1.2642    3.1801    0.7266 H   0  0  0  0  0  0  0  0  0  0  0  0
    3.3984    2.2870   -0.5423 H   0  0  0  0  0  0  0  0  0  0  0  0
    1.4827    3.1733   -2.7818 H   0  0  0  0  0  0  0  0  0  0  0  0
    3.1880    2.7629   -3.0020 H   0  0  0  0  0  0  0  0  0  0  0  0
    2.0317    1.5152   -2.5001 H   0  0  0  0  0  0  0  0  0  0  0  0
    4.2248    4.6524   -1.1162 N   0  0  0  0  0  0  0  0  0  0  0  0
    4.7850    5.9822   -1.0556 C   0  0  0  0  0  0  0  0  0  0  0  0
    4.8359    3.8932   -1.4025 H   0  0  0  0  0  0  0  0  0  0  0  0
    4.6601    6.4781   -2.0295 H   0  0  0  0  0  0  0  0  0  0  0  0
    4.2662    6.5635   -0.2790 H   0  0  0  0  0  0  0  0  0  0  0  0
    5.8557    5.9181   -0.8116 H   0  0  0  0  0  0  0  0  0  0  0  0
  1  3  1  0  0  0  0
  1  7  1  0  0  0  0
  1  2  2  0  0  0  0
 37 38  1  0  0  0  0
 38 46  1  0  0  0  0
 38 39  2  0  0  0  0
  8  9  1  0  0  0  0
  9 17  1  0  0  0  0
  9 10  2  0  0  0  0
 18 19  1  0  0  0  0
 19 36  1  0  0  0  0
 19 20  2  0  0  0  0
 22 24  1  0  0  0  0
 37 40  1  0  0  0  0
  8 11  1  0  0  0  0
 21 23  1  0  0  0  0
 46 47  1  0  0  0  0
 21 22  1  0  0  0  0
 36 37  1  0  0  0  0
  7  8  1  0  0  0  0
 18 21  1  0  0  0  0
 17 18  1  0  0  0  0
  3  4  1  0  0  0  0
  3  5  1  0  0  0  0
  3  6  1  0  0  0  0
 24 33  1  0  0  0  0
 24 34  1  0  0  0  0
 24 35  1  0  0  0  0
 40 43  1  0  0  0  0
 40 44  1  0  0  0  0
 40 45  1  0  0  0  0
 11 14  1  0  0  0  0
 11 15  1  0  0  0  0
 11 16  1  0  0  0  0
 23 30  1  0  0  0  0
 23 31  1  0  0  0  0
 23 32  1  0  0  0  0
 47 49  1  0  0  0  0
 47 50  1  0  0  0  0
 47 51  1  0  0  0  0
 22 28  1  0  0  0  0
 22 29  1  0  0  0  0
 37 42  1  0  0  0  0
  8 13  1  0  0  0  0
 18 26  1  0  0  0  0
 21 27  1  0  0  0  0
 46 48  1  0  0  0  0
  7 12  1  0  0  0  0
 36 41  1  0  0  0  0
 17 25  1  0  0  0  0
M  END
$$$$

  -OEChem-05262214473D

 51 50  0     1  0  0  0  0  0999 V2000
    1.3524   -3.0009    1.4091 C   0  0  0  0  0  0  0  0  0  0  0  0
    1.8758   -1.9880    0.9598 O   0  0  0  0  0  0  0  0  0  0  0  0
    2.2030   -4.1782    1.7536 C   0  0  0  0  0  0  0  0  0  0  0  0
    2.3264   -4.8705    0.9053 H   0  0  0  0  0  0  0  0  0  0  0  0
    3.2257   -3.8876    2.0432 H   0  0  0  0  0  0  0  0  0  0  0  0
    1.8327   -4.8004    2.5839 H   0  0  0  0  0  0  0  0  0  0  0  0
    0.0005   -3.1873    1.6465 N   0  0  0  0  0  0  0  0  0  0  0  0
   -0.9949   -2.1807    1.3864 C   0  0  2  0  0  0  0  0  0  0  0  0
   -0.3083   -0.8216    1.4164 C   0  0  0  0  0  0  0  0  0  0  0  0
    0.7533   -0.6191    2.0022 O   0  0  0  0  0  0  0  0  0  0  0  0
   -2.1232   -2.2423    2.4042 C   0  0  0  0  0  0  0  0  0  0  0  0
   -0.3048   -4.0823    2.0245 H   0  0  0  0  0  0  0  0  0  0  0  0
   -1.3830   -2.3724    0.3801 H   0  0  0  0  0  0  0  0  0  0  0  0
   -1.7534   -2.0527    3.4185 H   0  0  0  0  0  0  0  0  0  0  0  0
   -2.8936   -1.4947    2.1882 H   0  0  0  0  0  0  0  0  0  0  0  0
   -2.5964   -3.2301    2.4022 H   0  0  0  0  0  0  0  0  0  0  0  0
   -1.0412    0.1517    0.7482 N   0  0  0  0  0  0  0  0  0  0  0  0
   -0.6079    1.5223    0.6467 C   0  0  2  0  0  0  0  0  0  0  0  0
    0.5245    1.5892   -0.3771 C   0  0  0  0  0  0  0  0  0  0  0  0
    0.4675    1.0349   -1.4730 O   0  0  0  0  0  0  0  0  0  0  0  0
   -0.2088    2.1327    2.0119 C   0  0  2  0  0  0  0  0  0  0  0  0
   -1.3986    2.1933    2.9954 C   0  0  0  0  0  0  0  0  0  0  0  0
    0.4272    3.5141    1.8073 C   0  0  0  0  0  0  0  0  0  0  0  0
   -0.9899    2.5365    4.4222 C   0  0  0  0  0  0  0  0  0  0  0  0
   -1.9022   -0.1128    0.2753 H   0  0  0  0  0  0  0  0  0  0  0  0
   -1.4587    2.0758    0.2292 H   0  0  0  0  0  0  0  0  0  0  0  0
    0.5603    1.4886    2.4587 H   0  0  0  0  0  0  0  0  0  0  0  0
   -2.1123    2.9555    2.6620 H   0  0  0  0  0  0  0  0  0  0  0  0
   -1.9363    1.2377    3.0044 H   0  0  0  0  0  0  0  0  0  0  0  0
   -0.2906    4.2110    1.3616 H   0  0  0  0  0  0  0  0  0  0  0  0
    0.7460    3.9485    2.7598 H   0  0  0  0  0  0  0  0  0  0  0  0
    1.3016    3.4604    1.1506 H   0  0  0  0  0  0  0  0  0  0  0  0
   -0.2739    1.8126    4.8214 H   0  0  0  0  0  0  0  0  0  0  0  0
   -1.8682    2.5248    5.0760 H   0  0  0  0  0  0  0  0  0  0  0  0
   -0.5433    3.5343    4.4743 H   0  0  0  0  0  0  0  0  0  0  0  0
    1.5857    2.3659    0.0657 N   0  0  0  0  0  0  0  0  0  0  0  0
    2.7741    2.6071   -0.7205 C   0  0  2  0  0  0  0  0  0  0  0  0
    3.3661    3.9398   -0.2812 C   0  0  0  0  0  0  0  0  0  0  0  0
    2.7072    4.8157    0.2752 O   0  0  0  0  0  0  0  0  0  0  0  0
    2.4607    2.6157   -2.2086 C   0  0  0  0  0  0  0  0  0  0  0  0
    1.5243    2.7857    0.9886 H   0  0  0  0  0  0  0  0  0  0  0  0
    3.4770    1.7999   -0.4872 H   0  0  0  0  0  0  0  0  0  0  0  0
    1.7578    3.4179   -2.4615 H   0  0  0  0  0  0  0  0  0  0  0  0
    3.3666    2.7702   -2.8040 H   0  0  0  0  0  0  0  0  0  0  0  0
    2.0075    1.6674   -2.5169 H   0  0  0  0  0  0  0  0  0  0  0  0
    4.7066    4.0532   -0.6224 N   0  0  0  0  0  0  0  0  0  0  0  0
    5.4900    5.2295   -0.3250 C   0  0  0  0  0  0  0  0  0  0  0  0
    5.1775    3.2697   -1.0654 H   0  0  0  0  0  0  0  0  0  0  0  0
    5.4589    5.9178   -1.1825 H   0  0  0  0  0  0  0  0  0  0  0  0
    5.0763    5.7307    0.5625 H   0  0  0  0  0  0  0  0  0  0  0  0
    6.5317    4.9360   -0.1281 H   0  0  0  0  0  0  0  0  0  0  0  0
  1  3  1  0  0  0  0
  1  7  1  0  0  0  0
  1  2  2  0  0  0  0
 37 38  1  0  0  0  0
 38 46  1  0  0  0  0
 38 39  2  0  0  0  0
  8  9  1  0  0  0  0
  9 17  1  0  0  0  0
  9 10  2  0  0  0  0
 18 19  1  0  0  0  0
 19 36  1  0  0  0  0
 19 20  2  0  0  0  0
 22 24  1  0  0  0  0
 37 40  1  0  0  0  0
  8 11  1  0  0  0  0
 21 23  1  0  0  0  0
 46 47  1  0  0  0  0
 21 22  1  0  0  0  0
 36 37  1  0  0  0  0
  7  8  1  0  0  0  0
 18 21  1  0  0  0  0
 17 18  1  0  0  0  0
  3  4  1  0  0  0  0
  3  5  1  0  0  0  0
  3  6  1  0  0  0  0
 24 33  1  0  0  0  0
 24 34  1  0  0  0  0
 24 35  1  0  0  0  0
 40 43  1  0  0  0  0
 40 44  1  0  0  0  0
 40 45  1  0  0  0  0
 11 14  1  0  0  0  0
 11 15  1  0  0  0  0
 11 16  1  0  0  0  0
 23 30  1  0  0  0  0
 23 31  1  0  0  0  0
 23 32  1  0  0  0  0
 47 49  1  0  0  0  0
 47 50  1  0  0  0  0
 47 51  1  0  0  0  0
 22 28  1  0  0  0  0
 22 29  1  0  0  0  0
 37 42  1  0  0  0  0
  8 13  1  0  0  0  0
 18 26  1  0  0  0  0
 21 27  1  0  0  0  0
 46 48  1  0  0  0  0
  7 12  1  0  0  0  0
 36 41  1  0  0  0  0
 17 25  1  0  0  0  0
M  END
$$$$

  -OEChem-05262214473D

 51 50  0     1  0  0  0  0  0999 V2000
    1.3524   -3.0009    1.4091 C   0  0  0  0  0  0  0  0  0  0  0  0
    1.8758   -1.9880    0.9598 O   0  0  0  0  0  0  0  0  0  0  0  0
    2.2030   -4.1782    1.7536 C   0  0  0  0  0  0  0  0  0  0  0  0
    2.3264   -4.8705    0.9053 H   0  0  0  0  0  0  0  0  0  0  0  0
    3.2257   -3.8876    2.0432 H   0  0  0  0  0  0  0  0  0  0  0  0
    1.8327   -4.8004    2.5839 H   0  0  0  0  0  0  0  0  0  0  0  0
    0.0005   -3.1873    1.6465 N   0  0  0  0  0  0  0  0  0  0  0  0
   -0.9949   -2.1807    1.3864 C   0  0  2  0  0  0  0  0  0  0  0  0
   -0.3083   -0.8216    1.4164 C   0  0  0  0  0  0  0  0  0  0  0  0
    0.7533   -0.6191    2.0022 O   0  0  0  0  0  0  0  0  0  0  0  0
   -2.1232   -2.2423    2.4042 C   0  0  0  0  0  0  0  0  0  0  0  0
   -0.3048   -4.0823    2.0245 H   0  0  0  0  0  0  0  0  0  0  0  0
   -1.3830   -2.3724    0.3801 H   0  0  0  0  0  0  0  0  0  0  0  0
   -1.7534   -2.0527    3.4185 H   0  0  0  0  0  0  0  0  0  0  0  0
   -2.8936   -1.4947    2.1882 H   0  0  0  0  0  0  0  0  0  0  0  0
   -2.5964   -3.2301    2.4022 H   0  0  0  0  0  0  0  0  0  0  0  0
   -1.0412    0.1517    0.7482 N   0  0  0  0  0  0  0  0  0  0  0  0
   -0.6079    1.5223    0.6467 C   0  0  2  0  0  0  0  0  0  0  0  0
    0.5245    1.5892   -0.3771 C   0  0  0  0  0  0  0  0  0  0  0  0
    0.3778    1.2749   -1.5566 O   0  0  0  0  0  0  0  0  0  0  0  0
   -0.2088    2.1327    2.0119 C   0  0  2  0  0  0  0  0  0  0  0  0
   -1.3986    2.1933    2.9954 C   0  0  0  0  0  0  0  0  0  0  0  0
    0.4272    3.5141    1.8073 C   0  0  0  0  0  0  0  0  0  0  0  0
   -0.9899    2.5365    4.4222 C   0  0  0  0  0  0  0  0  0  0  0  0
   -1.9022   -0.1128    0.2753 H   0  0  0  0  0  0  0  0  0  0  0  0
   -1.4587    2.0758    0.2292 H   0  0  0  0  0  0  0  0  0  0  0  0
    0.5603    1.4886    2.4587 H   0  0  0  0  0  0  0  0  0  0  0  0
   -2.1123    2.9555    2.6620 H   0  0  0  0  0  0  0  0  0  0  0  0
   -1.9363    1.2377    3.0044 H   0  0  0  0  0  0  0  0  0  0  0  0
   -0.2906    4.2110    1.3616 H   0  0  0  0  0  0  0  0  0  0  0  0
    0.7460    3.9485    2.7598 H   0  0  0  0  0  0  0  0  0  0  0  0
    1.3016    3.4604    1.1506 H   0  0  0  0  0  0  0  0  0  0  0  0
   -0.2739    1.8126    4.8214 H   0  0  0  0  0  0  0  0  0  0  0  0
   -1.8682    2.5248    5.0760 H   0  0  0  0  0  0  0  0  0  0  0  0
   -0.5433    3.5343    4.4743 H   0  0  0  0  0  0  0  0  0  0  0  0
    1.7025    2.0712    0.1756 N   0  0  0  0  0  0  0  0  0  0  0  0
    2.9191    2.2511   -0.5834 C   0  0  2  0  0  0  0  0  0  0  0  0
    3.7322    3.3518    0.0852 C   0  0  0  0  0  0  0  0  0  0  0  0
    3.2331    4.2041    0.8169 O   0  0  0  0  0  0  0  0  0  0  0  0
    2.6203    2.6003   -2.0331 C   0  0  0  0  0  0  0  0  0  0  0  0
    1.7101    2.3095    1.1630 H   0  0  0  0  0  0  0  0  0  0  0  0
    3.4690    1.3053   -0.5284 H   0  0  0  0  0  0  0  0  0  0  0  0
    2.0696    3.5451   -2.1083 H   0  0  0  0  0  0  0  0  0  0  0  0
    3.5425    2.7082   -2.6134 H   0  0  0  0  0  0  0  0  0  0  0  0
    2.0103    1.8218   -2.5038 H   0  0  0  0  0  0  0  0  0  0  0  0
    5.0737    3.2961   -0.2659 N   0  0  0  0  0  0  0  0  0  0  0  0
    6.0487    4.2401    0.2283 C   0  0  0  0  0  0  0  0  0  0  0  0
    5.4031    2.5435   -0.8633 H   0  0  0  0  0  0  0  0  0  0  0  0
    6.1431    5.0757   -0.4809 H   0  0  0  0  0  0  0  0  0  0  0  0
    5.7239    4.6244    1.2064 H   0  0  0  0  0  0  0  0  0  0  0  0
    7.0221    3.7391    0.3361 H   0  0  0  0  0  0  0  0  0  0  0  0
  1  3  1  0  0  0  0
  1  7  1  0  0  0  0
  1  2  2  0  0  0  0
 37 38  1  0  0  0  0
 38 46  1  0  0  0  0
 38 39  2  0  0  0  0
  8  9  1  0  0  0  0
  9 17  1  0  0  0  0
  9 10  2  0  0  0  0
 18 19  1  0  0  0  0
 19 36  1  0  0  0  0
 19 20  2  0  0  0  0
 22 24  1  0  0  0  0
 37 40  1  0  0  0  0
  8 11  1  0  0  0  0
 21 23  1  0  0  0  0
 46 47  1  0  0  0  0
 21 22  1  0  0  0  0
 36 37  1  0  0  0  0
  7  8  1  0  0  0  0
 18 21  1  0  0  0  0
 17 18  1  0  0  0  0
  3  4  1  0  0  0  0
  3  5  1  0  0  0  0
  3  6  1  0  0  0  0
 24 33  1  0  0  0  0
 24 34  1  0  0  0  0
 24 35  1  0  0  0  0
 40 43  1  0  0  0  0
 40 44  1  0  0  0  0
 40 45  1  0  0  0  0
 11 14  1  0  0  0  0
 11 15  1  0  0  0  0
 11 16  1  0  0  0  0
 23 30  1  0  0  0  0
 23 31  1  0  0  0  0
 23 32  1  0  0  0  0
 47 49  1  0  0  0  0
 47 50  1  0  0  0  0
 47 51  1  0  0  0  0
 22 28  1  0  0  0  0
 22 29  1  0  0  0  0
 37 42  1  0  0  0  0
  8 13  1  0  0  0  0
 18 26  1  0  0  0  0
 21 27  1  0  0  0  0
 46 48  1  0  0  0  0
  7 12  1  0  0  0  0
 36 41  1  0  0  0  0
 17 25  1  0  0  0  0
M  END
$$$$

  -OEChem-05262214473D

 51 50  0     1  0  0  0  0  0999 V2000
    1.3524   -3.0009    1.4091 C   0  0  0  0  0  0  0  0  0  0  0  0
    1.8758   -1.9880    0.9598 O   0  0  0  0  0  0  0  0  0  0  0  0
    2.2030   -4.1782    1.7536 C   0  0  0  0  0  0  0  0  0  0  0  0
    2.3264   -4.8705    0.9053 H   0  0  0  0  0  0  0  0  0  0  0  0
    3.2257   -3.8876    2.0432 H   0  0  0  0  0  0  0  0  0  0  0  0
    1.8327   -4.8004    2.5839 H   0  0  0  0  0  0  0  0  0  0  0  0
    0.0005   -3.1873    1.6465 N   0  0  0  0  0  0  0  0  0  0  0  0
   -0.9949   -2.1807    1.3864 C   0  0  2  0  0  0  0  0  0  0  0  0
   -0.3083   -0.8216    1.4164 C   0  0  0  0  0  0  0  0  0  0  0  0
    0.7533   -0.6191    2.0022 O   0  0  0  0  0  0  0  0  0  0  0  0
   -2.1232   -2.2423    2.4042 C   0  0  0  0  0  0  0  0  0  0  0  0
   -0.3048   -4.0823    2.0245 H   0  0  0  0  0  0  0  0  0  0  0  0
   -1.3830   -2.3724    0.3801 H   0  0  0  0  0  0  0  0  0  0  0  0
   -1.7534   -2.0527    3.4185 H   0  0  0  0  0  0  0  0  0  0  0  0
   -2.8936   -1.4947    2.1882 H   0  0  0  0  0  0  0  0  0  0  0  0
   -2.5964   -3.2301    2.4022 H   0  0  0  0  0  0  0  0  0  0  0  0
   -1.0412    0.1517    0.7482 N   0  0  0  0  0  0  0  0  0  0  0  0
   -0.6079    1.5223    0.6467 C   0  0  2  0  0  0  0  0  0  0  0  0
    0.5245    1.5892   -0.3771 C   0  0  0  0  0  0  0  0  0  0  0  0
    0.3318    1.5383   -1.5903 O   0  0  0  0  0  0  0  0  0  0  0  0
   -0.2088    2.1327    2.0119 C   0  0  2  0  0  0  0  0  0  0  0  0
   -1.3986    2.1933    2.9954 C   0  0  0  0  0  0  0  0  0  0  0  0
    0.4272    3.5141    1.8073 C   0  0  0  0  0  0  0  0  0  0  0  0
   -0.9899    2.5365    4.4222 C   0  0  0  0  0  0  0  0  0  0  0  0
   -1.9022   -0.1128    0.2753 H   0  0  0  0  0  0  0  0  0  0  0  0
   -1.4587    2.0758    0.2292 H   0  0  0  0  0  0  0  0  0  0  0  0
    0.5603    1.4886    2.4587 H   0  0  0  0  0  0  0  0  0  0  0  0
   -2.1123    2.9555    2.6620 H   0  0  0  0  0  0  0  0  0  0  0  0
   -1.9363    1.2377    3.0044 H   0  0  0  0  0  0  0  0  0  0  0  0
   -0.2906    4.2110    1.3616 H   0  0  0  0  0  0  0  0  0  0  0  0
    0.7460    3.9485    2.7598 H   0  0  0  0  0  0  0  0  0  0  0  0
    1.3016    3.4604    1.1506 H   0  0  0  0  0  0  0  0  0  0  0  0
   -0.2739    1.8126    4.8214 H   0  0  0  0  0  0  0  0  0  0  0  0
   -1.8682    2.5248    5.0760 H   0  0  0  0  0  0  0  0  0  0  0  0
   -0.5433    3.5343    4.4743 H   0  0  0  0  0  0  0  0  0  0  0  0
    1.7654    1.7453    0.2239 N   0  0  0  0  0  0  0  0  0  0  0  0
    2.9990    1.8558   -0.5209 C   0  0  2  0  0  0  0  0  0  0  0  0
    3.9879    2.6500    0.3221 C   0  0  0  0  0  0  0  0  0  0  0  0
    3.6411    3.4183    1.2169 O   0  0  0  0  0  0  0  0  0  0  0  0
    2.7738    2.5241   -1.8683 C   0  0  0  0  0  0  0  0  0  0  0  0
    1.8090    1.7838    1.2380 H   0  0  0  0  0  0  0  0  0  0  0  0
    3.3750    0.8368   -0.6629 H   0  0  0  0  0  0  0  0  0  0  0  0
    2.3969    3.5461   -1.7463 H   0  0  0  0  0  0  0  0  0  0  0  0
    3.7040    2.5813   -2.4432 H   0  0  0  0  0  0  0  0  0  0  0  0
    2.0399    1.9679   -2.4614 H   0  0  0  0  0  0  0  0  0  0  0  0
    5.3011    2.4327   -0.0708 N   0  0  0  0  0  0  0  0  0  0  0  0
    6.4231    3.0814    0.5666 C   0  0  0  0  0  0  0  0  0  0  0  0
    5.4974    1.7642   -0.8099 H   0  0  0  0  0  0  0  0  0  0  0  0
    6.6658    4.0090    0.0276 H   0  0  0  0  0  0  0  0  0  0  0  0
    6.1648    3.3200    1.6089 H   0  0  0  0  0  0  0  0  0  0  0  0
    7.2935    2.4090    0.5493 H   0  0  0  0  0  0  0  0  0  0  0  0
  1  3  1  0  0  0  0
  1  7  1  0  0  0  0
  1  2  2  0  0  0  0
 37 38  1  0  0  0  0
 38 46  1  0  0  0  0
 38 39  2  0  0  0  0
  8  9  1  0  0  0  0
  9 17  1  0  0  0  0
  9 10  2  0  0  0  0
 18 19  1  0  0  0  0
 19 36  1  0  0  0  0
 19 20  2  0  0  0  0
 22 24  1  0  0  0  0
 37 40  1  0  0  0  0
  8 11  1  0  0  0  0
 21 23  1  0  0  0  0
 46 47  1  0  0  0  0
 21 22  1  0  0  0  0
 36 37  1  0  0  0  0
  7  8  1  0  0  0  0
 18 21  1  0  0  0  0
 17 18  1  0  0  0  0
  3  4  1  0  0  0  0
  3  5  1  0  0  0  0
  3  6  1  0  0  0  0
 24 33  1  0  0  0  0
 24 34  1  0  0  0  0
 24 35  1  0  0  0  0
 40 43  1  0  0  0  0
 40 44  1  0  0  0  0
 40 45  1  0  0  0  0
 11 14  1  0  0  0  0
 11 15  1  0  0  0  0
 11 16  1  0  0  0  0
 23 30  1  0  0  0  0
 23 31  1  0  0  0  0
 23 32  1  0  0  0  0
 47 49  1  0  0  0  0
 47 50  1  0  0  0  0
 47 51  1  0  0  0  0
 22 28  1  0  0  0  0
 22 29  1  0  0  0  0
 37 42  1  0  0  0  0
  8 13  1  0  0  0  0
 18 26  1  0  0  0  0
 21 27  1  0  0  0  0
 46 48  1  0  0  0  0
  7 12  1  0  0  0  0
 36 41  1  0  0  0  0
 17 25  1  0  0  0  0
M  END
$$$$

  -OEChem-05262214473D

 51 50  0     1  0  0  0  0  0999 V2000
    1.3524   -3.0009    1.4091 C   0  0  0  0  0  0  0  0  0  0  0  0
    1.8758   -1.9880    0.9598 O   0  0  0  0  0  0  0  0  0  0  0  0
    2.2030   -4.1782    1.7536 C   0  0  0  0  0  0  0  0  0  0  0  0
    2.3264   -4.8705    0.9053 H   0  0  0  0  0  0  0  0  0  0  0  0
    3.2257   -3.8876    2.0432 H   0  0  0  0  0  0  0  0  0  0  0  0
    1.8327   -4.8004    2.5839 H   0  0  0  0  0  0  0  0  0  0  0  0
    0.0005   -3.1873    1.6465 N   0  0  0  0  0  0  0  0  0  0  0  0
   -0.9949   -2.1807    1.3864 C   0  0  2  0  0  0  0  0  0  0  0  0
   -0.3083   -0.8216    1.4164 C   0  0  0  0  0  0  0  0  0  0  0  0
    0.7533   -0.6191    2.0022 O   0  0  0  0  0  0  0  0  0  0  0  0
   -2.1232   -2.2423    2.4042 C   0  0  0  0  0  0  0  0  0  0  0  0
   -0.3048   -4.0823    2.0245 H   0  0  0  0  0  0  0  0  0  0  0  0
   -1.3830   -2.3724    0.3801 H   0  0  0  0  0  0  0  0  0  0  0  0
   -1.7534   -2.0527    3.4185 H   0  0  0  0  0  0  0  0  0  0  0  0
   -2.8936   -1.4947    2.1882 H   0  0  0  0  0  0  0  0  0  0  0  0
   -2.5964   -3.2301    2.4022 H   0  0  0  0  0  0  0  0  0  0  0  0
   -1.0412    0.1517    0.7482 N   0  0  0  0  0  0  0  0  0  0  0  0
   -0.6079    1.5223    0.6467 C   0  0  2  0  0  0  0  0  0  0  0  0
    0.5245    1.5892   -0.3771 C   0  0  0  0  0  0  0  0  0  0  0  0
    0.3326    1.8071   -1.5718 O   0  0  0  0  0  0  0  0  0  0  0  0
   -0.2088    2.1327    2.0119 C   0  0  2  0  0  0  0  0  0  0  0  0
   -1.3986    2.1933    2.9954 C   0  0  0  0  0  0  0  0  0  0  0  0
    0.4272    3.5141    1.8073 C   0  0  0  0  0  0  0  0  0  0  0  0
   -0.9899    2.5365    4.4222 C   0  0  0  0  0  0  0  0  0  0  0  0
   -1.9022   -0.1128    0.2753 H   0  0  0  0  0  0  0  0  0  0  0  0
   -1.4587    2.0758    0.2292 H   0  0  0  0  0  0  0  0  0  0  0  0
    0.5603    1.4886    2.4587 H   0  0  0  0  0  0  0  0  0  0  0  0
   -2.1123    2.9555    2.6620 H   0  0  0  0  0  0  0  0  0  0  0  0
   -1.9363    1.2377    3.0044 H   0  0  0  0  0  0  0  0  0  0  0  0
   -0.2906    4.2110    1.3616 H   0  0  0  0  0  0  0  0  0  0  0  0
    0.7460    3.9485    2.7598 H   0  0  0  0  0  0  0  0  0  0  0  0
    1.3016    3.4604    1.1506 H   0  0  0  0  0  0  0  0  0  0  0  0
   -0.2739    1.8126    4.8214 H   0  0  0  0  0  0  0  0  0  0  0  0
   -1.8682    2.5248    5.0760 H   0  0  0  0  0  0  0  0  0  0  0  0
   -0.5433    3.5343    4.4743 H   0  0  0  0  0  0  0  0  0  0  0  0
    1.7702    1.4103    0.2074 N   0  0  0  0  0  0  0  0  0  0  0  0
    3.0083    1.4481   -0.5373 C   0  0  2  0  0  0  0  0  0  0  0  0
    4.1159    1.8823    0.4136 C   0  0  0  0  0  0  0  0  0  0  0  0
    3.9035    2.5117    1.4479 O   0  0  0  0  0  0  0  0  0  0  0  0
    2.9107    2.3922   -1.7255 C   0  0  0  0  0  0  0  0  0  0  0  0
    1.8142    1.2444    1.2085 H   0  0  0  0  0  0  0  0  0  0  0  0
    3.2015    0.4263   -0.8816 H   0  0  0  0  0  0  0  0  0  0  0  0
    2.7173    3.4209   -1.4001 H   0  0  0  0  0  0  0  0  0  0  0  0
    3.8398    2.3981   -2.3049 H   0  0  0  0  0  0  0  0  0  0  0  0
    2.0944    2.0957   -2.3929 H   0  0  0  0  0  0  0  0  0  0  0  0
    5.3732    1.5219   -0.0506 N   0  0  0  0  0  0  0  0  0  0  0  0
    6.5876    1.8323    0.6670 C   0  0  0  0  0  0  0  0  0  0  0  0
    5.4540    0.9849   -0.9089 H   0  0  0  0  0  0  0  0  0  0  0  0
    6.9915    2.7905    0.3081 H   0  0  0  0  0  0  0  0  0  0  0  0
    6.3691    1.9064    1.7425 H   0  0  0  0  0  0  0  0  0  0  0  0
    7.3274    1.0361    0.4971 H   0  0  0  0  0  0  0  0  0  0  0  0
  1  3  1  0  0  0  0
  1  7  1  0  0  0  0
  1  2  2  0  0  0  0
 37 38  1  0  0  0  0
 38 46  1  0  0  0  0
 38 39  2  0  0  0  0
  8  9  1  0  0  0  0
  9 17  1  0  0  0  0
  9 10  2  0  0  0  0
 18 19  1  0  0  0  0
 19 36  1  0  0  0  0
 19 20  2  0  0  0  0
 22 24  1  0  0  0  0
 37 40  1  0  0  0  0
  8 11  1  0  0  0  0
 21 23  1  0  0  0  0
 46 47  1  0  0  0  0
 21 22  1  0  0  0  0
 36 37  1  0  0  0  0
  7  8  1  0  0  0  0
 18 21  1  0  0  0  0
 17 18  1  0  0  0  0
  3  4  1  0  0  0  0
  3  5  1  0  0  0  0
  3  6  1  0  0  0  0
 24 33  1  0  0  0  0
 24 34  1  0  0  0  0
 24 35  1  0  0  0  0
 40 43  1  0  0  0  0
 40 44  1  0  0  0  0
 40 45  1  0  0  0  0
 11 14  1  0  0  0  0
 11 15  1  0  0  0  0
 11 16  1  0  0  0  0
 23 30  1  0  0  0  0
 23 31  1  0  0  0  0
 23 32  1  0  0  0  0
 47 49  1  0  0  0  0
 47 50  1  0  0  0  0
 47 51  1  0  0  0  0
 22 28  1  0  0  0  0
 22 29  1  0  0  0  0
 37 42  1  0  0  0  0
  8 13  1  0  0  0  0
 18 26  1  0  0  0  0
 21 27  1  0  0  0  0
 46 48  1  0  0  0  0
  7 12  1  0  0  0  0
 36 41  1  0  0  0  0
 17 25  1  0  0  0  0
M  END
$$$$

  -OEChem-05262214473D

 51 50  0     1  0  0  0  0  0999 V2000
    1.3524   -3.0009    1.4091 C   0  0  0  0  0  0  0  0  0  0  0  0
    1.8758   -1.9880    0.9598 O   0  0  0  0  0  0  0  0  0  0  0  0
    2.2030   -4.1782    1.7536 C   0  0  0  0  0  0  0  0  0  0  0  0
    2.3264   -4.8705    0.9053 H   0  0  0  0  0  0  0  0  0  0  0  0
    3.2257   -3.8876    2.0432 H   0  0  0  0  0  0  0  0  0  0  0  0
    1.8327   -4.8004    2.5839 H   0  0  0  0  0  0  0  0  0  0  0  0
    0.0005   -3.1873    1.6465 N   0  0  0  0  0  0  0  0  0  0  0  0
   -0.9949   -2.1807    1.3864 C   0  0  2  0  0  0  0  0  0  0  0  0
   -0.3083   -0.8216    1.4164 C   0  0  0  0  0  0  0  0  0  0  0  0
    0.7533   -0.6191    2.0022 O   0  0  0  0  0  0  0  0  0  0  0  0
   -2.1232   -2.2423    2.4042 C   0  0  0  0  0  0  0  0  0  0  0  0
   -0.3048   -4.0823    2.0245 H   0  0  0  0  0  0  0  0  0  0  0  0
   -1.3830   -2.3724    0.3801 H   0  0  0  0  0  0  0  0  0  0  0  0
   -1.7534   -2.0527    3.4185 H   0  0  0  0  0  0  0  0  0  0  0  0
   -2.8936   -1.4947    2.1882 H   0  0  0  0  0  0  0  0  0  0  0  0
   -2.5964   -3.2301    2.4022 H   0  0  0  0  0  0  0  0  0  0  0  0
   -1.0412    0.1517    0.7482 N   0  0  0  0  0  0  0  0  0  0  0  0
   -0.6079    1.5223    0.6467 C   0  0  2  0  0  0  0  0  0  0  0  0
    0.5245    1.5892   -0.3771 C   0  0  0  0  0  0  0  0  0  0  0  0
    0.3803    2.0631   -1.5023 O   0  0  0  0  0  0  0  0  0  0  0  0
   -0.2088    2.1327    2.0119 C   0  0  2  0  0  0  0  0  0  0  0  0
   -1.3986    2.1933    2.9954 C   0  0  0  0  0  0  0  0  0  0  0  0
    0.4272    3.5141    1.8073 C   0  0  0  0  0  0  0  0  0  0  0  0
   -0.9899    2.5365    4.4222 C   0  0  0  0  0  0  0  0  0  0  0  0
   -1.9022   -0.1128    0.2753 H   0  0  0  0  0  0  0  0  0  0  0  0
   -1.4587    2.0758    0.2292 H   0  0  0  0  0  0  0  0  0  0  0  0
    0.5603    1.4886    2.4587 H   0  0  0  0  0  0  0  0  0  0  0  0
   -2.1123    2.9555    2.6620 H   0  0  0  0  0  0  0  0  0  0  0  0
   -1.9363    1.2377    3.0044 H   0  0  0  0  0  0  0  0  0  0  0  0
   -0.2906    4.2110    1.3616 H   0  0  0  0  0  0  0  0  0  0  0  0
    0.7460    3.9485    2.7598 H   0  0  0  0  0  0  0  0  0  0  0  0
    1.3016    3.4604    1.1506 H   0  0  0  0  0  0  0  0  0  0  0  0
   -0.2739    1.8126    4.8214 H   0  0  0  0  0  0  0  0  0  0  0  0
   -1.8682    2.5248    5.0760 H   0  0  0  0  0  0  0  0  0  0  0  0
   -0.5433    3.5343    4.4743 H   0  0  0  0  0  0  0  0  0  0  0  0
    1.7166    1.0890    0.1270 N   0  0  0  0  0  0  0  0  0  0  0  0
    2.9464    1.0558   -0.6314 C   0  0  2  0  0  0  0  0  0  0  0  0
    4.1075    1.1011    0.3532 C   0  0  0  0  0  0  0  0  0  0  0  0
    4.0024    1.5463    1.4942 O   0  0  0  0  0  0  0  0  0  0  0  0
    3.0217    2.2137   -1.6143 C   0  0  0  0  0  0  0  0  0  0  0  0
    1.7253    0.7283    1.0765 H   0  0  0  0  0  0  0  0  0  0  0  0
    2.9603    0.1018   -1.1697 H   0  0  0  0  0  0  0  0  0  0  0  0
    3.0090    3.1780   -1.0933 H   0  0  0  0  0  0  0  0  0  0  0  0
    3.9408    2.1710   -2.2081 H   0  0  0  0  0  0  0  0  0  0  0  0
    2.1699    2.1966   -2.3027 H   0  0  0  0  0  0  0  0  0  0  0  0
    5.2852    0.6258   -0.2065 N   0  0  0  0  0  0  0  0  0  0  0  0
    6.5311    0.5780    0.5224 C   0  0  0  0  0  0  0  0  0  0  0  0
    5.2757    0.2586   -1.1535 H   0  0  0  0  0  0  0  0  0  0  0  0
    7.0979    1.5032    0.3418 H   0  0  0  0  0  0  0  0  0  0  0  0
    6.3229    0.4798    1.5981 H   0  0  0  0  0  0  0  0  0  0  0  0
    7.1215   -0.2858    0.1829 H   0  0  0  0  0  0  0  0  0  0  0  0
  1  3  1  0  0  0  0
  1  7  1  0  0  0  0
  1  2  2  0  0  0  0
 37 38  1  0  0  0  0
 38 46  1  0  0  0  0
 38 39  2  0  0  0  0
  8  9  1  0  0  0  0
  9 17  1  0  0  0  0
  9 10  2  0  0  0  0
 18 19  1  0  0  0  0
 19 36  1  0  0  0  0
 19 20  2  0  0  0  0
 22 24  1  0  0  0  0
 37 40  1  0  0  0  0
  8 11  1  0  0  0  0
 21 23  1  0  0  0  0
 46 47  1  0  0  0  0
 21 22  1  0  0  0  0
 36 37  1  0  0  0  0
  7  8  1  0  0  0  0
 18 21  1  0  0  0  0
 17 18  1  0  0  0  0
  3  4  1  0  0  0  0
  3  5  1  0  0  0  0
  3  6  1  0  0  0  0
 24 33  1  0  0  0  0
 24 34  1  0  0  0  0
 24 35  1  0  0  0  0
 40 43  1  0  0  0  0
 40 44  1  0  0  0  0
 40 45  1  0  0  0  0
 11 14  1  0  0  0  0
 11 15  1  0  0  0  0
 11 16  1  0  0  0  0
 23 30  1  0  0  0  0
 23 31  1  0  0  0  0
 23 32  1  0  0  0  0
 47 49  1  0  0  0  0
 47 50  1  0  0  0  0
 47 51  1  0  0  0  0
 22 28  1  0  0  0  0
 22 29  1  0  0  0  0
 37 42  1  0  0  0  0
  8 13  1  0  0  0  0
 18 26  1  0  0  0  0
 21 27  1  0  0  0  0
 46 48  1  0  0  0  0
  7 12  1  0  0  0  0
 36 41  1  0  0  0  0
 17 25  1  0  0  0  0
M  END
$$$$

  -OEChem-05262214473D

 51 50  0     1  0  0  0  0  0999 V2000
    1.3524   -3.0009    1.4091 C   0  0  0  0  0  0  0  0  0  0  0  0
    1.8758   -1.9880    0.9598 O   0  0  0  0  0  0  0  0  0  0  0  0
    2.2030   -4.1782    1.7536 C   0  0  0  0  0  0  0  0  0  0  0  0
    2.3264   -4.8705    0.9053 H   0  0  0  0  0  0  0  0  0  0  0  0
    3.2257   -3.8876    2.0432 H   0  0  0  0  0  0  0  0  0  0  0  0
    1.8327   -4.8004    2.5839 H   0  0  0  0  0  0  0  0  0  0  0  0
    0.0005   -3.1873    1.6465 N   0  0  0  0  0  0  0  0  0  0  0  0
   -0.9949   -2.1807    1.3864 C   0  0  2  0  0  0  0  0  0  0  0  0
   -0.3083   -0.8216    1.4164 C   0  0  0  0  0  0  0  0  0  0  0  0
    0.7533   -0.6191    2.0022 O   0  0  0  0  0  0  0  0  0  0  0  0
   -2.1232   -2.2423    2.4042 C   0  0  0  0  0  0  0  0  0  0  0  0
   -0.3048   -4.0823    2.0245 H   0  0  0  0  0  0  0  0  0  0  0  0
   -1.3830   -2.3724    0.3801 H   0  0  0  0  0  0  0  0  0  0  0  0
   -1.7534   -2.0527    3.4185 H   0  0  0  0  0  0  0  0  0  0  0  0
   -2.8936   -1.4947    2.1882 H   0  0  0  0  0  0  0  0  0  0  0  0
   -2.5964   -3.2301    2.4022 H   0  0  0  0  0  0  0  0  0  0  0  0
   -1.0412    0.1517    0.7482 N   0  0  0  0  0  0  0  0  0  0  0  0
   -0.6079    1.5223    0.6467 C   0  0  2  0  0  0  0  0  0  0  0  0
    0.5245    1.5892   -0.3771 C   0  0  0  0  0  0  0  0  0  0  0  0
    0.4715    2.2888   -1.3867 O   0  0  0  0  0  0  0  0  0  0  0  0
   -0.2088    2.1327    2.0119 C   0  0  2  0  0  0  0  0  0  0  0  0
   -1.3986    2.1933    2.9954 C   0  0  0  0  0  0  0  0  0  0  0  0
    0.4272    3.5141    1.8073 C   0  0  0  0  0  0  0  0  0  0  0  0
   -0.9899    2.5365    4.4222 C   0  0  0  0  0  0  0  0  0  0  0  0
   -1.9022   -0.1128    0.2753 H   0  0  0  0  0  0  0  0  0  0  0  0
   -1.4587    2.0758    0.2292 H   0  0  0  0  0  0  0  0  0  0  0  0
    0.5603    1.4886    2.4587 H   0  0  0  0  0  0  0  0  0  0  0  0
   -2.1123    2.9555    2.6620 H   0  0  0  0  0  0  0  0  0  0  0  0
   -1.9363    1.2377    3.0044 H   0  0  0  0  0  0  0  0  0  0  0  0
   -0.2906    4.2110    1.3616 H   0  0  0  0  0  0  0  0  0  0  0  0
    0.7460    3.9485    2.7598 H   0  0  0  0  0  0  0  0  0  0  0  0
    1.3016    3.4604    1.1506 H   0  0  0  0  0  0  0  0  0  0  0  0
   -0.2739    1.8126    4.8214 H   0  0  0  0  0  0  0  0  0  0  0  0
   -1.8682    2.5248    5.0760 H   0  0  0  0  0  0  0  0  0  0  0  0
   -0.5433    3.5343    4.4743 H   0  0  0  0  0  0  0  0  0  0  0  0
    1.6082    0.8034   -0.0116 N   0  0  0  0  0  0  0  0  0  0  0  0
    2.8175    0.7057   -0.7968 C   0  0  2  0  0  0  0  0  0  0  0  0
    3.9632    0.3596    0.1451 C   0  0  0  0  0  0  0  0  0  0  0  0
    3.9311    0.5877    1.3526 O   0  0  0  0  0  0  0  0  0  0  0  0
    3.0992    2.0008   -1.5425 C   0  0  0  0  0  0  0  0  0  0  0  0
    1.5485    0.2704    0.8510 H   0  0  0  0  0  0  0  0  0  0  0  0
    2.6677   -0.1145   -1.5074 H   0  0  0  0  0  0  0  0  0  0  0  0
    3.2521    2.8340   -0.8469 H   0  0  0  0  0  0  0  0  0  0  0  0
    4.0000    1.9156   -2.1592 H   0  0  0  0  0  0  0  0  0  0  0  0
    2.2614    2.2637   -2.1972 H   0  0  0  0  0  0  0  0  0  0  0  0
    5.0429   -0.1946   -0.5281 N   0  0  0  0  0  0  0  0  0  0  0  0
    6.2573   -0.5960    0.1429 C   0  0  0  0  0  0  0  0  0  0  0  0
    4.9749   -0.3651   -1.5271 H   0  0  0  0  0  0  0  0  0  0  0  0
    6.9779    0.2349    0.1261 H   0  0  0  0  0  0  0  0  0  0  0  0
    6.0292   -0.8623    1.1855 H   0  0  0  0  0  0  0  0  0  0  0  0
    6.6898   -1.4667   -0.3717 H   0  0  0  0  0  0  0  0  0  0  0  0
  1  3  1  0  0  0  0
  1  7  1  0  0  0  0
  1  2  2  0  0  0  0
 37 38  1  0  0  0  0
 38 46  1  0  0  0  0
 38 39  2  0  0  0  0
  8  9  1  0  0  0  0
  9 17  1  0  0  0  0
  9 10  2  0  0  0  0
 18 19  1  0  0  0  0
 19 36  1  0  0  0  0
 19 20  2  0  0  0  0
 22 24  1  0  0  0  0
 37 40  1  0  0  0  0
  8 11  1  0  0  0  0
 21 23  1  0  0  0  0
 46 47  1  0  0  0  0
 21 22  1  0  0  0  0
 36 37  1  0  0  0  0
  7  8  1  0  0  0  0
 18 21  1  0  0  0  0
 17 18  1  0  0  0  0
  3  4  1  0  0  0  0
  3  5  1  0  0  0  0
  3  6  1  0  0  0  0
 24 33  1  0  0  0  0
 24 34  1  0  0  0  0
 24 35  1  0  0  0  0
 40 43  1  0  0  0  0
 40 44  1  0  0  0  0
 40 45  1  0  0  0  0
 11 14  1  0  0  0  0
 11 15  1  0  0  0  0
 11 16  1  0  0  0  0
 23 30  1  0  0  0  0
 23 31  1  0  0  0  0
 23 32  1  0  0  0  0
 47 49  1  0  0  0  0
 47 50  1  0  0  0  0
 47 51  1  0  0  0  0
 22 28  1  0  0  0  0
 22 29  1  0  0  0  0
 37 42  1  0  0  0  0
  8 13  1  0  0  0  0
 18 26  1  0  0  0  0
 21 27  1  0  0  0  0
 46 48  1  0  0  0  0
  7 12  1  0  0  0  0
 36 41  1  0  0  0  0
 17 25  1  0  0  0  0
M  END
$$$$

  -OEChem-05262214473D

 51 50  0     1  0  0  0  0  0999 V2000
    1.3524   -3.0009    1.4091 C   0  0  0  0  0  0  0  0  0  0  0  0
    1.8758   -1.9880    0.9598 O   0  0  0  0  0  0  0  0  0  0  0  0
    2.2030   -4.1782    1.7536 C   0  0  0  0  0  0  0  0  0  0  0  0
    2.3264   -4.8705    0.9053 H   0  0  0  0  0  0  0  0  0  0  0  0
    3.2257   -3.8876    2.0432 H   0  0  0  0  0  0  0  0  0  0  0  0
    1.8327   -4.8004    2.5839 H   0  0  0  0  0  0  0  0  0  0  0  0
    0.0005   -3.1873    1.6465 N   0  0  0  0  0  0  0  0  0  0  0  0
   -0.9949   -2.1807    1.3864 C   0  0  2  0  0  0  0  0  0  0  0  0
   -0.3083   -0.8216    1.4164 C   0  0  0  0  0  0  0  0  0  0  0  0
    0.7533   -0.6191    2.0022 O   0  0  0  0  0  0  0  0  0  0  0  0
   -2.1232   -2.2423    2.4042 C   0  0  0  0  0  0  0  0  0  0  0  0
   -0.3048   -4.0823    2.0245 H   0  0  0  0  0  0  0  0  0  0  0  0
   -1.3830   -2.3724    0.3801 H   0  0  0  0  0  0  0  0  0  0  0  0
   -1.7534   -2.0527    3.4185 H   0  0  0  0  0  0  0  0  0  0  0  0
   -2.8936   -1.4947    2.1882 H   0  0  0  0  0  0  0  0  0  0  0  0
   -2.5964   -3.2301    2.4022 H   0  0  0  0  0  0  0  0  0  0  0  0
   -1.0412    0.1517    0.7482 N   0  0  0  0  0  0  0  0  0  0  0  0
   -0.6079    1.5223    0.6467 C   0  0  2  0  0  0  0  0  0  0  0  0
    0.5245    1.5892   -0.3771 C   0  0  0  0  0  0  0  0  0  0  0  0
    0.6000    2.4688   -1.2328 O   0  0  0  0  0  0  0  0  0  0  0  0
   -0.2088    2.1327    2.0119 C   0  0  2  0  0  0  0  0  0  0  0  0
   -1.3986    2.1933    2.9954 C   0  0  0  0  0  0  0  0  0  0  0  0
    0.4272    3.5141    1.8073 C   0  0  0  0  0  0  0  0  0  0  0  0
   -0.9899    2.5365    4.4222 C   0  0  0  0  0  0  0  0  0  0  0  0
   -1.9022   -0.1128    0.2753 H   0  0  0  0  0  0  0  0  0  0  0  0
   -1.4587    2.0758    0.2292 H   0  0  0  0  0  0  0  0  0  0  0  0
    0.5603    1.4886    2.4587 H   0  0  0  0  0  0  0  0  0  0  0  0
   -2.1123    2.9555    2.6620 H   0  0  0  0  0  0  0  0  0  0  0  0
   -1.9363    1.2377    3.0044 H   0  0  0  0  0  0  0  0  0  0  0  0
   -0.2906    4.2110    1.3616 H   0  0  0  0  0  0  0  0  0  0  0  0
    0.7460    3.9485    2.7598 H   0  0  0  0  0  0  0  0  0  0  0  0
    1.3016    3.4604    1.1506 H   0  0  0  0  0  0  0  0  0  0  0  0
   -0.2739    1.8126    4.8214 H   0  0  0  0  0  0  0  0  0  0  0  0
   -1.8682    2.5248    5.0760 H   0  0  0  0  0  0  0  0  0  0  0  0
   -0.5433    3.5343    4.4743 H   0  0  0  0  0  0  0  0  0  0  0  0
    1.4524    0.5730   -0.1990 N   0  0  0  0  0  0  0  0  0  0  0  0
    2.6304    0.4215   -1.0223 C   0  0  2  0  0  0  0  0  0  0  0  0
    3.6928   -0.2918   -0.1965 C   0  0  0  0  0  0  0  0  0  0  0  0
    3.6943   -0.2987    1.0327 O   0  0  0  0  0  0  0  0  0  0  0  0
    3.1380    1.7678   -1.5148 C   0  0  0  0  0  0  0  0  0  0  0  0
    1.2958   -0.0980    0.5473 H   0  0  0  0  0  0  0  0  0  0  0  0
    2.3438   -0.2079   -1.8718 H   0  0  0  0  0  0  0  0  0  0  0  0
    3.4300    2.4123   -0.6777 H   0  0  0  0  0  0  0  0  0  0  0  0
    4.0136    1.6492   -2.1617 H   0  0  0  0  0  0  0  0  0  0  0  0
    2.3626    2.2924   -2.0834 H   0  0  0  0  0  0  0  0  0  0  0  0
    4.6631   -0.8834   -0.9932 N   0  0  0  0  0  0  0  0  0  0  0  0
    5.7850   -1.6097   -0.4458 C   0  0  0  0  0  0  0  0  0  0  0  0
    4.5718   -0.8438   -2.0041 H   0  0  0  0  0  0  0  0  0  0  0  0
    6.6396   -0.9280   -0.3240 H   0  0  0  0  0  0  0  0  0  0  0  0
    5.5080   -2.0287    0.5329 H   0  0  0  0  0  0  0  0  0  0  0  0
    6.0617   -2.4261   -1.1291 H   0  0  0  0  0  0  0  0  0  0  0  0
  1  3  1  0  0  0  0
  1  7  1  0  0  0  0
  1  2  2  0  0  0  0
 37 38  1  0  0  0  0
 38 46  1  0  0  0  0
 38 39  2  0  0  0  0
  8  9  1  0  0  0  0
  9 17  1  0  0  0  0
  9 10  2  0  0  0  0
 18 19  1  0  0  0  0
 19 36  1  0  0  0  0
 19 20  2  0  0  0  0
 22 24  1  0  0  0  0
 37 40  1  0  0  0  0
  8 11  1  0  0  0  0
 21 23  1  0  0  0  0
 46 47  1  0  0  0  0
 21 22  1  0  0  0  0
 36 37  1  0  0  0  0
  7  8  1  0  0  0  0
 18 21  1  0  0  0  0
 17 18  1  0  0  0  0
  3  4  1  0  0  0  0
  3  5  1  0  0  0  0
  3  6  1  0  0  0  0
 24 33  1  0  0  0  0
 24 34  1  0  0  0  0
 24 35  1  0  0  0  0
 40 43  1  0  0  0  0
 40 44  1  0  0  0  0
 40 45  1  0  0  0  0
 11 14  1  0  0  0  0
 11 15  1  0  0  0  0
 11 16  1  0  0  0  0
 23 30  1  0  0  0  0
 23 31  1  0  0  0  0
 23 32  1  0  0  0  0
 47 49  1  0  0  0  0
 47 50  1  0  0  0  0
 47 51  1  0  0  0  0
 22 28  1  0  0  0  0
 22 29  1  0  0  0  0
 37 42  1  0  0  0  0
  8 13  1  0  0  0  0
 18 26  1  0  0  0  0
 21 27  1  0  0  0  0
 46 48  1  0  0  0  0
  7 12  1  0  0  0  0
 36 41  1  0  0  0  0
 17 25  1  0  0  0  0
M  END
$$$$

  -OEChem-05262214473D

 51 50  0     1  0  0  0  0  0999 V2000
    1.3524   -3.0009    1.4091 C   0  0  0  0  0  0  0  0  0  0  0  0
    1.8758   -1.9880    0.9598 O   0  0  0  0  0  0  0  0  0  0  0  0
    2.2030   -4.1782    1.7536 C   0  0  0  0  0  0  0  0  0  0  0  0
    2.3264   -4.8705    0.9053 H   0  0  0  0  0  0  0  0  0  0  0  0
    3.2257   -3.8876    2.0432 H   0  0  0  0  0  0  0  0  0  0  0  0
    1.8327   -4.8004    2.5839 H   0  0  0  0  0  0  0  0  0  0  0  0
    0.0005   -3.1873    1.6465 N   0  0  0  0  0  0  0  0  0  0  0  0
   -0.9949   -2.1807    1.3864 C   0  0  2  0  0  0  0  0  0  0  0  0
   -0.3083   -0.8216    1.4164 C   0  0  0  0  0  0  0  0  0  0  0  0
    0.7533   -0.6191    2.0022 O   0  0  0  0  0  0  0  0  0  0  0  0
   -2.1232   -2.2423    2.4042 C   0  0  0  0  0  0  0  0  0  0  0  0
   -0.3048   -4.0823    2.0245 H   0  0  0  0  0  0  0  0  0  0  0  0
   -1.3830   -2.3724    0.3801 H   0  0  0  0  0  0  0  0  0  0  0  0
   -1.7534   -2.0527    3.4185 H   0  0  0  0  0  0  0  0  0  0  0  0
   -2.8936   -1.4947    2.1882 H   0  0  0  0  0  0  0  0  0  0  0  0
   -2.5964   -3.2301    2.4022 H   0  0  0  0  0  0  0  0  0  0  0  0
   -1.0412    0.1517    0.7482 N   0  0  0  0  0  0  0  0  0  0  0  0
   -0.6079    1.5223    0.6467 C   0  0  2  0  0  0  0  0  0  0  0  0
    0.5245    1.5892   -0.3771 C   0  0  0  0  0  0  0  0  0  0  0  0
    0.7571    2.5908   -1.0510 O   0  0  0  0  0  0  0  0  0  0  0  0
   -0.2088    2.1327    2.0119 C   0  0  2  0  0  0  0  0  0  0  0  0
   -1.3986    2.1933    2.9954 C   0  0  0  0  0  0  0  0  0  0  0  0
    0.4272    3.5141    1.8073 C   0  0  0  0  0  0  0  0  0  0  0  0
   -0.9899    2.5365    4.4222 C   0  0  0  0  0  0  0  0  0  0  0  0
   -1.9022   -0.1128    0.2753 H   0  0  0  0  0  0  0  0  0  0  0  0
   -1.4587    2.0758    0.2292 H   0  0  0  0  0  0  0  0  0  0  0  0
    0.5603    1.4886    2.4587 H   0  0  0  0  0  0  0  0  0  0  0  0
   -2.1123    2.9555    2.6620 H   0  0  0  0  0  0  0  0  0  0  0  0
   -1.9363    1.2377    3.0044 H   0  0  0  0  0  0  0  0  0  0  0  0
   -0.2906    4.2110    1.3616 H   0  0  0  0  0  0  0  0  0  0  0  0
    0.7460    3.9485    2.7598 H   0  0  0  0  0  0  0  0  0  0  0  0
    1.3016    3.4604    1.1506 H   0  0  0  0  0  0  0  0  0  0  0  0
   -0.2739    1.8126    4.8214 H   0  0  0  0  0  0  0  0  0  0  0  0
   -1.8682    2.5248    5.0760 H   0  0  0  0  0  0  0  0  0  0  0  0
   -0.5433    3.5343    4.4743 H   0  0  0  0  0  0  0  0  0  0  0  0
    1.2598    0.4133   -0.4224 N   0  0  0  0  0  0  0  0  0  0  0  0
    2.3979    0.2228   -1.2925 C   0  0  2  0  0  0  0  0  0  0  0  0
    3.3149   -0.8086   -0.6483 C   0  0  0  0  0  0  0  0  0  0  0  0
    3.3082   -1.0525    0.5565 O   0  0  0  0  0  0  0  0  0  0  0  0
    3.1354    1.5308   -1.5333 C   0  0  0  0  0  0  0  0  0  0  0  0
    0.9843   -0.3517    0.1862 H   0  0  0  0  0  0  0  0  0  0  0  0
    2.0105   -0.1720   -2.2380 H   0  0  0  0  0  0  0  0  0  0  0  0
    3.5307    1.9416   -0.5971 H   0  0  0  0  0  0  0  0  0  0  0  0
    3.9804    1.3901   -2.2153 H   0  0  0  0  0  0  0  0  0  0  0  0
    2.4666    2.2808   -1.9691 H   0  0  0  0  0  0  0  0  0  0  0  0
    4.1714   -1.3936   -1.5704 N   0  0  0  0  0  0  0  0  0  0  0  0
    5.1463   -2.3941   -1.2035 C   0  0  0  0  0  0  0  0  0  0  0  0
    4.0941   -1.1447   -2.5521 H   0  0  0  0  0  0  0  0  0  0  0  0
    6.1061   -1.9063   -0.9781 H   0  0  0  0  0  0  0  0  0  0  0  0
    4.7950   -2.9398   -0.3153 H   0  0  0  0  0  0  0  0  0  0  0  0
    5.2801   -3.0987   -2.0376 H   0  0  0  0  0  0  0  0  0  0  0  0
  1  3  1  0  0  0  0
  1  7  1  0  0  0  0
  1  2  2  0  0  0  0
 37 38  1  0  0  0  0
 38 46  1  0  0  0  0
 38 39  2  0  0  0  0
  8  9  1  0  0  0  0
  9 17  1  0  0  0  0
  9 10  2  0  0  0  0
 18 19  1  0  0  0  0
 19 36  1  0  0  0  0
 19 20  2  0  0  0  0
 22 24  1  0  0  0  0
 37 40  1  0  0  0  0
  8 11  1  0  0  0  0
 21 23  1  0  0  0  0
 46 47  1  0  0  0  0
 21 22  1  0  0  0  0
 36 37  1  0  0  0  0
  7  8  1  0  0  0  0
 18 21  1  0  0  0  0
 17 18  1  0  0  0  0
  3  4  1  0  0  0  0
  3  5  1  0  0  0  0
  3  6  1  0  0  0  0
 24 33  1  0  0  0  0
 24 34  1  0  0  0  0
 24 35  1  0  0  0  0
 40 43  1  0  0  0  0
 40 44  1  0  0  0  0
 40 45  1  0  0  0  0
 11 14  1  0  0  0  0
 11 15  1  0  0  0  0
 11 16  1  0  0  0  0
 23 30  1  0  0  0  0
 23 31  1  0  0  0  0
 23 32  1  0  0  0  0
 47 49  1  0  0  0  0
 47 50  1  0  0  0  0
 47 51  1  0  0  0  0
 22 28  1  0  0  0  0
 22 29  1  0  0  0  0
 37 42  1  0  0  0  0
  8 13  1  0  0  0  0
 18 26  1  0  0  0  0
 21 27  1  0  0  0  0
 46 48  1  0  0  0  0
  7 12  1  0  0  0  0
 36 41  1  0  0  0  0
 17 25  1  0  0  0  0
M  END
$$$$

  -OEChem-05262214473D

 51 50  0     1  0  0  0  0  0999 V2000
    1.3524   -3.0009    1.4091 C   0  0  0  0  0  0  0  0  0  0  0  0
    1.8758   -1.9880    0.9598 O   0  0  0  0  0  0  0  0  0  0  0  0
    2.2030   -4.1782    1.7536 C   0  0  0  0  0  0  0  0  0  0  0  0
    2.3264   -4.8705    0.9053 H   0  0  0  0  0  0  0  0  0  0  0  0
    3.2257   -3.8876    2.0432 H   0  0  0  0  0  0  0  0  0  0  0  0
    1.8327   -4.8004    2.5839 H   0  0  0  0  0  0  0  0  0  0  0  0
    0.0005   -3.1873    1.6465 N   0  0  0  0  0  0  0  0  0  0  0  0
   -0.9949   -2.1807    1.3864 C   0  0  2  0  0  0  0  0  0  0  0  0
   -0.3083   -0.8216    1.4164 C   0  0  0  0  0  0  0  0  0  0  0  0
    0.7533   -0.6191    2.0022 O   0  0  0  0  0  0  0  0  0  0  0  0
   -2.1232   -2.2423    2.4042 C   0  0  0  0  0  0  0  0  0  0  0  0
   -0.3048   -4.0823    2.0245 H   0  0  0  0  0  0  0  0  0  0  0  0
   -1.3830   -2.3724    0.3801 H   0  0  0  0  0  0  0  0  0  0  0  0
   -1.7534   -2.0527    3.4185 H   0  0  0  0  0  0  0  0  0  0  0  0
   -2.8936   -1.4947    2.1882 H   0  0  0  0  0  0  0  0  0  0  0  0
   -2.5964   -3.2301    2.4022 H   0  0  0  0  0  0  0  0  0  0  0  0
   -1.0412    0.1517    0.7482 N   0  0  0  0  0  0  0  0  0  0  0  0
   -0.6079    1.5223    0.6467 C   0  0  2  0  0  0  0  0  0  0  0  0
    0.5245    1.5892   -0.3771 C   0  0  0  0  0  0  0  0  0  0  0  0
    0.9321    2.6466   -0.8539 O   0  0  0  0  0  0  0  0  0  0  0  0
   -0.2088    2.1327    2.0119 C   0  0  2  0  0  0  0  0  0  0  0  0
   -1.3986    2.1933    2.9954 C   0  0  0  0  0  0  0  0  0  0  0  0
    0.4272    3.5141    1.8073 C   0  0  0  0  0  0  0  0  0  0  0  0
   -0.9899    2.5365    4.4222 C   0  0  0  0  0  0  0  0  0  0  0  0
   -1.9022   -0.1128    0.2753 H   0  0  0  0  0  0  0  0  0  0  0  0
   -1.4587    2.0758    0.2292 H   0  0  0  0  0  0  0  0  0  0  0  0
    0.5603    1.4886    2.4587 H   0  0  0  0  0  0  0  0  0  0  0  0
   -2.1123    2.9555    2.6620 H   0  0  0  0  0  0  0  0  0  0  0  0
   -1.9363    1.2377    3.0044 H   0  0  0  0  0  0  0  0  0  0  0  0
   -0.2906    4.2110    1.3616 H   0  0  0  0  0  0  0  0  0  0  0  0
    0.7460    3.9485    2.7598 H   0  0  0  0  0  0  0  0  0  0  0  0
    1.3016    3.4604    1.1506 H   0  0  0  0  0  0  0  0  0  0  0  0
   -0.2739    1.8126    4.8214 H   0  0  0  0  0  0  0  0  0  0  0  0
   -1.8682    2.5248    5.0760 H   0  0  0  0  0  0  0  0  0  0  0  0
   -0.5433    3.5343    4.4743 H   0  0  0  0  0  0  0  0  0  0  0  0
    1.0435    0.3353   -0.6667 N   0  0  0  0  0  0  0  0  0  0  0  0
    2.1357    0.1230   -1.5889 C   0  0  2  0  0  0  0  0  0  0  0  0
    2.8551   -1.1555   -1.1795 C   0  0  0  0  0  0  0  0  0  0  0  0
    2.7992   -1.6223   -0.0437 O   0  0  0  0  0  0  0  0  0  0  0  0
    3.0915    1.3058   -1.5965 C   0  0  0  0  0  0  0  0  0  0  0  0
    0.6354   -0.4736   -0.2077 H   0  0  0  0  0  0  0  0  0  0  0  0
    1.6907   -0.0094   -2.5811 H   0  0  0  0  0  0  0  0  0  0  0  0
    3.5473    1.4541   -0.6107 H   0  0  0  0  0  0  0  0  0  0  0  0
    3.9028    1.1558   -2.3164 H   0  0  0  0  0  0  0  0  0  0  0  0
    2.5663    2.2296   -1.8621 H   0  0  0  0  0  0  0  0  0  0  0  0
    3.6015   -1.6905   -2.2201 N   0  0  0  0  0  0  0  0  0  0  0  0
    4.3847   -2.8957   -2.0786 C   0  0  0  0  0  0  0  0  0  0  0  0
    3.5743   -1.2475   -3.1338 H   0  0  0  0  0  0  0  0  0  0  0  0
    5.4137   -2.6333   -1.7915 H   0  0  0  0  0  0  0  0  0  0  0  0
    3.9386   -3.5335   -1.3013 H   0  0  0  0  0  0  0  0  0  0  0  0
    4.3982   -3.4385   -3.0352 H   0  0  0  0  0  0  0  0  0  0  0  0
  1  3  1  0  0  0  0
  1  7  1  0  0  0  0
  1  2  2  0  0  0  0
 37 38  1  0  0  0  0
 38 46  1  0  0  0  0
 38 39  2  0  0  0  0
  8  9  1  0  0  0  0
  9 17  1  0  0  0  0
  9 10  2  0  0  0  0
 18 19  1  0  0  0  0
 19 36  1  0  0  0  0
 19 20  2  0  0  0  0
 22 24  1  0  0  0  0
 37 40  1  0  0  0  0
  8 11  1  0  0  0  0
 21 23  1  0  0  0  0
 46 47  1  0  0  0  0
 21 22  1  0  0  0  0
 36 37  1  0  0  0  0
  7  8  1  0  0  0  0
 18 21  1  0  0  0  0
 17 18  1  0  0  0  0
  3  4  1  0  0  0  0
  3  5  1  0  0  0  0
  3  6  1  0  0  0  0
 24 33  1  0  0  0  0
 24 34  1  0  0  0  0
 24 35  1  0  0  0  0
 40 43  1  0  0  0  0
 40 44  1  0  0  0  0
 40 45  1  0  0  0  0
 11 14  1  0  0  0  0
 11 15  1  0  0  0  0
 11 16  1  0  0  0  0
 23 30  1  0  0  0  0
 23 31  1  0  0  0  0
 23 32  1  0  0  0  0
 47 49  1  0  0  0  0
 47 50  1  0  0  0  0
 47 51  1  0  0  0  0
 22 28  1  0  0  0  0
 22 29  1  0  0  0  0
 37 42  1  0  0  0  0
  8 13  1  0  0  0  0
 18 26  1  0  0  0  0
 21 27  1  0  0  0  0
 46 48  1  0  0  0  0
  7 12  1  0  0  0  0
 36 41  1  0  0  0  0
 17 25  1  0  0  0  0
M  END
$$$$

  -OEChem-05262214473D

 51 50  0     1  0  0  0  0  0999 V2000
    1.3524   -3.0009    1.4091 C   0  0  0  0  0  0  0  0  0  0  0  0
    1.8758   -1.9880    0.9598 O   0  0  0  0  0  0  0  0  0  0  0  0
    2.2030   -4.1782    1.7536 C   0  0  0  0  0  0  0  0  0  0  0  0
    2.3264   -4.8705    0.9053 H   0  0  0  0  0  0  0  0  0  0  0  0
    3.2257   -3.8876    2.0432 H   0  0  0  0  0  0  0  0  0  0  0  0
    1.8327   -4.8004    2.5839 H   0  0  0  0  0  0  0  0  0  0  0  0
    0.0005   -3.1873    1.6465 N   0  0  0  0  0  0  0  0  0  0  0  0
   -0.9949   -2.1807    1.3864 C   0  0  2  0  0  0  0  0  0  0  0  0
   -0.3083   -0.8216    1.4164 C   0  0  0  0  0  0  0  0  0  0  0  0
    0.7533   -0.6191    2.0022 O   0  0  0  0  0  0  0  0  0  0  0  0
   -2.1232   -2.2423    2.4042 C   0  0  0  0  0  0  0  0  0  0  0  0
   -0.3048   -4.0823    2.0245 H   0  0  0  0  0  0  0  0  0  0  0  0
   -1.3830   -2.3724    0.3801 H   0  0  0  0  0  0  0  0  0  0  0  0
   -1.7534   -2.0527    3.4185 H   0  0  0  0  0  0  0  0  0  0  0  0
   -2.8936   -1.4947    2.1882 H   0  0  0  0  0  0  0  0  0  0  0  0
   -2.5964   -3.2301    2.4022 H   0  0  0  0  0  0  0  0  0  0  0  0
   -1.0412    0.1517    0.7482 N   0  0  0  0  0  0  0  0  0  0  0  0
   -0.6079    1.5223    0.6467 C   0  0  2  0  0  0  0  0  0  0  0  0
    0.5245    1.5892   -0.3771 C   0  0  0  0  0  0  0  0  0  0  0  0
    1.1130    2.6324   -0.6547 O   0  0  0  0  0  0  0  0  0  0  0  0
   -0.2088    2.1327    2.0119 C   0  0  2  0  0  0  0  0  0  0  0  0
   -1.3986    2.1933    2.9954 C   0  0  0  0  0  0  0  0  0  0  0  0
    0.4272    3.5141    1.8073 C   0  0  0  0  0  0  0  0  0  0  0  0
   -0.9899    2.5365    4.4222 C   0  0  0  0  0  0  0  0  0  0  0  0
   -1.9022   -0.1128    0.2753 H   0  0  0  0  0  0  0  0  0  0  0  0
   -1.4587    2.0758    0.2292 H   0  0  0  0  0  0  0  0  0  0  0  0
    0.5603    1.4886    2.4587 H   0  0  0  0  0  0  0  0  0  0  0  0
   -2.1123    2.9555    2.6620 H   0  0  0  0  0  0  0  0  0  0  0  0
   -1.9363    1.2377    3.0044 H   0  0  0  0  0  0  0  0  0  0  0  0
   -0.2906    4.2110    1.3616 H   0  0  0  0  0  0  0  0  0  0  0  0
    0.7460    3.9485    2.7598 H   0  0  0  0  0  0  0  0  0  0  0  0
    1.3016    3.4604    1.1506 H   0  0  0  0  0  0  0  0  0  0  0  0
   -0.2739    1.8126    4.8214 H   0  0  0  0  0  0  0  0  0  0  0  0
   -1.8682    2.5248    5.0760 H   0  0  0  0  0  0  0  0  0  0  0  0
   -0.5433    3.5343    4.4743 H   0  0  0  0  0  0  0  0  0  0  0  0
    0.8183    0.3444   -0.9152 N   0  0  0  0  0  0  0  0  0  0  0  0
    1.8619    0.1288   -1.8915 C   0  0  2  0  0  0  0  0  0  0  0  0
    2.3447   -1.3090   -1.7540 C   0  0  0  0  0  0  0  0  0  0  0  0
    2.2020   -1.9693   -0.7270 O   0  0  0  0  0  0  0  0  0  0  0  0
    3.0094    1.1082   -1.7002 C   0  0  0  0  0  0  0  0  0  0  0  0
    0.2727   -0.4552   -0.6076 H   0  0  0  0  0  0  0  0  0  0  0  0
    1.4061    0.2690   -2.8777 H   0  0  0  0  0  0  0  0  0  0  0  0
    3.4785    0.9828   -0.7175 H   0  0  0  0  0  0  0  0  0  0  0  0
    3.7861    0.9623   -2.4582 H   0  0  0  0  0  0  0  0  0  0  0  0
    2.6550    2.1423   -1.7698 H   0  0  0  0  0  0  0  0  0  0  0  0
    2.9922   -1.7538   -2.8982 N   0  0  0  0  0  0  0  0  0  0  0  0
    3.5522   -3.0802   -3.0114 C   0  0  0  0  0  0  0  0  0  0  0  0
    3.0478   -1.1450   -3.7094 H   0  0  0  0  0  0  0  0  0  0  0  0
    4.6096   -3.0594   -2.7087 H   0  0  0  0  0  0  0  0  0  0  0  0
    2.9974   -3.7694   -2.3578 H   0  0  0  0  0  0  0  0  0  0  0  0
    3.4761   -3.4225   -4.0540 H   0  0  0  0  0  0  0  0  0  0  0  0
  1  3  1  0  0  0  0
  1  7  1  0  0  0  0
  1  2  2  0  0  0  0
 37 38  1  0  0  0  0
 38 46  1  0  0  0  0
 38 39  2  0  0  0  0
  8  9  1  0  0  0  0
  9 17  1  0  0  0  0
  9 10  2  0  0  0  0
 18 19  1  0  0  0  0
 19 36  1  0  0  0  0
 19 20  2  0  0  0  0
 22 24  1  0  0  0  0
 37 40  1  0  0  0  0
  8 11  1  0  0  0  0
 21 23  1  0  0  0  0
 46 47  1  0  0  0  0
 21 22  1  0  0  0  0
 36 37  1  0  0  0  0
  7  8  1  0  0  0  0
 18 21  1  0  0  0  0
 17 18  1  0  0  0  0
  3  4  1  0  0  0  0
  3  5  1  0  0  0  0
  3  6  1  0  0  0  0
 24 33  1  0  0  0  0
 24 34  1  0  0  0  0
 24 35  1  0  0  0  0
 40 43  1  0  0  0  0
 40 44  1  0  0  0  0
 40 45  1  0  0  0  0
 11 14  1  0  0  0  0
 11 15  1  0  0  0  0
 11 16  1  0  0  0  0
 23 30  1  0  0  0  0
 23 31  1  0  0  0  0
 23 32  1  0  0  0  0
 47 49  1  0  0  0  0
 47 50  1  0  0  0  0
 47 51  1  0  0  0  0
 22 28  1  0  0  0  0
 22 29  1  0  0  0  0
 37 42  1  0  0  0  0
  8 13  1  0  0  0  0
 18 26  1  0  0  0  0
 21 27  1  0  0  0  0
 46 48  1  0  0  0  0
  7 12  1  0  0  0  0
 36 41  1  0  0  0  0
 17 25  1  0  0  0  0
M  END
$$$$

  -OEChem-05262214473D

 51 50  0     1  0  0  0  0  0999 V2000
    1.3524   -3.0009    1.4091 C   0  0  0  0  0  0  0  0  0  0  0  0
    1.8758   -1.9880    0.9598 O   0  0  0  0  0  0  0  0  0  0  0  0
    2.2030   -4.1782    1.7536 C   0  0  0  0  0  0  0  0  0  0  0  0
    2.3264   -4.8705    0.9053 H   0  0  0  0  0  0  0  0  0  0  0  0
    3.2257   -3.8876    2.0432 H   0  0  0  0  0  0  0  0  0  0  0  0
    1.8327   -4.8004    2.5839 H   0  0  0  0  0  0  0  0  0  0  0  0
    0.0005   -3.1873    1.6465 N   0  0  0  0  0  0  0  0  0  0  0  0
   -0.9949   -2.1807    1.3864 C   0  0  2  0  0  0  0  0  0  0  0  0
   -0.3083   -0.8216    1.4164 C   0  0  0  0  0  0  0  0  0  0  0  0
    0.7533   -0.6191    2.0022 O   0  0  0  0  0  0  0  0  0  0  0  0
   -2.1232   -2.2423    2.4042 C   0  0  0  0  0  0  0  0  0  0  0  0
   -0.3048   -4.0823    2.0245 H   0  0  0  0  0  0  0  0  0  0  0  0
   -1.3830   -2.3724    0.3801 H   0  0  0  0  0  0  0  0  0  0  0  0
   -1.7534   -2.0527    3.4185 H   0  0  0  0  0  0  0  0  0  0  0  0
   -2.8936   -1.4947    2.1882 H   0  0  0  0  0  0  0  0  0  0  0  0
   -2.5964   -3.2301    2.4022 H   0  0  0  0  0  0  0  0  0  0  0  0
   -1.0412    0.1517    0.7482 N   0  0  0  0  0  0  0  0  0  0  0  0
   -0.6079    1.5223    0.6467 C   0  0  2  0  0  0  0  0  0  0  0  0
    0.5245    1.5892   -0.3771 C   0  0  0  0  0  0  0  0  0  0  0  0
    1.2876    2.5490   -0.4671 O   0  0  0  0  0  0  0  0  0  0  0  0
   -0.2088    2.1327    2.0119 C   0  0  2  0  0  0  0  0  0  0  0  0
   -1.3986    2.1933    2.9954 C   0  0  0  0  0  0  0  0  0  0  0  0
    0.4272    3.5141    1.8073 C   0  0  0  0  0  0  0  0  0  0  0  0
   -0.9899    2.5365    4.4222 C   0  0  0  0  0  0  0  0  0  0  0  0
   -1.9022   -0.1128    0.2753 H   0  0  0  0  0  0  0  0  0  0  0  0
   -1.4587    2.0758    0.2292 H   0  0  0  0  0  0  0  0  0  0  0  0
    0.5603    1.4886    2.4587 H   0  0  0  0  0  0  0  0  0  0  0  0
   -2.1123    2.9555    2.6620 H   0  0  0  0  0  0  0  0  0  0  0  0
   -1.9363    1.2377    3.0044 H   0  0  0  0  0  0  0  0  0  0  0  0
   -0.2906    4.2110    1.3616 H   0  0  0  0  0  0  0  0  0  0  0  0
    0.7460    3.9485    2.7598 H   0  0  0  0  0  0  0  0  0  0  0  0
    1.3016    3.4604    1.1506 H   0  0  0  0  0  0  0  0  0  0  0  0
   -0.2739    1.8126    4.8214 H   0  0  0  0  0  0  0  0  0  0  0  0
   -1.8682    2.5248    5.0760 H   0  0  0  0  0  0  0  0  0  0  0  0
   -0.5433    3.5343    4.4743 H   0  0  0  0  0  0  0  0  0  0  0  0
    0.5996    0.4399   -1.1509 N   0  0  0  0  0  0  0  0  0  0  0  0
    1.5949    0.2400   -2.1795 C   0  0  2  0  0  0  0  0  0  0  0  0
    1.8186   -1.2586   -2.3326 C   0  0  0  0  0  0  0  0  0  0  0  0
    1.5571   -2.0698   -1.4468 O   0  0  0  0  0  0  0  0  0  0  0  0
    2.8947    0.9515   -1.8373 C   0  0  0  0  0  0  0  0  0  0  0  0
   -0.0789   -0.2978   -0.9862 H   0  0  0  0  0  0  0  0  0  0  0  0
    1.1761    0.6441   -3.1076 H   0  0  0  0  0  0  0  0  0  0  0  0
    3.3292    0.5601   -0.9102 H   0  0  0  0  0  0  0  0  0  0  0  0
    3.6382    0.8229   -2.6308 H   0  0  0  0  0  0  0  0  0  0  0  0
    2.7265    2.0249   -1.6983 H   0  0  0  0  0  0  0  0  0  0  0  0
    2.3849   -1.5792   -3.5585 N   0  0  0  0  0  0  0  0  0  0  0  0
    2.7055   -2.9352   -3.9384 C   0  0  0  0  0  0  0  0  0  0  0  0
    2.5505   -0.8443   -4.2399 H   0  0  0  0  0  0  0  0  0  0  0  0
    3.7486   -3.1557   -3.6673 H   0  0  0  0  0  0  0  0  0  0  0  0
    2.0353   -3.6313   -3.4129 H   0  0  0  0  0  0  0  0  0  0  0  0
    2.5767   -3.0517   -5.0246 H   0  0  0  0  0  0  0  0  0  0  0  0
  1  3  1  0  0  0  0
  1  7  1  0  0  0  0
  1  2  2  0  0  0  0
 37 38  1  0  0  0  0
 38 46  1  0  0  0  0
 38 39  2  0  0  0  0
  8  9  1  0  0  0  0
  9 17  1  0  0  0  0
  9 10  2  0  0  0  0
 18 19  1  0  0  0  0
 19 36  1  0  0  0  0
 19 20  2  0  0  0  0
 22 24  1  0  0  0  0
 37 40  1  0  0  0  0
  8 11  1  0  0  0  0
 21 23  1  0  0  0  0
 46 47  1  0  0  0  0
 21 22  1  0  0  0  0
 36 37  1  0  0  0  0
  7  8  1  0  0  0  0
 18 21  1  0  0  0  0
 17 18  1  0  0  0  0
  3  4  1  0  0  0  0
  3  5  1  0  0  0  0
  3  6  1  0  0  0  0
 24 33  1  0  0  0  0
 24 34  1  0  0  0  0
 24 35  1  0  0  0  0
 40 43  1  0  0  0  0
 40 44  1  0  0  0  0
 40 45  1  0  0  0  0
 11 14  1  0  0  0  0
 11 15  1  0  0  0  0
 11 16  1  0  0  0  0
 23 30  1  0  0  0  0
 23 31  1  0  0  0  0
 23 32  1  0  0  0  0
 47 49  1  0  0  0  0
 47 50  1  0  0  0  0
 47 51  1  0  0  0  0
 22 28  1  0  0  0  0
 22 29  1  0  0  0  0
 37 42  1  0  0  0  0
  8 13  1  0  0  0  0
 18 26  1  0  0  0  0
 21 27  1  0  0  0  0
 46 48  1  0  0  0  0
  7 12  1  0  0  0  0
 36 41  1  0  0  0  0
 17 25  1  0  0  0  0
M  END
$$$$

  -OEChem-05262214473D

 51 50  0     1  0  0  0  0  0999 V2000
    1.3524   -3.0009    1.4091 C   0  0  0  0  0  0  0  0  0  0  0  0
    1.8758   -1.9880    0.9598 O   0  0  0  0  0  0  0  0  0  0  0  0
    2.2030   -4.1782    1.7536 C   0  0  0  0  0  0  0  0  0  0  0  0
    2.3264   -4.8705    0.9053 H   0  0  0  0  0  0  0  0  0  0  0  0
    3.2257   -3.8876    2.0432 H   0  0  0  0  0  0  0  0  0  0  0  0
    1.8327   -4.8004    2.5839 H   0  0  0  0  0  0  0  0  0  0  0  0
    0.0005   -3.1873    1.6465 N   0  0  0  0  0  0  0  0  0  0  0  0
   -0.9949   -2.1807    1.3864 C   0  0  2  0  0  0  0  0  0  0  0  0
   -0.3083   -0.8216    1.4164 C   0  0  0  0  0  0  0  0  0  0  0  0
    0.7533   -0.6191    2.0022 O   0  0  0  0  0  0  0  0  0  0  0  0
   -2.1232   -2.2423    2.4042 C   0  0  0  0  0  0  0  0  0  0  0  0
   -0.3048   -4.0823    2.0245 H   0  0  0  0  0  0  0  0  0  0  0  0
   -1.3830   -2.3724    0.3801 H   0  0  0  0  0  0  0  0  0  0  0  0
   -1.7534   -2.0527    3.4185 H   0  0  0  0  0  0  0  0  0  0  0  0
   -2.8936   -1.4947    2.1882 H   0  0  0  0  0  0  0  0  0  0  0  0
   -2.5964   -3.2301    2.4022 H   0  0  0  0  0  0  0  0  0  0  0  0
   -1.0412    0.1517    0.7482 N   0  0  0  0  0  0  0  0  0  0  0  0
   -0.6079    1.5223    0.6467 C   0  0  2  0  0  0  0  0  0  0  0  0
    0.5245    1.5892   -0.3771 C   0  0  0  0  0  0  0  0  0  0  0  0
    1.4438    2.4022   -0.3038 O   0  0  0  0  0  0  0  0  0  0  0  0
   -0.2088    2.1327    2.0119 C   0  0  2  0  0  0  0  0  0  0  0  0
   -1.3986    2.1933    2.9954 C   0  0  0  0  0  0  0  0  0  0  0  0
    0.4272    3.5141    1.8073 C   0  0  0  0  0  0  0  0  0  0  0  0
   -0.9899    2.5365    4.4222 C   0  0  0  0  0  0  0  0  0  0  0  0
   -1.9022   -0.1128    0.2753 H   0  0  0  0  0  0  0  0  0  0  0  0
   -1.4587    2.0758    0.2292 H   0  0  0  0  0  0  0  0  0  0  0  0
    0.5603    1.4886    2.4587 H   0  0  0  0  0  0  0  0  0  0  0  0
   -2.1123    2.9555    2.6620 H   0  0  0  0  0  0  0  0  0  0  0  0
   -1.9363    1.2377    3.0044 H   0  0  0  0  0  0  0  0  0  0  0  0
   -0.2906    4.2110    1.3616 H   0  0  0  0  0  0  0  0  0  0  0  0
    0.7460    3.9485    2.7598 H   0  0  0  0  0  0  0  0  0  0  0  0
    1.3016    3.4604    1.1506 H   0  0  0  0  0  0  0  0  0  0  0  0
   -0.2739    1.8126    4.8214 H   0  0  0  0  0  0  0  0  0  0  0  0
   -1.8682    2.5248    5.0760 H   0  0  0  0  0  0  0  0  0  0  0  0
   -0.5433    3.5343    4.4743 H   0  0  0  0  0  0  0  0  0  0  0  0
    0.4021    0.6152   -1.3578 N   0  0  0  0  0  0  0  0  0  0  0  0
    1.3531    0.4490   -2.4333 C   0  0  2  0  0  0  0  0  0  0  0  0
    1.3127   -1.0077   -2.8758 C   0  0  0  0  0  0  0  0  0  0  0  0
    0.9087   -1.9171   -2.1541 O   0  0  0  0  0  0  0  0  0  0  0  0
    2.7551    0.8463   -1.9985 C   0  0  0  0  0  0  0  0  0  0  0  0
   -0.3956   -0.0123   -1.3178 H   0  0  0  0  0  0  0  0  0  0  0  0
    1.0164    1.0904   -3.2551 H   0  0  0  0  0  0  0  0  0  0  0  0
    3.1095    0.2146   -1.1758 H   0  0  0  0  0  0  0  0  0  0  0  0
    3.4692    0.7470   -2.8227 H   0  0  0  0  0  0  0  0  0  0  0  0
    2.7761    1.8854   -1.6526 H   0  0  0  0  0  0  0  0  0  0  0  0
    1.8212   -1.1786   -4.1558 N   0  0  0  0  0  0  0  0  0  0  0  0
    1.9023   -2.4705   -4.7964 C   0  0  0  0  0  0  0  0  0  0  0  0
    2.1162   -0.3659   -4.6889 H   0  0  0  0  0  0  0  0  0  0  0  0
    2.8893   -2.9155   -4.6019 H   0  0  0  0  0  0  0  0  0  0  0  0
    1.1179   -3.1288   -4.3947 H   0  0  0  0  0  0  0  0  0  0  0  0
    1.7612   -2.3515   -5.8808 H   0  0  0  0  0  0  0  0  0  0  0  0
  1  3  1  0  0  0  0
  1  7  1  0  0  0  0
  1  2  2  0  0  0  0
 37 38  1  0  0  0  0
 38 46  1  0  0  0  0
 38 39  2  0  0  0  0
  8  9  1  0  0  0  0
  9 17  1  0  0  0  0
  9 10  2  0  0  0  0
 18 19  1  0  0  0  0
 19 36  1  0  0  0  0
 19 20  2  0  0  0  0
 22 24  1  0  0  0  0
 37 40  1  0  0  0  0
  8 11  1  0  0  0  0
 21 23  1  0  0  0  0
 46 47  1  0  0  0  0
 21 22  1  0  0  0  0
 36 37  1  0  0  0  0
  7  8  1  0  0  0  0
 18 21  1  0  0  0  0
 17 18  1  0  0  0  0
  3  4  1  0  0  0  0
  3  5  1  0  0  0  0
  3  6  1  0  0  0  0
 24 33  1  0  0  0  0
 24 34  1  0  0  0  0
 24 35  1  0  0  0  0
 40 43  1  0  0  0  0
 40 44  1  0  0  0  0
 40 45  1  0  0  0  0
 11 14  1  0  0  0  0
 11 15  1  0  0  0  0
 11 16  1  0  0  0  0
 23 30  1  0  0  0  0
 23 31  1  0  0  0  0
 23 32  1  0  0  0  0
 47 49  1  0  0  0  0
 47 50  1  0  0  0  0
 47 51  1  0  0  0  0
 22 28  1  0  0  0  0
 22 29  1  0  0  0  0
 37 42  1  0  0  0  0
  8 13  1  0  0  0  0
 18 26  1  0  0  0  0
 21 27  1  0  0  0  0
 46 48  1  0  0  0  0
  7 12  1  0  0  0  0
 36 41  1  0  0  0  0
 17 25  1  0  0  0  0
M  END
$$$$

  -OEChem-05262214473D

 51 50  0     1  0  0  0  0  0999 V2000
    1.3524   -3.0009    1.4091 C   0  0  0  0  0  0  0  0  0  0  0  0
    1.8758   -1.9880    0.9598 O   0  0  0  0  0  0  0  0  0  0  0  0
    2.2030   -4.1782    1.7536 C   0  0  0  0  0  0  0  0  0  0  0  0
    2.3264   -4.8705    0.9053 H   0  0  0  0  0  0  0  0  0  0  0  0
    3.2257   -3.8876    2.0432 H   0  0  0  0  0  0  0  0  0  0  0  0
    1.8327   -4.8004    2.5839 H   0  0  0  0  0  0  0  0  0  0  0  0
    0.0005   -3.1873    1.6465 N   0  0  0  0  0  0  0  0  0  0  0  0
   -0.9949   -2.1807    1.3864 C   0  0  2  0  0  0  0  0  0  0  0  0
   -0.3083   -0.8216    1.4164 C   0  0  0  0  0  0  0  0  0  0  0  0
    0.7533   -0.6191    2.0022 O   0  0  0  0  0  0  0  0  0  0  0  0
   -2.1232   -2.2423    2.4042 C   0  0  0  0  0  0  0  0  0  0  0  0
   -0.3048   -4.0823    2.0245 H   0  0  0  0  0  0  0  0  0  0  0  0
   -1.3830   -2.3724    0.3801 H   0  0  0  0  0  0  0  0  0  0  0  0
   -1.7534   -2.0527    3.4185 H   0  0  0  0  0  0  0  0  0  0  0  0
   -2.8936   -1.4947    2.1882 H   0  0  0  0  0  0  0  0  0  0  0  0
   -2.5964   -3.2301    2.4022 H   0  0  0  0  0  0  0  0  0  0  0  0
   -1.0412    0.1517    0.7482 N   0  0  0  0  0  0  0  0  0  0  0  0
   -0.6079    1.5223    0.6467 C   0  0  2  0  0  0  0  0  0  0  0  0
    0.5245    1.5892   -0.3771 C   0  0  0  0  0  0  0  0  0  0  0  0
    1.5712    2.2020   -0.1761 O   0  0  0  0  0  0  0  0  0  0  0  0
   -0.2088    2.1327    2.0119 C   0  0  2  0  0  0  0  0  0  0  0  0
   -1.3986    2.1933    2.9954 C   0  0  0  0  0  0  0  0  0  0  0  0
    0.4272    3.5141    1.8073 C   0  0  0  0  0  0  0  0  0  0  0  0
   -0.9899    2.5365    4.4222 C   0  0  0  0  0  0  0  0  0  0  0  0
   -1.9022   -0.1128    0.2753 H   0  0  0  0  0  0  0  0  0  0  0  0
   -1.4587    2.0758    0.2292 H   0  0  0  0  0  0  0  0  0  0  0  0
    0.5603    1.4886    2.4587 H   0  0  0  0  0  0  0  0  0  0  0  0
   -2.1123    2.9555    2.6620 H   0  0  0  0  0  0  0  0  0  0  0  0
   -1.9363    1.2377    3.0044 H   0  0  0  0  0  0  0  0  0  0  0  0
   -0.2906    4.2110    1.3616 H   0  0  0  0  0  0  0  0  0  0  0  0
    0.7460    3.9485    2.7598 H   0  0  0  0  0  0  0  0  0  0  0  0
    1.3016    3.4604    1.1506 H   0  0  0  0  0  0  0  0  0  0  0  0
   -0.2739    1.8126    4.8214 H   0  0  0  0  0  0  0  0  0  0  0  0
   -1.8682    2.5248    5.0760 H   0  0  0  0  0  0  0  0  0  0  0  0
   -0.5433    3.5343    4.4743 H   0  0  0  0  0  0  0  0  0  0  0  0
    0.2395    0.8585   -1.5218 N   0  0  0  0  0  0  0  0  0  0  0  0
    1.1528    0.7414   -2.6357 C   0  0  2  0  0  0  0  0  0  0  0  0
    0.8613   -0.5735   -3.3467 C   0  0  0  0  0  0  0  0  0  0  0  0
    0.3008   -1.5214   -2.8006 O   0  0  0  0  0  0  0  0  0  0  0  0
    2.6003    0.7998   -2.1729 C   0  0  0  0  0  0  0  0  0  0  0  0
   -0.6557    0.3821   -1.5797 H   0  0  0  0  0  0  0  0  0  0  0  0
    0.9379    1.5774   -3.3101 H   0  0  0  0  0  0  0  0  0  0  0  0
    2.8344   -0.0301   -1.4962 H   0  0  0  0  0  0  0  0  0  0  0  0
    3.2906    0.7397   -3.0207 H   0  0  0  0  0  0  0  0  0  0  0  0
    2.8003    1.7332   -1.6357 H   0  0  0  0  0  0  0  0  0  0  0  0
    1.3393   -0.5794   -4.6496 N   0  0  0  0  0  0  0  0  0  0  0  0
    1.1973   -1.7178   -5.5270 C   0  0  0  0  0  0  0  0  0  0  0  0
    1.7747    0.2576   -5.0259 H   0  0  0  0  0  0  0  0  0  0  0  0
    2.0904   -2.3552   -5.4489 H   0  0  0  0  0  0  0  0  0  0  0  0
    0.3079   -2.2960   -5.2362 H   0  0  0  0  0  0  0  0  0  0  0  0
    1.0852   -1.3694   -6.5643 H   0  0  0  0  0  0  0  0  0  0  0  0
  1  3  1  0  0  0  0
  1  7  1  0  0  0  0
  1  2  2  0  0  0  0
 37 38  1  0  0  0  0
 38 46  1  0  0  0  0
 38 39  2  0  0  0  0
  8  9  1  0  0  0  0
  9 17  1  0  0  0  0
  9 10  2  0  0  0  0
 18 19  1  0  0  0  0
 19 36  1  0  0  0  0
 19 20  2  0  0  0  0
 22 24  1  0  0  0  0
 37 40  1  0  0  0  0
  8 11  1  0  0  0  0
 21 23  1  0  0  0  0
 46 47  1  0  0  0  0
 21 22  1  0  0  0  0
 36 37  1  0  0  0  0
  7  8  1  0  0  0  0
 18 21  1  0  0  0  0
 17 18  1  0  0  0  0
  3  4  1  0  0  0  0
  3  5  1  0  0  0  0
  3  6  1  0  0  0  0
 24 33  1  0  0  0  0
 24 34  1  0  0  0  0
 24 35  1  0  0  0  0
 40 43  1  0  0  0  0
 40 44  1  0  0  0  0
 40 45  1  0  0  0  0
 11 14  1  0  0  0  0
 11 15  1  0  0  0  0
 11 16  1  0  0  0  0
 23 30  1  0  0  0  0
 23 31  1  0  0  0  0
 23 32  1  0  0  0  0
 47 49  1  0  0  0  0
 47 50  1  0  0  0  0
 47 51  1  0  0  0  0
 22 28  1  0  0  0  0
 22 29  1  0  0  0  0
 37 42  1  0  0  0  0
  8 13  1  0  0  0  0
 18 26  1  0  0  0  0
 21 27  1  0  0  0  0
 46 48  1  0  0  0  0
  7 12  1  0  0  0  0
 36 41  1  0  0  0  0
 17 25  1  0  0  0  0
M  END
$$$$

  -OEChem-05262214473D

 51 50  0     1  0  0  0  0  0999 V2000
    1.3524   -3.0009    1.4091 C   0  0  0  0  0  0  0  0  0  0  0  0
    1.8758   -1.9880    0.9598 O   0  0  0  0  0  0  0  0  0  0  0  0
    2.2030   -4.1782    1.7536 C   0  0  0  0  0  0  0  0  0  0  0  0
    2.3264   -4.8705    0.9053 H   0  0  0  0  0  0  0  0  0  0  0  0
    3.2257   -3.8876    2.0432 H   0  0  0  0  0  0  0  0  0  0  0  0
    1.8327   -4.8004    2.5839 H   0  0  0  0  0  0  0  0  0  0  0  0
    0.0005   -3.1873    1.6465 N   0  0  0  0  0  0  0  0  0  0  0  0
   -0.9949   -2.1807    1.3864 C   0  0  2  0  0  0  0  0  0  0  0  0
   -0.3083   -0.8216    1.4164 C   0  0  0  0  0  0  0  0  0  0  0  0
    0.7533   -0.6191    2.0022 O   0  0  0  0  0  0  0  0  0  0  0  0
   -2.1232   -2.2423    2.4042 C   0  0  0  0  0  0  0  0  0  0  0  0
   -0.3048   -4.0823    2.0245 H   0  0  0  0  0  0  0  0  0  0  0  0
   -1.3830   -2.3724    0.3801 H   0  0  0  0  0  0  0  0  0  0  0  0
   -1.7534   -2.0527    3.4185 H   0  0  0  0  0  0  0  0  0  0  0  0
   -2.8936   -1.4947    2.1882 H   0  0  0  0  0  0  0  0  0  0  0  0
   -2.5964   -3.2301    2.4022 H   0  0  0  0  0  0  0  0  0  0  0  0
   -1.0412    0.1517    0.7482 N   0  0  0  0  0  0  0  0  0  0  0  0
   -0.6079    1.5223    0.6467 C   0  0  2  0  0  0  0  0  0  0  0  0
    0.5245    1.5892   -0.3771 C   0  0  0  0  0  0  0  0  0  0  0  0
    1.6609    1.9621   -0.0925 O   0  0  0  0  0  0  0  0  0  0  0  0
   -0.2088    2.1327    2.0119 C   0  0  2  0  0  0  0  0  0  0  0  0
   -1.3986    2.1933    2.9954 C   0  0  0  0  0  0  0  0  0  0  0  0
    0.4272    3.5141    1.8073 C   0  0  0  0  0  0  0  0  0  0  0  0
   -0.9899    2.5365    4.4222 C   0  0  0  0  0  0  0  0  0  0  0  0
   -1.9022   -0.1128    0.2753 H   0  0  0  0  0  0  0  0  0  0  0  0
   -1.4587    2.0758    0.2292 H   0  0  0  0  0  0  0  0  0  0  0  0
    0.5603    1.4886    2.4587 H   0  0  0  0  0  0  0  0  0  0  0  0
   -2.1123    2.9555    2.6620 H   0  0  0  0  0  0  0  0  0  0  0  0
   -1.9363    1.2377    3.0044 H   0  0  0  0  0  0  0  0  0  0  0  0
   -0.2906    4.2110    1.3616 H   0  0  0  0  0  0  0  0  0  0  0  0
    0.7460    3.9485    2.7598 H   0  0  0  0  0  0  0  0  0  0  0  0
    1.3016    3.4604    1.1506 H   0  0  0  0  0  0  0  0  0  0  0  0
   -0.2739    1.8126    4.8214 H   0  0  0  0  0  0  0  0  0  0  0  0
   -1.8682    2.5248    5.0760 H   0  0  0  0  0  0  0  0  0  0  0  0
   -0.5433    3.5343    4.4743 H   0  0  0  0  0  0  0  0  0  0  0  0
    0.1227    1.1531   -1.6317 N   0  0  0  0  0  0  0  0  0  0  0  0
    1.0078    1.0974   -2.7728 C   0  0  2  0  0  0  0  0  0  0  0  0
    0.4953    0.0146   -3.7131 C   0  0  0  0  0  0  0  0  0  0  0  0
   -0.2251   -0.9099   -3.3422 O   0  0  0  0  0  0  0  0  0  0  0  0
    2.4407    0.8152   -2.3484 C   0  0  0  0  0  0  0  0  0  0  0  0
   -0.8415    0.8584   -1.7541 H   0  0  0  0  0  0  0  0  0  0  0  0
    0.9458    2.0721   -3.2690 H   0  0  0  0  0  0  0  0  0  0  0  0
    2.5225   -0.1572   -1.8494 H   0  0  0  0  0  0  0  0  0  0  0  0
    3.1147    0.8017   -3.2113 H   0  0  0  0  0  0  0  0  0  0  0  0
    2.7975    1.5789   -1.6489 H   0  0  0  0  0  0  0  0  0  0  0  0
    0.9722    0.1777   -5.0062 N   0  0  0  0  0  0  0  0  0  0  0  0
    0.6386   -0.7284   -6.0803 C   0  0  0  0  0  0  0  0  0  0  0  0
    1.5490    0.9838   -5.2280 H   0  0  0  0  0  0  0  0  0  0  0  0
    1.4063   -1.5130   -6.1505 H   0  0  0  0  0  0  0  0  0  0  0  0
   -0.3397   -1.1897   -5.8802 H   0  0  0  0  0  0  0  0  0  0  0  0
    0.5948   -0.1725   -7.0285 H   0  0  0  0  0  0  0  0  0  0  0  0
  1  3  1  0  0  0  0
  1  7  1  0  0  0  0
  1  2  2  0  0  0  0
 37 38  1  0  0  0  0
 38 46  1  0  0  0  0
 38 39  2  0  0  0  0
  8  9  1  0  0  0  0
  9 17  1  0  0  0  0
  9 10  2  0  0  0  0
 18 19  1  0  0  0  0
 19 36  1  0  0  0  0
 19 20  2  0  0  0  0
 22 24  1  0  0  0  0
 37 40  1  0  0  0  0
  8 11  1  0  0  0  0
 21 23  1  0  0  0  0
 46 47  1  0  0  0  0
 21 22  1  0  0  0  0
 36 37  1  0  0  0  0
  7  8  1  0  0  0  0
 18 21  1  0  0  0  0
 17 18  1  0  0  0  0
  3  4  1  0  0  0  0
  3  5  1  0  0  0  0
  3  6  1  0  0  0  0
 24 33  1  0  0  0  0
 24 34  1  0  0  0  0
 24 35  1  0  0  0  0
 40 43  1  0  0  0  0
 40 44  1  0  0  0  0
 40 45  1  0  0  0  0
 11 14  1  0  0  0  0
 11 15  1  0  0  0  0
 11 16  1  0  0  0  0
 23 30  1  0  0  0  0
 23 31  1  0  0  0  0
 23 32  1  0  0  0  0
 47 49  1  0  0  0  0
 47 50  1  0  0  0  0
 47 51  1  0  0  0  0
 22 28  1  0  0  0  0
 22 29  1  0  0  0  0
 37 42  1  0  0  0  0
  8 13  1  0  0  0  0
 18 26  1  0  0  0  0
 21 27  1  0  0  0  0
 46 48  1  0  0  0  0
  7 12  1  0  0  0  0
 36 41  1  0  0  0  0
 17 25  1  0  0  0  0
M  END
$$$$

  -OEChem-05262214473D

 51 50  0     1  0  0  0  0  0999 V2000
    1.3524   -3.0009    1.4091 C   0  0  0  0  0  0  0  0  0  0  0  0
    1.8758   -1.9880    0.9598 O   0  0  0  0  0  0  0  0  0  0  0  0
    2.2030   -4.1782    1.7536 C   0  0  0  0  0  0  0  0  0  0  0  0
    2.3264   -4.8705    0.9053 H   0  0  0  0  0  0  0  0  0  0  0  0
    3.2257   -3.8876    2.0432 H   0  0  0  0  0  0  0  0  0  0  0  0
    1.8327   -4.8004    2.5839 H   0  0  0  0  0  0  0  0  0  0  0  0
    0.0005   -3.1873    1.6465 N   0  0  0  0  0  0  0  0  0  0  0  0
   -0.9949   -2.1807    1.3864 C   0  0  2  0  0  0  0  0  0  0  0  0
   -0.3083   -0.8216    1.4164 C   0  0  0  0  0  0  0  0  0  0  0  0
    0.7533   -0.6191    2.0022 O   0  0  0  0  0  0  0  0  0  0  0  0
   -2.1232   -2.2423    2.4042 C   0  0  0  0  0  0  0  0  0  0  0  0
   -0.3048   -4.0823    2.0245 H   0  0  0  0  0  0  0  0  0  0  0  0
   -1.3830   -2.3724    0.3801 H   0  0  0  0  0  0  0  0  0  0  0  0
   -1.7534   -2.0527    3.4185 H   0  0  0  0  0  0  0  0  0  0  0  0
   -2.8936   -1.4947    2.1882 H   0  0  0  0  0  0  0  0  0  0  0  0
   -2.5964   -3.2301    2.4022 H   0  0  0  0  0  0  0  0  0  0  0  0
   -1.0412    0.1517    0.7482 N   0  0  0  0  0  0  0  0  0  0  0  0
   -0.6079    1.5223    0.6467 C   0  0  2  0  0  0  0  0  0  0  0  0
    0.5245    1.5892   -0.3771 C   0  0  0  0  0  0  0  0  0  0  0  0
    1.7069    1.6987   -0.0588 O   0  0  0  0  0  0  0  0  0  0  0  0
   -0.2088    2.1327    2.0119 C   0  0  2  0  0  0  0  0  0  0  0  0
   -1.3986    2.1933    2.9954 C   0  0  0  0  0  0  0  0  0  0  0  0
    0.4272    3.5141    1.8073 C   0  0  0  0  0  0  0  0  0  0  0  0
   -0.9899    2.5365    4.4222 C   0  0  0  0  0  0  0  0  0  0  0  0
   -1.9022   -0.1128    0.2753 H   0  0  0  0  0  0  0  0  0  0  0  0
   -1.4587    2.0758    0.2292 H   0  0  0  0  0  0  0  0  0  0  0  0
    0.5603    1.4886    2.4587 H   0  0  0  0  0  0  0  0  0  0  0  0
   -2.1123    2.9555    2.6620 H   0  0  0  0  0  0  0  0  0  0  0  0
   -1.9363    1.2377    3.0044 H   0  0  0  0  0  0  0  0  0  0  0  0
   -0.2906    4.2110    1.3616 H   0  0  0  0  0  0  0  0  0  0  0  0
    0.7460    3.9485    2.7598 H   0  0  0  0  0  0  0  0  0  0  0  0
    1.3016    3.4604    1.1506 H   0  0  0  0  0  0  0  0  0  0  0  0
   -0.2739    1.8126    4.8214 H   0  0  0  0  0  0  0  0  0  0  0  0
   -1.8682    2.5248    5.0760 H   0  0  0  0  0  0  0  0  0  0  0  0
   -0.5433    3.5343    4.4743 H   0  0  0  0  0  0  0  0  0  0  0  0
    0.0598    1.4791   -1.6800 N   0  0  0  0  0  0  0  0  0  0  0  0
    0.9279    1.4928   -2.8353 C   0  0  2  0  0  0  0  0  0  0  0  0
    0.2396    0.7163   -3.9501 C   0  0  0  0  0  0  0  0  0  0  0  0
   -0.6332   -0.1240   -3.7422 O   0  0  0  0  0  0  0  0  0  0  0  0
    2.2872    0.8915   -2.5132 C   0  0  0  0  0  0  0  0  0  0  0  0
   -0.9404    1.3841   -1.8291 H   0  0  0  0  0  0  0  0  0  0  0  0
    1.0398    2.5406   -3.1344 H   0  0  0  0  0  0  0  0  0  0  0  0
    2.1953   -0.1583   -2.2114 H   0  0  0  0  0  0  0  0  0  0  0  0
    2.9532    0.9286   -3.3815 H   0  0  0  0  0  0  0  0  0  0  0  0
    2.7679    1.4328   -1.6912 H   0  0  0  0  0  0  0  0  0  0  0  0
    0.7448    1.0411   -5.2012 N   0  0  0  0  0  0  0  0  0  0  0  0
    0.2642    0.4303   -6.4186 C   0  0  0  0  0  0  0  0  0  0  0  0
    1.4547    1.7631   -5.2814 H   0  0  0  0  0  0  0  0  0  0  0  0
    0.8836   -0.4464   -6.6589 H   0  0  0  0  0  0  0  0  0  0  0  0
   -0.7807    0.1147   -6.2826 H   0  0  0  0  0  0  0  0  0  0  0  0
    0.3234    1.1577   -7.2417 H   0  0  0  0  0  0  0  0  0  0  0  0
  1  3  1  0  0  0  0
  1  7  1  0  0  0  0
  1  2  2  0  0  0  0
 37 38  1  0  0  0  0
 38 46  1  0  0  0  0
 38 39  2  0  0  0  0
  8  9  1  0  0  0  0
  9 17  1  0  0  0  0
  9 10  2  0  0  0  0
 18 19  1  0  0  0  0
 19 36  1  0  0  0  0
 19 20  2  0  0  0  0
 22 24  1  0  0  0  0
 37 40  1  0  0  0  0
  8 11  1  0  0  0  0
 21 23  1  0  0  0  0
 46 47  1  0  0  0  0
 21 22  1  0  0  0  0
 36 37  1  0  0  0  0
  7  8  1  0  0  0  0
 18 21  1  0  0  0  0
 17 18  1  0  0  0  0
  3  4  1  0  0  0  0
  3  5  1  0  0  0  0
  3  6  1  0  0  0  0
 24 33  1  0  0  0  0
 24 34  1  0  0  0  0
 24 35  1  0  0  0  0
 40 43  1  0  0  0  0
 40 44  1  0  0  0  0
 40 45  1  0  0  0  0
 11 14  1  0  0  0  0
 11 15  1  0  0  0  0
 11 16  1  0  0  0  0
 23 30  1  0  0  0  0
 23 31  1  0  0  0  0
 23 32  1  0  0  0  0
 47 49  1  0  0  0  0
 47 50  1  0  0  0  0
 47 51  1  0  0  0  0
 22 28  1  0  0  0  0
 22 29  1  0  0  0  0
 37 42  1  0  0  0  0
  8 13  1  0  0  0  0
 18 26  1  0  0  0  0
 21 27  1  0  0  0  0
 46 48  1  0  0  0  0
  7 12  1  0  0  0  0
 36 41  1  0  0  0  0
 17 25  1  0  0  0  0
M  END
$$$$

  -OEChem-05262214473D

 51 50  0     1  0  0  0  0  0999 V2000
    1.3524   -3.0009    1.4091 C   0  0  0  0  0  0  0  0  0  0  0  0
    1.8758   -1.9880    0.9598 O   0  0  0  0  0  0  0  0  0  0  0  0
    2.2030   -4.1782    1.7536 C   0  0  0  0  0  0  0  0  0  0  0  0
    2.3264   -4.8705    0.9053 H   0  0  0  0  0  0  0  0  0  0  0  0
    3.2257   -3.8876    2.0432 H   0  0  0  0  0  0  0  0  0  0  0  0
    1.8327   -4.8004    2.5839 H   0  0  0  0  0  0  0  0  0  0  0  0
    0.0005   -3.1873    1.6465 N   0  0  0  0  0  0  0  0  0  0  0  0
   -0.9949   -2.1807    1.3864 C   0  0  2  0  0  0  0  0  0  0  0  0
   -0.3083   -0.8216    1.4164 C   0  0  0  0  0  0  0  0  0  0  0  0
    0.7533   -0.6191    2.0022 O   0  0  0  0  0  0  0  0  0  0  0  0
   -2.1232   -2.2423    2.4042 C   0  0  0  0  0  0  0  0  0  0  0  0
   -0.3048   -4.0823    2.0245 H   0  0  0  0  0  0  0  0  0  0  0  0
   -1.3830   -2.3724    0.3801 H   0  0  0  0  0  0  0  0  0  0  0  0
   -1.7534   -2.0527    3.4185 H   0  0  0  0  0  0  0  0  0  0  0  0
   -2.8936   -1.4947    2.1882 H   0  0  0  0  0  0  0  0  0  0  0  0
   -2.5964   -3.2301    2.4022 H   0  0  0  0  0  0  0  0  0  0  0  0
   -1.0412    0.1517    0.7482 N   0  0  0  0  0  0  0  0  0  0  0  0
   -0.6079    1.5223    0.6467 C   0  0  2  0  0  0  0  0  0  0  0  0
    0.5245    1.5892   -0.3771 C   0  0  0  0  0  0  0  0  0  0  0  0
    1.7061    1.4299   -0.0773 O   0  0  0  0  0  0  0  0  0  0  0  0
   -0.2088    2.1327    2.0119 C   0  0  2  0  0  0  0  0  0  0  0  0
   -1.3986    2.1933    2.9954 C   0  0  0  0  0  0  0  0  0  0  0  0
    0.4272    3.5141    1.8073 C   0  0  0  0  0  0  0  0  0  0  0  0
   -0.9899    2.5365    4.4222 C   0  0  0  0  0  0  0  0  0  0  0  0
   -1.9022   -0.1128    0.2753 H   0  0  0  0  0  0  0  0  0  0  0  0
   -1.4587    2.0758    0.2292 H   0  0  0  0  0  0  0  0  0  0  0  0
    0.5603    1.4886    2.4587 H   0  0  0  0  0  0  0  0  0  0  0  0
   -2.1123    2.9555    2.6620 H   0  0  0  0  0  0  0  0  0  0  0  0
   -1.9363    1.2377    3.0044 H   0  0  0  0  0  0  0  0  0  0  0  0
   -0.2906    4.2110    1.3616 H   0  0  0  0  0  0  0  0  0  0  0  0
    0.7460    3.9485    2.7598 H   0  0  0  0  0  0  0  0  0  0  0  0
    1.3016    3.4604    1.1506 H   0  0  0  0  0  0  0  0  0  0  0  0
   -0.2739    1.8126    4.8214 H   0  0  0  0  0  0  0  0  0  0  0  0
   -1.8682    2.5248    5.0760 H   0  0  0  0  0  0  0  0  0  0  0  0
   -0.5433    3.5343    4.4743 H   0  0  0  0  0  0  0  0  0  0  0  0
    0.0550    1.8141   -1.6634 N   0  0  0  0  0  0  0  0  0  0  0  0
    0.9186    1.9005   -2.8189 C   0  0  2  0  0  0  0  0  0  0  0  0
    0.1115    1.4840   -4.0415 C   0  0  0  0  0  0  0  0  0  0  0  0
   -0.8956    0.7825   -3.9732 O   0  0  0  0  0  0  0  0  0  0  0  0
    2.1502    1.0233   -2.6560 C   0  0  0  0  0  0  0  0  0  0  0  0
   -0.9456    1.9234   -1.7996 H   0  0  0  0  0  0  0  0  0  0  0  0
    1.2133    2.9511   -2.9157 H   0  0  0  0  0  0  0  0  0  0  0  0
    1.8749   -0.0331   -2.5576 H   0  0  0  0  0  0  0  0  0  0  0  0
    2.8174    1.1118   -3.5198 H   0  0  0  0  0  0  0  0  0  0  0  0
    2.7135    1.3049   -1.7598 H   0  0  0  0  0  0  0  0  0  0  0  0
    0.6727    1.9518   -5.2215 N   0  0  0  0  0  0  0  0  0  0  0  0
    0.0997    1.6794   -6.5189 C   0  0  0  0  0  0  0  0  0  0  0  0
    1.4982    2.5425   -5.1824 H   0  0  0  0  0  0  0  0  0  0  0  0
    0.5579    0.7721   -6.9395 H   0  0  0  0  0  0  0  0  0  0  0  0
   -0.9850    1.5283   -6.4162 H   0  0  0  0  0  0  0  0  0  0  0  0
    0.2895    2.5305   -7.1895 H   0  0  0  0  0  0  0  0  0  0  0  0
  1  3  1  0  0  0  0
  1  7  1  0  0  0  0
  1  2  2  0  0  0  0
 37 38  1  0  0  0  0
 38 46  1  0  0  0  0
 38 39  2  0  0  0  0
  8  9  1  0  0  0  0
  9 17  1  0  0  0  0
  9 10  2  0  0  0  0
 18 19  1  0  0  0  0
 19 36  1  0  0  0  0
 19 20  2  0  0  0  0
 22 24  1  0  0  0  0
 37 40  1  0  0  0  0
  8 11  1  0  0  0  0
 21 23  1  0  0  0  0
 46 47  1  0  0  0  0
 21 22  1  0  0  0  0
 36 37  1  0  0  0  0
  7  8  1  0  0  0  0
 18 21  1  0  0  0  0
 17 18  1  0  0  0  0
  3  4  1  0  0  0  0
  3  5  1  0  0  0  0
  3  6  1  0  0  0  0
 24 33  1  0  0  0  0
 24 34  1  0  0  0  0
 24 35  1  0  0  0  0
 40 43  1  0  0  0  0
 40 44  1  0  0  0  0
 40 45  1  0  0  0  0
 11 14  1  0  0  0  0
 11 15  1  0  0  0  0
 11 16  1  0  0  0  0
 23 30  1  0  0  0  0
 23 31  1  0  0  0  0
 23 32  1  0  0  0  0
 47 49  1  0  0  0  0
 47 50  1  0  0  0  0
 47 51  1  0  0  0  0
 22 28  1  0  0  0  0
 22 29  1  0  0  0  0
 37 42  1  0  0  0  0
  8 13  1  0  0  0  0
 18 26  1  0  0  0  0
 21 27  1  0  0  0  0
 46 48  1  0  0  0  0
  7 12  1  0  0  0  0
 36 41  1  0  0  0  0
 17 25  1  0  0  0  0
M  END
$$$$

  -OEChem-05262214473D

 51 50  0     1  0  0  0  0  0999 V2000
    1.3524   -3.0009    1.4091 C   0  0  0  0  0  0  0  0  0  0  0  0
    1.8758   -1.9880    0.9598 O   0  0  0  0  0  0  0  0  0  0  0  0
    2.2030   -4.1782    1.7536 C   0  0  0  0  0  0  0  0  0  0  0  0
    2.3264   -4.8705    0.9053 H   0  0  0  0  0  0  0  0  0  0  0  0
    3.2257   -3.8876    2.0432 H   0  0  0  0  0  0  0  0  0  0  0  0
    1.8327   -4.8004    2.5839 H   0  0  0  0  0  0  0  0  0  0  0  0
    0.0005   -3.1873    1.6465 N   0  0  0  0  0  0  0  0  0  0  0  0
   -0.9949   -2.1807    1.3864 C   0  0  2  0  0  0  0  0  0  0  0  0
   -0.3083   -0.8216    1.4164 C   0  0  0  0  0  0  0  0  0  0  0  0
    0.7533   -0.6191    2.0022 O   0  0  0  0  0  0  0  0  0  0  0  0
   -2.1232   -2.2423    2.4042 C   0  0  0  0  0  0  0  0  0  0  0  0
   -0.3048   -4.0823    2.0245 H   0  0  0  0  0  0  0  0  0  0  0  0
   -1.3830   -2.3724    0.3801 H   0  0  0  0  0  0  0  0  0  0  0  0
   -1.7534   -2.0527    3.4185 H   0  0  0  0  0  0  0  0  0  0  0  0
   -2.8936   -1.4947    2.1882 H   0  0  0  0  0  0  0  0  0  0  0  0
   -2.5964   -3.2301    2.4022 H   0  0  0  0  0  0  0  0  0  0  0  0
   -1.0412    0.1517    0.7482 N   0  0  0  0  0  0  0  0  0  0  0  0
   -0.6079    1.5223    0.6467 C   0  0  2  0  0  0  0  0  0  0  0  0
    0.5245    1.5892   -0.3771 C   0  0  0  0  0  0  0  0  0  0  0  0
    1.6585    1.1739   -0.1467 O   0  0  0  0  0  0  0  0  0  0  0  0
   -0.2088    2.1327    2.0119 C   0  0  2  0  0  0  0  0  0  0  0  0
   -1.3986    2.1933    2.9954 C   0  0  0  0  0  0  0  0  0  0  0  0
    0.4272    3.5141    1.8073 C   0  0  0  0  0  0  0  0  0  0  0  0
   -0.9899    2.5365    4.4222 C   0  0  0  0  0  0  0  0  0  0  0  0
   -1.9022   -0.1128    0.2753 H   0  0  0  0  0  0  0  0  0  0  0  0
   -1.4587    2.0758    0.2292 H   0  0  0  0  0  0  0  0  0  0  0  0
    0.5603    1.4886    2.4587 H   0  0  0  0  0  0  0  0  0  0  0  0
   -2.1123    2.9555    2.6620 H   0  0  0  0  0  0  0  0  0  0  0  0
   -1.9363    1.2377    3.0044 H   0  0  0  0  0  0  0  0  0  0  0  0
   -0.2906    4.2110    1.3616 H   0  0  0  0  0  0  0  0  0  0  0  0
    0.7460    3.9485    2.7598 H   0  0  0  0  0  0  0  0  0  0  0  0
    1.3016    3.4604    1.1506 H   0  0  0  0  0  0  0  0  0  0  0  0
   -0.2739    1.8126    4.8214 H   0  0  0  0  0  0  0  0  0  0  0  0
   -1.8682    2.5248    5.0760 H   0  0  0  0  0  0  0  0  0  0  0  0
   -0.5433    3.5343    4.4743 H   0  0  0  0  0  0  0  0  0  0  0  0
    0.1086    2.1353   -1.5831 N   0  0  0  0  0  0  0  0  0  0  0  0
    0.9805    2.2927   -2.7248 C   0  0  2  0  0  0  0  0  0  0  0  0
    0.1200    2.2652   -3.9811 C   0  0  0  0  0  0  0  0  0  0  0  0
   -0.9945    1.7480   -4.0195 O   0  0  0  0  0  0  0  0  0  0  0  0
    2.0392    1.2018   -2.7672 C   0  0  0  0  0  0  0  0  0  0  0  0
   -0.8567    2.4396   -1.6676 H   0  0  0  0  0  0  0  0  0  0  0  0
    1.4546    3.2755   -2.6276 H   0  0  0  0  0  0  0  0  0  0  0  0
    1.5832    0.2098   -2.8643 H   0  0  0  0  0  0  0  0  0  0  0  0
    2.7164    1.3389   -3.6166 H   0  0  0  0  0  0  0  0  0  0  0  0
    2.6379    1.2040   -1.8499 H   0  0  0  0  0  0  0  0  0  0  0  0
    0.7607    2.8480   -5.0655 N   0  0  0  0  0  0  0  0  0  0  0  0
    0.1563    2.9337   -6.3744 C   0  0  0  0  0  0  0  0  0  0  0  0
    1.6764    3.2688   -4.9378 H   0  0  0  0  0  0  0  0  0  0  0  0
    0.4515    2.0594   -6.9731 H   0  0  0  0  0  0  0  0  0  0  0  0
   -0.9387    2.9548   -6.2718 H   0  0  0  0  0  0  0  0  0  0  0  0
    0.4954    3.8524   -6.8753 H   0  0  0  0  0  0  0  0  0  0  0  0
  1  3  1  0  0  0  0
  1  7  1  0  0  0  0
  1  2  2  0  0  0  0
 37 38  1  0  0  0  0
 38 46  1  0  0  0  0
 38 39  2  0  0  0  0
  8  9  1  0  0  0  0
  9 17  1  0  0  0  0
  9 10  2  0  0  0  0
 18 19  1  0  0  0  0
 19 36  1  0  0  0  0
 19 20  2  0  0  0  0
 22 24  1  0  0  0  0
 37 40  1  0  0  0  0
  8 11  1  0  0  0  0
 21 23  1  0  0  0  0
 46 47  1  0  0  0  0
 21 22  1  0  0  0  0
 36 37  1  0  0  0  0
  7  8  1  0  0  0  0
 18 21  1  0  0  0  0
 17 18  1  0  0  0  0
  3  4  1  0  0  0  0
  3  5  1  0  0  0  0
  3  6  1  0  0  0  0
 24 33  1  0  0  0  0
 24 34  1  0  0  0  0
 24 35  1  0  0  0  0
 40 43  1  0  0  0  0
 40 44  1  0  0  0  0
 40 45  1  0  0  0  0
 11 14  1  0  0  0  0
 11 15  1  0  0  0  0
 11 16  1  0  0  0  0
 23 30  1  0  0  0  0
 23 31  1  0  0  0  0
 23 32  1  0  0  0  0
 47 49  1  0  0  0  0
 47 50  1  0  0  0  0
 47 51  1  0  0  0  0
 22 28  1  0  0  0  0
 22 29  1  0  0  0  0
 37 42  1  0  0  0  0
  8 13  1  0  0  0  0
 18 26  1  0  0  0  0
 21 27  1  0  0  0  0
 46 48  1  0  0  0  0
  7 12  1  0  0  0  0
 36 41  1  0  0  0  0
 17 25  1  0  0  0  0
M  END
$$$$

  -OEChem-05262214473D

 51 50  0     1  0  0  0  0  0999 V2000
    1.3524   -3.0009    1.4091 C   0  0  0  0  0  0  0  0  0  0  0  0
    1.8758   -1.9880    0.9598 O   0  0  0  0  0  0  0  0  0  0  0  0
    2.2030   -4.1782    1.7536 C   0  0  0  0  0  0  0  0  0  0  0  0
    2.3264   -4.8705    0.9053 H   0  0  0  0  0  0  0  0  0  0  0  0
    3.2257   -3.8876    2.0432 H   0  0  0  0  0  0  0  0  0  0  0  0
    1.8327   -4.8004    2.5839 H   0  0  0  0  0  0  0  0  0  0  0  0
    0.0005   -3.1873    1.6465 N   0  0  0  0  0  0  0  0  0  0  0  0
   -0.9949   -2.1807    1.3864 C   0  0  2  0  0  0  0  0  0  0  0  0
   -0.3083   -0.8216    1.4164 C   0  0  0  0  0  0  0  0  0  0  0  0
    0.7533   -0.6191    2.0022 O   0  0  0  0  0  0  0  0  0  0  0  0
   -2.1232   -2.2423    2.4042 C   0  0  0  0  0  0  0  0  0  0  0  0
   -0.3048   -4.0823    2.0245 H   0  0  0  0  0  0  0  0  0  0  0  0
   -1.3830   -2.3724    0.3801 H   0  0  0  0  0  0  0  0  0  0  0  0
   -1.7534   -2.0527    3.4185 H   0  0  0  0  0  0  0  0  0  0  0  0
   -2.8936   -1.4947    2.1882 H   0  0  0  0  0  0  0  0  0  0  0  0
   -2.5964   -3.2301    2.4022 H   0  0  0  0  0  0  0  0  0  0  0  0
   -1.0412    0.1517    0.7482 N   0  0  0  0  0  0  0  0  0  0  0  0
   -0.6079    1.5223    0.6467 C   0  0  2  0  0  0  0  0  0  0  0  0
    0.5245    1.5892   -0.3771 C   0  0  0  0  0  0  0  0  0  0  0  0
    1.5673    0.9482   -0.2623 O   0  0  0  0  0  0  0  0  0  0  0  0
   -0.2088    2.1327    2.0119 C   0  0  2  0  0  0  0  0  0  0  0  0
   -1.3986    2.1933    2.9954 C   0  0  0  0  0  0  0  0  0  0  0  0
    0.4272    3.5141    1.8073 C   0  0  0  0  0  0  0  0  0  0  0  0
   -0.9899    2.5365    4.4222 C   0  0  0  0  0  0  0  0  0  0  0  0
   -1.9022   -0.1128    0.2753 H   0  0  0  0  0  0  0  0  0  0  0  0
   -1.4587    2.0758    0.2292 H   0  0  0  0  0  0  0  0  0  0  0  0
    0.5603    1.4886    2.4587 H   0  0  0  0  0  0  0  0  0  0  0  0
   -2.1123    2.9555    2.6620 H   0  0  0  0  0  0  0  0  0  0  0  0
   -1.9363    1.2377    3.0044 H   0  0  0  0  0  0  0  0  0  0  0  0
   -0.2906    4.2110    1.3616 H   0  0  0  0  0  0  0  0  0  0  0  0
    0.7460    3.9485    2.7598 H   0  0  0  0  0  0  0  0  0  0  0  0
    1.3016    3.4604    1.1506 H   0  0  0  0  0  0  0  0  0  0  0  0
   -0.2739    1.8126    4.8214 H   0  0  0  0  0  0  0  0  0  0  0  0
   -1.8682    2.5248    5.0760 H   0  0  0  0  0  0  0  0  0  0  0  0
   -0.5433    3.5343    4.4743 H   0  0  0  0  0  0  0  0  0  0  0  0
    0.2171    2.4209   -1.4445 N   0  0  0  0  0  0  0  0  0  0  0  0
    1.1094    2.6429   -2.5594 C   0  0  2  0  0  0  0  0  0  0  0  0
    0.2643    3.0068   -3.7730 C   0  0  0  0  0  0  0  0  0  0  0  0
   -0.9231    2.7066   -3.8779 O   0  0  0  0  0  0  0  0  0  0  0  0
    1.9617    1.4148   -2.8390 C   0  0  0  0  0  0  0  0  0  0  0  0
   -0.6799    2.8975   -1.4421 H   0  0  0  0  0  0  0  0  0  0  0  0
    1.7471    3.4918   -2.2899 H   0  0  0  0  0  0  0  0  0  0  0  0
    1.3401    0.5539   -3.1107 H   0  0  0  0  0  0  0  0  0  0  0  0
    2.6572    1.5943   -3.6655 H   0  0  0  0  0  0  0  0  0  0  0  0
    2.5465    1.1369   -1.9555 H   0  0  0  0  0  0  0  0  0  0  0  0
    1.0030    3.6684   -4.7440 N   0  0  0  0  0  0  0  0  0  0  0  0
    0.4300    4.1077   -5.9949 C   0  0  0  0  0  0  0  0  0  0  0  0
    1.9773    3.8925   -4.5643 H   0  0  0  0  0  0  0  0  0  0  0  0
    0.5715    3.3277   -6.7575 H   0  0  0  0  0  0  0  0  0  0  0  0
   -0.6450    4.2970   -5.8592 H   0  0  0  0  0  0  0  0  0  0  0  0
    0.9271    5.0333   -6.3207 H   0  0  0  0  0  0  0  0  0  0  0  0
  1  3  1  0  0  0  0
  1  7  1  0  0  0  0
  1  2  2  0  0  0  0
 37 38  1  0  0  0  0
 38 46  1  0  0  0  0
 38 39  2  0  0  0  0
  8  9  1  0  0  0  0
  9 17  1  0  0  0  0
  9 10  2  0  0  0  0
 18 19  1  0  0  0  0
 19 36  1  0  0  0  0
 19 20  2  0  0  0  0
 22 24  1  0  0  0  0
 37 40  1  0  0  0  0
  8 11  1  0  0  0  0
 21 23  1  0  0  0  0
 46 47  1  0  0  0  0
 21 22  1  0  0  0  0
 36 37  1  0  0  0  0
  7  8  1  0  0  0  0
 18 21  1  0  0  0  0
 17 18  1  0  0  0  0
  3  4  1  0  0  0  0
  3  5  1  0  0  0  0
  3  6  1  0  0  0  0
 24 33  1  0  0  0  0
 24 34  1  0  0  0  0
 24 35  1  0  0  0  0
 40 43  1  0  0  0  0
 40 44  1  0  0  0  0
 40 45  1  0  0  0  0
 11 14  1  0  0  0  0
 11 15  1  0  0  0  0
 11 16  1  0  0  0  0
 23 30  1  0  0  0  0
 23 31  1  0  0  0  0
 23 32  1  0  0  0  0
 47 49  1  0  0  0  0
 47 50  1  0  0  0  0
 47 51  1  0  0  0  0
 22 28  1  0  0  0  0
 22 29  1  0  0  0  0
 37 42  1  0  0  0  0
  8 13  1  0  0  0  0
 18 26  1  0  0  0  0
 21 27  1  0  0  0  0
 46 48  1  0  0  0  0
  7 12  1  0  0  0  0
 36 41  1  0  0  0  0
 17 25  1  0  0  0  0
M  END
$$$$

  -OEChem-05262214473D

 51 50  0     1  0  0  0  0  0999 V2000
    1.3524   -3.0009    1.4091 C   0  0  0  0  0  0  0  0  0  0  0  0
    1.8758   -1.9880    0.9598 O   0  0  0  0  0  0  0  0  0  0  0  0
    2.2030   -4.1782    1.7536 C   0  0  0  0  0  0  0  0  0  0  0  0
    2.3264   -4.8705    0.9053 H   0  0  0  0  0  0  0  0  0  0  0  0
    3.2257   -3.8876    2.0432 H   0  0  0  0  0  0  0  0  0  0  0  0
    1.8327   -4.8004    2.5839 H   0  0  0  0  0  0  0  0  0  0  0  0
    0.0005   -3.1873    1.6465 N   0  0  0  0  0  0  0  0  0  0  0  0
   -0.9949   -2.1807    1.3864 C   0  0  2  0  0  0  0  0  0  0  0  0
   -0.3083   -0.8216    1.4164 C   0  0  0  0  0  0  0  0  0  0  0  0
    0.7533   -0.6191    2.0022 O   0  0  0  0  0  0  0  0  0  0  0  0
   -2.1232   -2.2423    2.4042 C   0  0  0  0  0  0  0  0  0  0  0  0
   -0.3048   -4.0823    2.0245 H   0  0  0  0  0  0  0  0  0  0  0  0
   -1.3830   -2.3724    0.3801 H   0  0  0  0  0  0  0  0  0  0  0  0
   -1.7534   -2.0527    3.4185 H   0  0  0  0  0  0  0  0  0  0  0  0
   -2.8936   -1.4947    2.1882 H   0  0  0  0  0  0  0  0  0  0  0  0
   -2.5964   -3.2301    2.4022 H   0  0  0  0  0  0  0  0  0  0  0  0
   -1.0412    0.1517    0.7482 N   0  0  0  0  0  0  0  0  0  0  0  0
   -0.6079    1.5223    0.6467 C   0  0  2  0  0  0  0  0  0  0  0  0
    0.5245    1.5892   -0.3771 C   0  0  0  0  0  0  0  0  0  0  0  0
    1.4387    0.7682   -0.4163 O   0  0  0  0  0  0  0  0  0  0  0  0
   -0.2088    2.1327    2.0119 C   0  0  2  0  0  0  0  0  0  0  0  0
   -1.3986    2.1933    2.9954 C   0  0  0  0  0  0  0  0  0  0  0  0
    0.4272    3.5141    1.8073 C   0  0  0  0  0  0  0  0  0  0  0  0
   -0.9899    2.5365    4.4222 C   0  0  0  0  0  0  0  0  0  0  0  0
   -1.9022   -0.1128    0.2753 H   0  0  0  0  0  0  0  0  0  0  0  0
   -1.4587    2.0758    0.2292 H   0  0  0  0  0  0  0  0  0  0  0  0
    0.5603    1.4886    2.4587 H   0  0  0  0  0  0  0  0  0  0  0  0
   -2.1123    2.9555    2.6620 H   0  0  0  0  0  0  0  0  0  0  0  0
   -1.9363    1.2377    3.0044 H   0  0  0  0  0  0  0  0  0  0  0  0
   -0.2906    4.2110    1.3616 H   0  0  0  0  0  0  0  0  0  0  0  0
    0.7460    3.9485    2.7598 H   0  0  0  0  0  0  0  0  0  0  0  0
    1.3016    3.4604    1.1506 H   0  0  0  0  0  0  0  0  0  0  0  0
   -0.2739    1.8126    4.8214 H   0  0  0  0  0  0  0  0  0  0  0  0
   -1.8682    2.5248    5.0760 H   0  0  0  0  0  0  0  0  0  0  0  0
   -0.5433    3.5343    4.4743 H   0  0  0  0  0  0  0  0  0  0  0  0
    0.3729    2.6514   -1.2571 N   0  0  0  0  0  0  0  0  0  0  0  0
    1.2965    2.9270   -2.3339 C   0  0  2  0  0  0  0  0  0  0  0  0
    0.5346    3.6581   -3.4314 C   0  0  0  0  0  0  0  0  0  0  0  0
   -0.6864    3.5930   -3.5581 O   0  0  0  0  0  0  0  0  0  0  0  0
    1.9229    1.6478   -2.8666 C   0  0  0  0  0  0  0  0  0  0  0  0
   -0.4272    3.2658   -1.1384 H   0  0  0  0  0  0  0  0  0  0  0  0
    2.0711    3.5853   -1.9255 H   0  0  0  0  0  0  0  0  0  0  0  0
    1.1621    0.9756   -3.2800 H   0  0  0  0  0  0  0  0  0  0  0  0
    2.6436    1.8607   -3.6630 H   0  0  0  0  0  0  0  0  0  0  0  0
    2.4453    1.1082   -2.0693 H   0  0  0  0  0  0  0  0  0  0  0  0
    1.3828    4.3572   -4.2788 N   0  0  0  0  0  0  0  0  0  0  0  0
    0.9024    5.1214   -5.4062 C   0  0  0  0  0  0  0  0  0  0  0  0
    2.3803    4.3711   -4.0872 H   0  0  0  0  0  0  0  0  0  0  0  0
    0.9098    4.4906   -6.3073 H   0  0  0  0  0  0  0  0  0  0  0  0
   -0.1239    5.4634   -5.2066 H   0  0  0  0  0  0  0  0  0  0  0  0
    1.5552    5.9927   -5.5633 H   0  0  0  0  0  0  0  0  0  0  0  0
  1  3  1  0  0  0  0
  1  7  1  0  0  0  0
  1  2  2  0  0  0  0
 37 38  1  0  0  0  0
 38 46  1  0  0  0  0
 38 39  2  0  0  0  0
  8  9  1  0  0  0  0
  9 17  1  0  0  0  0
  9 10  2  0  0  0  0
 18 19  1  0  0  0  0
 19 36  1  0  0  0  0
 19 20  2  0  0  0  0
 22 24  1  0  0  0  0
 37 40  1  0  0  0  0
  8 11  1  0  0  0  0
 21 23  1  0  0  0  0
 46 47  1  0  0  0  0
 21 22  1  0  0  0  0
 36 37  1  0  0  0  0
  7  8  1  0  0  0  0
 18 21  1  0  0  0  0
 17 18  1  0  0  0  0
  3  4  1  0  0  0  0
  3  5  1  0  0  0  0
  3  6  1  0  0  0  0
 24 33  1  0  0  0  0
 24 34  1  0  0  0  0
 24 35  1  0  0  0  0
 40 43  1  0  0  0  0
 40 44  1  0  0  0  0
 40 45  1  0  0  0  0
 11 14  1  0  0  0  0
 11 15  1  0  0  0  0
 11 16  1  0  0  0  0
 23 30  1  0  0  0  0
 23 31  1  0  0  0  0
 23 32  1  0  0  0  0
 47 49  1  0  0  0  0
 47 50  1  0  0  0  0
 47 51  1  0  0  0  0
 22 28  1  0  0  0  0
 22 29  1  0  0  0  0
 37 42  1  0  0  0  0
  8 13  1  0  0  0  0
 18 26  1  0  0  0  0
 21 27  1  0  0  0  0
 46 48  1  0  0  0  0
  7 12  1  0  0  0  0
 36 41  1  0  0  0  0
 17 25  1  0  0  0  0
M  END
$$$$

  -OEChem-05262214473D

 51 50  0     1  0  0  0  0  0999 V2000
    1.3524   -3.0009    1.4091 C   0  0  0  0  0  0  0  0  0  0  0  0
    1.8758   -1.9880    0.9598 O   0  0  0  0  0  0  0  0  0  0  0  0
    2.2030   -4.1782    1.7536 C   0  0  0  0  0  0  0  0  0  0  0  0
    2.3264   -4.8705    0.9053 H   0  0  0  0  0  0  0  0  0  0  0  0
    3.2257   -3.8876    2.0432 H   0  0  0  0  0  0  0  0  0  0  0  0
    1.8327   -4.8004    2.5839 H   0  0  0  0  0  0  0  0  0  0  0  0
    0.0005   -3.1873    1.6465 N   0  0  0  0  0  0  0  0  0  0  0  0
   -0.9949   -2.1807    1.3864 C   0  0  2  0  0  0  0  0  0  0  0  0
   -0.3083   -0.8216    1.4164 C   0  0  0  0  0  0  0  0  0  0  0  0
    0.7533   -0.6191    2.0022 O   0  0  0  0  0  0  0  0  0  0  0  0
   -2.1232   -2.2423    2.4042 C   0  0  0  0  0  0  0  0  0  0  0  0
   -0.3048   -4.0823    2.0245 H   0  0  0  0  0  0  0  0  0  0  0  0
   -1.3830   -2.3724    0.3801 H   0  0  0  0  0  0  0  0  0  0  0  0
   -1.7534   -2.0527    3.4185 H   0  0  0  0  0  0  0  0  0  0  0  0
   -2.8936   -1.4947    2.1882 H   0  0  0  0  0  0  0  0  0  0  0  0
   -2.5964   -3.2301    2.4022 H   0  0  0  0  0  0  0  0  0  0  0  0
   -1.0412    0.1517    0.7482 N   0  0  0  0  0  0  0  0  0  0  0  0
   -0.6079    1.5223    0.6467 C   0  0  2  0  0  0  0  0  0  0  0  0
    0.5245    1.5892   -0.3771 C   0  0  0  0  0  0  0  0  0  0  0  0
    1.2816    0.6462   -0.5980 O   0  0  0  0  0  0  0  0  0  0  0  0
   -0.2088    2.1327    2.0119 C   0  0  2  0  0  0  0  0  0  0  0  0
   -1.3986    2.1933    2.9954 C   0  0  0  0  0  0  0  0  0  0  0  0
    0.4272    3.5141    1.8073 C   0  0  0  0  0  0  0  0  0  0  0  0
   -0.9899    2.5365    4.4222 C   0  0  0  0  0  0  0  0  0  0  0  0
   -1.9022   -0.1128    0.2753 H   0  0  0  0  0  0  0  0  0  0  0  0
   -1.4587    2.0758    0.2292 H   0  0  0  0  0  0  0  0  0  0  0  0
    0.5603    1.4886    2.4587 H   0  0  0  0  0  0  0  0  0  0  0  0
   -2.1123    2.9555    2.6620 H   0  0  0  0  0  0  0  0  0  0  0  0
   -1.9363    1.2377    3.0044 H   0  0  0  0  0  0  0  0  0  0  0  0
   -0.2906    4.2110    1.3616 H   0  0  0  0  0  0  0  0  0  0  0  0
    0.7460    3.9485    2.7598 H   0  0  0  0  0  0  0  0  0  0  0  0
    1.3016    3.4604    1.1506 H   0  0  0  0  0  0  0  0  0  0  0  0
   -0.2739    1.8126    4.8214 H   0  0  0  0  0  0  0  0  0  0  0  0
   -1.8682    2.5248    5.0760 H   0  0  0  0  0  0  0  0  0  0  0  0
   -0.5433    3.5343    4.4743 H   0  0  0  0  0  0  0  0  0  0  0  0
    0.5655    2.8111   -1.0336 N   0  0  0  0  0  0  0  0  0  0  0  0
    1.5290    3.1258   -2.0637 C   0  0  2  0  0  0  0  0  0  0  0  0
    0.9126    4.1749   -2.9796 C   0  0  0  0  0  0  0  0  0  0  0  0
   -0.3003    4.3467   -3.0818 O   0  0  0  0  0  0  0  0  0  0  0  0
    1.9255    1.8848   -2.8482 C   0  0  0  0  0  0  0  0  0  0  0  0
   -0.1157    3.5196   -0.7774 H   0  0  0  0  0  0  0  0  0  0  0  0
    2.4043    3.5494   -1.5593 H   0  0  0  0  0  0  0  0  0  0  0  0
    1.0615    1.4463   -3.3606 H   0  0  0  0  0  0  0  0  0  0  0  0
    2.6768    2.1198   -3.6094 H   0  0  0  0  0  0  0  0  0  0  0  0
    2.3413    1.1198   -2.1836 H   0  0  0  0  0  0  0  0  0  0  0  0
    1.8745    4.8674   -3.7017 N   0  0  0  0  0  0  0  0  0  0  0  0
    1.5411    5.9058   -4.6485 C   0  0  0  0  0  0  0  0  0  0  0  0
    2.8580    4.6721   -3.5392 H   0  0  0  0  0  0  0  0  0  0  0  0
    1.4433    5.4689   -5.6533 H   0  0  0  0  0  0  0  0  0  0  0  0
    0.5892    6.3745   -4.3584 H   0  0  0  0  0  0  0  0  0  0  0  0
    2.3368    6.6653   -4.6549 H   0  0  0  0  0  0  0  0  0  0  0  0
  1  3  1  0  0  0  0
  1  7  1  0  0  0  0
  1  2  2  0  0  0  0
 37 38  1  0  0  0  0
 38 46  1  0  0  0  0
 38 39  2  0  0  0  0
  8  9  1  0  0  0  0
  9 17  1  0  0  0  0
  9 10  2  0  0  0  0
 18 19  1  0  0  0  0
 19 36  1  0  0  0  0
 19 20  2  0  0  0  0
 22 24  1  0  0  0  0
 37 40  1  0  0  0  0
  8 11  1  0  0  0  0
 21 23  1  0  0  0  0
 46 47  1  0  0  0  0
 21 22  1  0  0  0  0
 36 37  1  0  0  0  0
  7  8  1  0  0  0  0
 18 21  1  0  0  0  0
 17 18  1  0  0  0  0
  3  4  1  0  0  0  0
  3  5  1  0  0  0  0
  3  6  1  0  0  0  0
 24 33  1  0  0  0  0
 24 34  1  0  0  0  0
 24 35  1  0  0  0  0
 40 43  1  0  0  0  0
 40 44  1  0  0  0  0
 40 45  1  0  0  0  0
 11 14  1  0  0  0  0
 11 15  1  0  0  0  0
 11 16  1  0  0  0  0
 23 30  1  0  0  0  0
 23 31  1  0  0  0  0
 23 32  1  0  0  0  0
 47 49  1  0  0  0  0
 47 50  1  0  0  0  0
 47 51  1  0  0  0  0
 22 28  1  0  0  0  0
 22 29  1  0  0  0  0
 37 42  1  0  0  0  0
  8 13  1  0  0  0  0
 18 26  1  0  0  0  0
 21 27  1  0  0  0  0
 46 48  1  0  0  0  0
  7 12  1  0  0  0  0
 36 41  1  0  0  0  0
 17 25  1  0  0  0  0
M  END
$$$$

  -OEChem-05262214473D

 51 50  0     1  0  0  0  0  0999 V2000
    1.3524   -3.0009    1.4091 C   0  0  0  0  0  0  0  0  0  0  0  0
    1.8758   -1.9880    0.9598 O   0  0  0  0  0  0  0  0  0  0  0  0
    2.2030   -4.1782    1.7536 C   0  0  0  0  0  0  0  0  0  0  0  0
    2.3264   -4.8705    0.9053 H   0  0  0  0  0  0  0  0  0  0  0  0
    3.2257   -3.8876    2.0432 H   0  0  0  0  0  0  0  0  0  0  0  0
    1.8327   -4.8004    2.5839 H   0  0  0  0  0  0  0  0  0  0  0  0
    0.0005   -3.1873    1.6465 N   0  0  0  0  0  0  0  0  0  0  0  0
   -0.9949   -2.1807    1.3864 C   0  0  2  0  0  0  0  0  0  0  0  0
   -0.3083   -0.8216    1.4164 C   0  0  0  0  0  0  0  0  0  0  0  0
    0.7533   -0.6191    2.0022 O   0  0  0  0  0  0  0  0  0  0  0  0
   -2.1232   -2.2423    2.4042 C   0  0  0  0  0  0  0  0  0  0  0  0
   -0.3048   -4.0823    2.0245 H   0  0  0  0  0  0  0  0  0  0  0  0
   -1.3830   -2.3724    0.3801 H   0  0  0  0  0  0  0  0  0  0  0  0
   -1.7534   -2.0527    3.4185 H   0  0  0  0  0  0  0  0  0  0  0  0
   -2.8936   -1.4947    2.1882 H   0  0  0  0  0  0  0  0  0  0  0  0
   -2.5964   -3.2301    2.4022 H   0  0  0  0  0  0  0  0  0  0  0  0
   -1.0412    0.1517    0.7482 N   0  0  0  0  0  0  0  0  0  0  0  0
   -0.6079    1.5223    0.6467 C   0  0  2  0  0  0  0  0  0  0  0  0
    0.5245    1.5892   -0.3771 C   0  0  0  0  0  0  0  0  0  0  0  0
    1.1066    0.5904   -0.7952 O   0  0  0  0  0  0  0  0  0  0  0  0
   -0.2088    2.1327    2.0119 C   0  0  2  0  0  0  0  0  0  0  0  0
   -1.3986    2.1933    2.9954 C   0  0  0  0  0  0  0  0  0  0  0  0
    0.4272    3.5141    1.8073 C   0  0  0  0  0  0  0  0  0  0  0  0
   -0.9899    2.5365    4.4222 C   0  0  0  0  0  0  0  0  0  0  0  0
   -1.9022   -0.1128    0.2753 H   0  0  0  0  0  0  0  0  0  0  0  0
   -1.4587    2.0758    0.2292 H   0  0  0  0  0  0  0  0  0  0  0  0
    0.5603    1.4886    2.4587 H   0  0  0  0  0  0  0  0  0  0  0  0
   -2.1123    2.9555    2.6620 H   0  0  0  0  0  0  0  0  0  0  0  0
   -1.9363    1.2377    3.0044 H   0  0  0  0  0  0  0  0  0  0  0  0
   -0.2906    4.2110    1.3616 H   0  0  0  0  0  0  0  0  0  0  0  0
    0.7460    3.9485    2.7598 H   0  0  0  0  0  0  0  0  0  0  0  0
    1.3016    3.4604    1.1506 H   0  0  0  0  0  0  0  0  0  0  0  0
   -0.2739    1.8126    4.8214 H   0  0  0  0  0  0  0  0  0  0  0  0
   -1.8682    2.5248    5.0760 H   0  0  0  0  0  0  0  0  0  0  0  0
   -0.5433    3.5343    4.4743 H   0  0  0  0  0  0  0  0  0  0  0  0
    0.7818    2.8890   -0.7893 N   0  0  0  0  0  0  0  0  0  0  0  0
    1.7912    3.2256   -1.7673 C   0  0  2  0  0  0  0  0  0  0  0  0
    1.3724    4.5218   -2.4484 C   0  0  0  0  0  0  0  0  0  0  0  0
    0.2087    4.9165   -2.4816 O   0  0  0  0  0  0  0  0  0  0  0  0
    1.9694    2.1098   -2.7850 C   0  0  0  0  0  0  0  0  0  0  0  0
    0.2333    3.6414   -0.3835 H   0  0  0  0  0  0  0  0  0  0  0  0
    2.7241    3.3868   -1.2162 H   0  0  0  0  0  0  0  0  0  0  0  0
    1.0449    1.9338   -3.3470 H   0  0  0  0  0  0  0  0  0  0  0  0
    2.7544    2.3541   -3.5083 H   0  0  0  0  0  0  0  0  0  0  0  0
    2.2415    1.1710   -2.2905 H   0  0  0  0  0  0  0  0  0  0  0  0
    2.4444    5.1642   -3.0519 N   0  0  0  0  0  0  0  0  0  0  0  0
    2.3026    6.4073   -3.7734 C   0  0  0  0  0  0  0  0  0  0  0  0
    3.3778    4.7748   -2.9576 H   0  0  0  0  0  0  0  0  0  0  0  0
    2.1357    6.1959   -4.8399 H   0  0  0  0  0  0  0  0  0  0  0  0
    1.4455    6.9682   -3.3724 H   0  0  0  0  0  0  0  0  0  0  0  0
    3.2187    7.0051   -3.6572 H   0  0  0  0  0  0  0  0  0  0  0  0
  1  3  1  0  0  0  0
  1  7  1  0  0  0  0
  1  2  2  0  0  0  0
 37 38  1  0  0  0  0
 38 46  1  0  0  0  0
 38 39  2  0  0  0  0
  8  9  1  0  0  0  0
  9 17  1  0  0  0  0
  9 10  2  0  0  0  0
 18 19  1  0  0  0  0
 19 36  1  0  0  0  0
 19 20  2  0  0  0  0
 22 24  1  0  0  0  0
 37 40  1  0  0  0  0
  8 11  1  0  0  0  0
 21 23  1  0  0  0  0
 46 47  1  0  0  0  0
 21 22  1  0  0  0  0
 36 37  1  0  0  0  0
  7  8  1  0  0  0  0
 18 21  1  0  0  0  0
 17 18  1  0  0  0  0
  3  4  1  0  0  0  0
  3  5  1  0  0  0  0
  3  6  1  0  0  0  0
 24 33  1  0  0  0  0
 24 34  1  0  0  0  0
 24 35  1  0  0  0  0
 40 43  1  0  0  0  0
 40 44  1  0  0  0  0
 40 45  1  0  0  0  0
 11 14  1  0  0  0  0
 11 15  1  0  0  0  0
 11 16  1  0  0  0  0
 23 30  1  0  0  0  0
 23 31  1  0  0  0  0
 23 32  1  0  0  0  0
 47 49  1  0  0  0  0
 47 50  1  0  0  0  0
 47 51  1  0  0  0  0
 22 28  1  0  0  0  0
 22 29  1  0  0  0  0
 37 42  1  0  0  0  0
  8 13  1  0  0  0  0
 18 26  1  0  0  0  0
 21 27  1  0  0  0  0
 46 48  1  0  0  0  0
  7 12  1  0  0  0  0
 36 41  1  0  0  0  0
 17 25  1  0  0  0  0
M  END
$$$$

  -OEChem-05262214473D

 51 50  0     1  0  0  0  0  0999 V2000
    1.3524   -3.0009    1.4091 C   0  0  0  0  0  0  0  0  0  0  0  0
    1.8758   -1.9880    0.9598 O   0  0  0  0  0  0  0  0  0  0  0  0
    2.2030   -4.1782    1.7536 C   0  0  0  0  0  0  0  0  0  0  0  0
    2.3264   -4.8705    0.9053 H   0  0  0  0  0  0  0  0  0  0  0  0
    3.2257   -3.8876    2.0432 H   0  0  0  0  0  0  0  0  0  0  0  0
    1.8327   -4.8004    2.5839 H   0  0  0  0  0  0  0  0  0  0  0  0
    0.0005   -3.1873    1.6465 N   0  0  0  0  0  0  0  0  0  0  0  0
   -0.9949   -2.1807    1.3864 C   0  0  2  0  0  0  0  0  0  0  0  0
   -0.3083   -0.8216    1.4164 C   0  0  0  0  0  0  0  0  0  0  0  0
    0.7533   -0.6191    2.0022 O   0  0  0  0  0  0  0  0  0  0  0  0
   -2.1232   -2.2423    2.4042 C   0  0  0  0  0  0  0  0  0  0  0  0
   -0.3048   -4.0823    2.0245 H   0  0  0  0  0  0  0  0  0  0  0  0
   -1.3830   -2.3724    0.3801 H   0  0  0  0  0  0  0  0  0  0  0  0
   -1.7534   -2.0527    3.4185 H   0  0  0  0  0  0  0  0  0  0  0  0
   -2.8936   -1.4947    2.1882 H   0  0  0  0  0  0  0  0  0  0  0  0
   -2.5964   -3.2301    2.4022 H   0  0  0  0  0  0  0  0  0  0  0  0
   -1.0412    0.1517    0.7482 N   0  0  0  0  0  0  0  0  0  0  0  0
   -0.6079    1.5223    0.6467 C   0  0  2  0  0  0  0  0  0  0  0  0
    0.2400    1.6614   -0.6169 C   0  0  0  0  0  0  0  0  0  0  0  0
    0.4497    0.7261   -1.3867 O   0  0  0  0  0  0  0  0  0  0  0  0
    0.1310    2.0180    1.9132 C   0  0  2  0  0  0  0  0  0  0  0  0
   -0.7789    2.0097    3.1617 C   0  0  0  0  0  0  0  0  0  0  0  0
    0.7357    3.4059    1.6629 C   0  0  0  0  0  0  0  0  0  0  0  0
   -0.0231    2.2340    4.4651 C   0  0  0  0  0  0  0  0  0  0  0  0
   -1.9022   -0.1128    0.2753 H   0  0  0  0  0  0  0  0  0  0  0  0
   -1.5194    2.1146    0.4953 H   0  0  0  0  0  0  0  0  0  0  0  0
    0.9679    1.3336    2.1063 H   0  0  0  0  0  0  0  0  0  0  0  0
   -1.5309    2.8022    3.0734 H   0  0  0  0  0  0  0  0  0  0  0  0
   -1.3244    1.0611    3.2309 H   0  0  0  0  0  0  0  0  0  0  0  0
   -0.0498    4.1423    1.4621 H   0  0  0  0  0  0  0  0  0  0  0  0
    1.2905    3.7598    2.5372 H   0  0  0  0  0  0  0  0  0  0  0  0
    1.4203    3.3975    0.8084 H   0  0  0  0  0  0  0  0  0  0  0  0
    0.7485    1.4744    4.6193 H   0  0  0  0  0  0  0  0  0  0  0  0
   -0.7140    2.1774    5.3127 H   0  0  0  0  0  0  0  0  0  0  0  0
    0.4504    3.2206    4.4805 H   0  0  0  0  0  0  0  0  0  0  0  0
    0.7034    2.9570   -0.7967 N   0  0  0  0  0  0  0  0  0  0  0  0
    1.5114    3.3607   -1.9248 C   0  0  2  0  0  0  0  0  0  0  0  0
    1.2750    4.8459   -2.1651 C   0  0  0  0  0  0  0  0  0  0  0  0
    0.2666    5.4353   -1.7819 O   0  0  0  0  0  0  0  0  0  0  0  0
    1.1742    2.5489   -3.1658 C   0  0  0  0  0  0  0  0  0  0  0  0
    0.4626    3.6565   -0.1007 H   0  0  0  0  0  0  0  0  0  0  0  0
    2.5565    3.1981   -1.6396 H   0  0  0  0  0  0  0  0  0  0  0  0
    0.1309    2.6989   -3.4668 H   0  0  0  0  0  0  0  0  0  0  0  0
    1.8069    2.8362   -4.0120 H   0  0  0  0  0  0  0  0  0  0  0  0
    1.3163    1.4785   -2.9817 H   0  0  0  0  0  0  0  0  0  0  0  0
    2.3025    5.4264   -2.8955 N   0  0  0  0  0  0  0  0  0  0  0  0
    2.3049    6.8231   -3.2635 C   0  0  0  0  0  0  0  0  0  0  0  0
    3.1092    4.8665   -3.1553 H   0  0  0  0  0  0  0  0  0  0  0  0
    1.8509    6.9414   -4.2584 H   0  0  0  0  0  0  0  0  0  0  0  0
    1.7257    7.3975   -2.5256 H   0  0  0  0  0  0  0  0  0  0  0  0
    3.3401    7.1943   -3.2864 H   0  0  0  0  0  0  0  0  0  0  0  0
  1  3  1  0  0  0  0
  1  7  1  0  0  0  0
  1  2  2  0  0  0  0
 37 38  1  0  0  0  0
 38 46  1  0  0  0  0
 38 39  2  0  0  0  0
  8  9  1  0  0  0  0
  9 17  1  0  0  0  0
  9 10  2  0  0  0  0
 18 19  1  0  0  0  0
 19 36  1  0  0  0  0
 19 20  2  0  0  0  0
 22 24  1  0  0  0  0
 37 40  1  0  0  0  0
  8 11  1  0  0  0  0
 21 23  1  0  0  0  0
 46 47  1  0  0  0  0
 21 22  1  0  0  0  0
 36 37  1  0  0  0  0
  7  8  1  0  0  0  0
 18 21  1  0  0  0  0
 17 18  1  0  0  0  0
  3  4  1  0  0  0  0
  3  5  1  0  0  0  0
  3  6  1  0  0  0  0
 24 33  1  0  0  0  0
 24 34  1  0  0  0  0
 24 35  1  0  0  0  0
 40 43  1  0  0  0  0
 40 44  1  0  0  0  0
 40 45  1  0  0  0  0
 11 14  1  0  0  0  0
 11 15  1  0  0  0  0
 11 16  1  0  0  0  0
 23 30  1  0  0  0  0
 23 31  1  0  0  0  0
 23 32  1  0  0  0  0
 47 49  1  0  0  0  0
 47 50  1  0  0  0  0
 47 51  1  0  0  0  0
 22 28  1  0  0  0  0
 22 29  1  0  0  0  0
 37 42  1  0  0  0  0
  8 13  1  0  0  0  0
 18 26  1  0  0  0  0
 21 27  1  0  0  0  0
 46 48  1  0  0  0  0
  7 12  1  0  0  0  0
 36 41  1  0  0  0  0
 17 25  1  0  0  0  0
M  END
$$$$

  -OEChem-05262214473D

 51 50  0     1  0  0  0  0  0999 V2000
    1.3524   -3.0009    1.4091 C   0  0  0  0  0  0  0  0  0  0  0  0
    1.8758   -1.9880    0.9598 O   0  0  0  0  0  0  0  0  0  0  0  0
    2.2030   -4.1782    1.7536 C   0  0  0  0  0  0  0  0  0  0  0  0
    2.3264   -4.8705    0.9053 H   0  0  0  0  0  0  0  0  0  0  0  0
    3.2257   -3.8876    2.0432 H   0  0  0  0  0  0  0  0  0  0  0  0
    1.8327   -4.8004    2.5839 H   0  0  0  0  0  0  0  0  0  0  0  0
    0.0005   -3.1873    1.6465 N   0  0  0  0  0  0  0  0  0  0  0  0
   -0.9949   -2.1807    1.3864 C   0  0  2  0  0  0  0  0  0  0  0  0
   -0.3083   -0.8216    1.4164 C   0  0  0  0  0  0  0  0  0  0  0  0
    0.7533   -0.6191    2.0022 O   0  0  0  0  0  0  0  0  0  0  0  0
   -2.1232   -2.2423    2.4042 C   0  0  0  0  0  0  0  0  0  0  0  0
   -0.3048   -4.0823    2.0245 H   0  0  0  0  0  0  0  0  0  0  0  0
   -1.3830   -2.3724    0.3801 H   0  0  0  0  0  0  0  0  0  0  0  0
   -1.7534   -2.0527    3.4185 H   0  0  0  0  0  0  0  0  0  0  0  0
   -2.8936   -1.4947    2.1882 H   0  0  0  0  0  0  0  0  0  0  0  0
   -2.5964   -3.2301    2.4022 H   0  0  0  0  0  0  0  0  0  0  0  0
   -1.0412    0.1517    0.7482 N   0  0  0  0  0  0  0  0  0  0  0  0
   -0.6079    1.5223    0.6467 C   0  0  2  0  0  0  0  0  0  0  0  0
    0.2400    1.6614   -0.6169 C   0  0  0  0  0  0  0  0  0  0  0  0
    0.2369    0.8257   -1.5185 O   0  0  0  0  0  0  0  0  0  0  0  0
    0.1310    2.0180    1.9132 C   0  0  2  0  0  0  0  0  0  0  0  0
   -0.7789    2.0097    3.1617 C   0  0  0  0  0  0  0  0  0  0  0  0
    0.7357    3.4059    1.6629 C   0  0  0  0  0  0  0  0  0  0  0  0
   -0.0231    2.2340    4.4651 C   0  0  0  0  0  0  0  0  0  0  0  0
   -1.9022   -0.1128    0.2753 H   0  0  0  0  0  0  0  0  0  0  0  0
   -1.5194    2.1146    0.4953 H   0  0  0  0  0  0  0  0  0  0  0  0
    0.9679    1.3336    2.1063 H   0  0  0  0  0  0  0  0  0  0  0  0
   -1.5309    2.8022    3.0734 H   0  0  0  0  0  0  0  0  0  0  0  0
   -1.3244    1.0611    3.2309 H   0  0  0  0  0  0  0  0  0  0  0  0
   -0.0498    4.1423    1.4621 H   0  0  0  0  0  0  0  0  0  0  0  0
    1.2905    3.7598    2.5372 H   0  0  0  0  0  0  0  0  0  0  0  0
    1.4203    3.3975    0.8084 H   0  0  0  0  0  0  0  0  0  0  0  0
    0.7485    1.4744    4.6193 H   0  0  0  0  0  0  0  0  0  0  0  0
   -0.7140    2.1774    5.3127 H   0  0  0  0  0  0  0  0  0  0  0  0
    0.4504    3.2206    4.4805 H   0  0  0  0  0  0  0  0  0  0  0  0
    0.9705    2.8411   -0.6302 N   0  0  0  0  0  0  0  0  0  0  0  0
    1.8377    3.2245   -1.7209 C   0  0  2  0  0  0  0  0  0  0  0  0
    1.9254    4.7449   -1.7399 C   0  0  0  0  0  0  0  0  0  0  0  0
    1.0710    5.4724   -1.2381 O   0  0  0  0  0  0  0  0  0  0  0  0
    1.3234    2.6931   -3.0498 C   0  0  0  0  0  0  0  0  0  0  0  0
    0.8919    3.4663    0.1664 H   0  0  0  0  0  0  0  0  0  0  0  0
    2.8253    2.8038   -1.5026 H   0  0  0  0  0  0  0  0  0  0  0  0
    0.3347    3.1036   -3.2855 H   0  0  0  0  0  0  0  0  0  0  0  0
    1.9965    2.9602   -3.8711 H   0  0  0  0  0  0  0  0  0  0  0  0
    1.2327    1.6018   -3.0243 H   0  0  0  0  0  0  0  0  0  0  0  0
    3.0481    5.1944   -2.4208 N   0  0  0  0  0  0  0  0  0  0  0  0
    3.3489    6.5971   -2.5879 C   0  0  0  0  0  0  0  0  0  0  0  0
    3.7129    4.5201   -2.7884 H   0  0  0  0  0  0  0  0  0  0  0  0
    2.9232    6.9533   -3.5376 H   0  0  0  0  0  0  0  0  0  0  0  0
    2.9131    7.1673   -1.7542 H   0  0  0  0  0  0  0  0  0  0  0  0
    4.4396    6.7393   -2.5988 H   0  0  0  0  0  0  0  0  0  0  0  0
  1  3  1  0  0  0  0
  1  7  1  0  0  0  0
  1  2  2  0  0  0  0
 37 38  1  0  0  0  0
 38 46  1  0  0  0  0
 38 39  2  0  0  0  0
  8  9  1  0  0  0  0
  9 17  1  0  0  0  0
  9 10  2  0  0  0  0
 18 19  1  0  0  0  0
 19 36  1  0  0  0  0
 19 20  2  0  0  0  0
 22 24  1  0  0  0  0
 37 40  1  0  0  0  0
  8 11  1  0  0  0  0
 21 23  1  0  0  0  0
 46 47  1  0  0  0  0
 21 22  1  0  0  0  0
 36 37  1  0  0  0  0
  7  8  1  0  0  0  0
 18 21  1  0  0  0  0
 17 18  1  0  0  0  0
  3  4  1  0  0  0  0
  3  5  1  0  0  0  0
  3  6  1  0  0  0  0
 24 33  1  0  0  0  0
 24 34  1  0  0  0  0
 24 35  1  0  0  0  0
 40 43  1  0  0  0  0
 40 44  1  0  0  0  0
 40 45  1  0  0  0  0
 11 14  1  0  0  0  0
 11 15  1  0  0  0  0
 11 16  1  0  0  0  0
 23 30  1  0  0  0  0
 23 31  1  0  0  0  0
 23 32  1  0  0  0  0
 47 49  1  0  0  0  0
 47 50  1  0  0  0  0
 47 51  1  0  0  0  0
 22 28  1  0  0  0  0
 22 29  1  0  0  0  0
 37 42  1  0  0  0  0
  8 13  1  0  0  0  0
 18 26  1  0  0  0  0
 21 27  1  0  0  0  0
 46 48  1  0  0  0  0
  7 12  1  0  0  0  0
 36 41  1  0  0  0  0
 17 25  1  0  0  0  0
M  END
$$$$

  -OEChem-05262214473D

 51 50  0     1  0  0  0  0  0999 V2000
    1.3524   -3.0009    1.4091 C   0  0  0  0  0  0  0  0  0  0  0  0
    1.8758   -1.9880    0.9598 O   0  0  0  0  0  0  0  0  0  0  0  0
    2.2030   -4.1782    1.7536 C   0  0  0  0  0  0  0  0  0  0  0  0
    2.3264   -4.8705    0.9053 H   0  0  0  0  0  0  0  0  0  0  0  0
    3.2257   -3.8876    2.0432 H   0  0  0  0  0  0  0  0  0  0  0  0
    1.8327   -4.8004    2.5839 H   0  0  0  0  0  0  0  0  0  0  0  0
    0.0005   -3.1873    1.6465 N   0  0  0  0  0  0  0  0  0  0  0  0
   -0.9949   -2.1807    1.3864 C   0  0  2  0  0  0  0  0  0  0  0  0
   -0.3083   -0.8216    1.4164 C   0  0  0  0  0  0  0  0  0  0  0  0
    0.7533   -0.6191    2.0022 O   0  0  0  0  0  0  0  0  0  0  0  0
   -2.1232   -2.2423    2.4042 C   0  0  0  0  0  0  0  0  0  0  0  0
   -0.3048   -4.0823    2.0245 H   0  0  0  0  0  0  0  0  0  0  0  0
   -1.3830   -2.3724    0.3801 H   0  0  0  0  0  0  0  0  0  0  0  0
   -1.7534   -2.0527    3.4185 H   0  0  0  0  0  0  0  0  0  0  0  0
   -2.8936   -1.4947    2.1882 H   0  0  0  0  0  0  0  0  0  0  0  0
   -2.5964   -3.2301    2.4022 H   0  0  0  0  0  0  0  0  0  0  0  0
   -1.0412    0.1517    0.7482 N   0  0  0  0  0  0  0  0  0  0  0  0
   -0.6079    1.5223    0.6467 C   0  0  2  0  0  0  0  0  0  0  0  0
    0.2400    1.6614   -0.6169 C   0  0  0  0  0  0  0  0  0  0  0  0
    0.0495    0.9864   -1.6266 O   0  0  0  0  0  0  0  0  0  0  0  0
    0.1310    2.0180    1.9132 C   0  0  2  0  0  0  0  0  0  0  0  0
   -0.7789    2.0097    3.1617 C   0  0  0  0  0  0  0  0  0  0  0  0
    0.7357    3.4059    1.6629 C   0  0  0  0  0  0  0  0  0  0  0  0
   -0.0231    2.2340    4.4651 C   0  0  0  0  0  0  0  0  0  0  0  0
   -1.9022   -0.1128    0.2753 H   0  0  0  0  0  0  0  0  0  0  0  0
   -1.5194    2.1146    0.4953 H   0  0  0  0  0  0  0  0  0  0  0  0
    0.9679    1.3336    2.1063 H   0  0  0  0  0  0  0  0  0  0  0  0
   -1.5309    2.8022    3.0734 H   0  0  0  0  0  0  0  0  0  0  0  0
   -1.3244    1.0611    3.2309 H   0  0  0  0  0  0  0  0  0  0  0  0
   -0.0498    4.1423    1.4621 H   0  0  0  0  0  0  0  0  0  0  0  0
    1.2905    3.7598    2.5372 H   0  0  0  0  0  0  0  0  0  0  0  0
    1.4203    3.3975    0.8084 H   0  0  0  0  0  0  0  0  0  0  0  0
    0.7485    1.4744    4.6193 H   0  0  0  0  0  0  0  0  0  0  0  0
   -0.7140    2.1774    5.3127 H   0  0  0  0  0  0  0  0  0  0  0  0
    0.4504    3.2206    4.4805 H   0  0  0  0  0  0  0  0  0  0  0  0
    1.2077    2.6481   -0.4923 N   0  0  0  0  0  0  0  0  0  0  0  0
    2.1285    2.9939   -1.5512 C   0  0  2  0  0  0  0  0  0  0  0  0
    2.5420    4.4470   -1.3590 C   0  0  0  0  0  0  0  0  0  0  0  0
    1.8687    5.2580   -0.7265 O   0  0  0  0  0  0  0  0  0  0  0  0
    1.5011    2.7839   -2.9205 C   0  0  0  0  0  0  0  0  0  0  0  0
    1.2721    3.1524    0.3870 H   0  0  0  0  0  0  0  0  0  0  0  0
    3.0038    2.3458   -1.4333 H   0  0  0  0  0  0  0  0  0  0  0  0
    0.6225    3.4248   -3.0570 H   0  0  0  0  0  0  0  0  0  0  0  0
    2.2095    3.0190   -3.7217 H   0  0  0  0  0  0  0  0  0  0  0  0
    1.1773    1.7450   -3.0456 H   0  0  0  0  0  0  0  0  0  0  0  0
    3.7298    4.7425   -2.0131 N   0  0  0  0  0  0  0  0  0  0  0  0
    4.3248    6.0584   -1.9924 C   0  0  0  0  0  0  0  0  0  0  0  0
    4.2305    4.0036   -2.4979 H   0  0  0  0  0  0  0  0  0  0  0  0
    3.9785    6.6317   -2.8650 H   0  0  0  0  0  0  0  0  0  0  0  0
    4.0289    6.5799   -1.0702 H   0  0  0  0  0  0  0  0  0  0  0  0
    5.4204    5.9658   -2.0259 H   0  0  0  0  0  0  0  0  0  0  0  0
  1  3  1  0  0  0  0
  1  7  1  0  0  0  0
  1  2  2  0  0  0  0
 37 38  1  0  0  0  0
 38 46  1  0  0  0  0
 38 39  2  0  0  0  0
  8  9  1  0  0  0  0
  9 17  1  0  0  0  0
  9 10  2  0  0  0  0
 18 19  1  0  0  0  0
 19 36  1  0  0  0  0
 19 20  2  0  0  0  0
 22 24  1  0  0  0  0
 37 40  1  0  0  0  0
  8 11  1  0  0  0  0
 21 23  1  0  0  0  0
 46 47  1  0  0  0  0
 21 22  1  0  0  0  0
 36 37  1  0  0  0  0
  7  8  1  0  0  0  0
 18 21  1  0  0  0  0
 17 18  1  0  0  0  0
  3  4  1  0  0  0  0
  3  5  1  0  0  0  0
  3  6  1  0  0  0  0
 24 33  1  0  0  0  0
 24 34  1  0  0  0  0
 24 35  1  0  0  0  0
 40 43  1  0  0  0  0
 40 44  1  0  0  0  0
 40 45  1  0  0  0  0
 11 14  1  0  0  0  0
 11 15  1  0  0  0  0
 11 16  1  0  0  0  0
 23 30  1  0  0  0  0
 23 31  1  0  0  0  0
 23 32  1  0  0  0  0
 47 49  1  0  0  0  0
 47 50  1  0  0  0  0
 47 51  1  0  0  0  0
 22 28  1  0  0  0  0
 22 29  1  0  0  0  0
 37 42  1  0  0  0  0
  8 13  1  0  0  0  0
 18 26  1  0  0  0  0
 21 27  1  0  0  0  0
 46 48  1  0  0  0  0
  7 12  1  0  0  0  0
 36 41  1  0  0  0  0
 17 25  1  0  0  0  0
M  END
$$$$

  -OEChem-05262214473D

 51 50  0     1  0  0  0  0  0999 V2000
    1.3524   -3.0009    1.4091 C   0  0  0  0  0  0  0  0  0  0  0  0
    1.8758   -1.9880    0.9598 O   0  0  0  0  0  0  0  0  0  0  0  0
    2.2030   -4.1782    1.7536 C   0  0  0  0  0  0  0  0  0  0  0  0
    2.3264   -4.8705    0.9053 H   0  0  0  0  0  0  0  0  0  0  0  0
    3.2257   -3.8876    2.0432 H   0  0  0  0  0  0  0  0  0  0  0  0
    1.8327   -4.8004    2.5839 H   0  0  0  0  0  0  0  0  0  0  0  0
    0.0005   -3.1873    1.6465 N   0  0  0  0  0  0  0  0  0  0  0  0
   -0.9949   -2.1807    1.3864 C   0  0  2  0  0  0  0  0  0  0  0  0
   -0.3083   -0.8216    1.4164 C   0  0  0  0  0  0  0  0  0  0  0  0
    0.7533   -0.6191    2.0022 O   0  0  0  0  0  0  0  0  0  0  0  0
   -2.1232   -2.2423    2.4042 C   0  0  0  0  0  0  0  0  0  0  0  0
   -0.3048   -4.0823    2.0245 H   0  0  0  0  0  0  0  0  0  0  0  0
   -1.3830   -2.3724    0.3801 H   0  0  0  0  0  0  0  0  0  0  0  0
   -1.7534   -2.0527    3.4185 H   0  0  0  0  0  0  0  0  0  0  0  0
   -2.8936   -1.4947    2.1882 H   0  0  0  0  0  0  0  0  0  0  0  0
   -2.5964   -3.2301    2.4022 H   0  0  0  0  0  0  0  0  0  0  0  0
   -1.0412    0.1517    0.7482 N   0  0  0  0  0  0  0  0  0  0  0  0
   -0.6079    1.5223    0.6467 C   0  0  2  0  0  0  0  0  0  0  0  0
    0.2400    1.6614   -0.6169 C   0  0  0  0  0  0  0  0  0  0  0  0
   -0.0997    1.1972   -1.7035 O   0  0  0  0  0  0  0  0  0  0  0  0
    0.1310    2.0180    1.9132 C   0  0  2  0  0  0  0  0  0  0  0  0
   -0.7789    2.0097    3.1617 C   0  0  0  0  0  0  0  0  0  0  0  0
    0.7357    3.4059    1.6629 C   0  0  0  0  0  0  0  0  0  0  0  0
   -0.0231    2.2340    4.4651 C   0  0  0  0  0  0  0  0  0  0  0  0
   -1.9022   -0.1128    0.2753 H   0  0  0  0  0  0  0  0  0  0  0  0
   -1.5194    2.1146    0.4953 H   0  0  0  0  0  0  0  0  0  0  0  0
    0.9679    1.3336    2.1063 H   0  0  0  0  0  0  0  0  0  0  0  0
   -1.5309    2.8022    3.0734 H   0  0  0  0  0  0  0  0  0  0  0  0
   -1.3244    1.0611    3.2309 H   0  0  0  0  0  0  0  0  0  0  0  0
   -0.0498    4.1423    1.4621 H   0  0  0  0  0  0  0  0  0  0  0  0
    1.2905    3.7598    2.5372 H   0  0  0  0  0  0  0  0  0  0  0  0
    1.4203    3.3975    0.8084 H   0  0  0  0  0  0  0  0  0  0  0  0
    0.7485    1.4744    4.6193 H   0  0  0  0  0  0  0  0  0  0  0  0
   -0.7140    2.1774    5.3127 H   0  0  0  0  0  0  0  0  0  0  0  0
    0.4504    3.2206    4.4805 H   0  0  0  0  0  0  0  0  0  0  0  0
    1.3987    2.3911   -0.3924 N   0  0  0  0  0  0  0  0  0  0  0  0
    2.3640    2.6845   -1.4272 C   0  0  2  0  0  0  0  0  0  0  0  0
    3.0828    3.9726   -1.0483 C   0  0  0  0  0  0  0  0  0  0  0  0
    2.6053    4.8067   -0.2818 O   0  0  0  0  0  0  0  0  0  0  0  0
    1.6953    2.8149   -2.7868 C   0  0  0  0  0  0  0  0  0  0  0  0
    1.5774    2.7362    0.5460 H   0  0  0  0  0  0  0  0  0  0  0  0
    3.0798    1.8553   -1.4363 H   0  0  0  0  0  0  0  0  0  0  0  0
    0.9746    3.6407   -2.7970 H   0  0  0  0  0  0  0  0  0  0  0  0
    2.4313    3.0089   -3.5740 H   0  0  0  0  0  0  0  0  0  0  0  0
    1.1540    1.8982   -3.0444 H   0  0  0  0  0  0  0  0  0  0  0  0
    4.3012    4.1016   -1.7003 N   0  0  0  0  0  0  0  0  0  0  0  0
    5.1662    5.2436   -1.5175 C   0  0  0  0  0  0  0  0  0  0  0  0
    4.6268    3.3521   -2.3037 H   0  0  0  0  0  0  0  0  0  0  0  0
    4.9449    5.9987   -2.2863 H   0  0  0  0  0  0  0  0  0  0  0  0
    4.9971    5.6756   -0.5201 H   0  0  0  0  0  0  0  0  0  0  0  0
    6.2157    4.9265   -1.6067 H   0  0  0  0  0  0  0  0  0  0  0  0
  1  3  1  0  0  0  0
  1  7  1  0  0  0  0
  1  2  2  0  0  0  0
 37 38  1  0  0  0  0
 38 46  1  0  0  0  0
 38 39  2  0  0  0  0
  8  9  1  0  0  0  0
  9 17  1  0  0  0  0
  9 10  2  0  0  0  0
 18 19  1  0  0  0  0
 19 36  1  0  0  0  0
 19 20  2  0  0  0  0
 22 24  1  0  0  0  0
 37 40  1  0  0  0  0
  8 11  1  0  0  0  0
 21 23  1  0  0  0  0
 46 47  1  0  0  0  0
 21 22  1  0  0  0  0
 36 37  1  0  0  0  0
  7  8  1  0  0  0  0
 18 21  1  0  0  0  0
 17 18  1  0  0  0  0
  3  4  1  0  0  0  0
  3  5  1  0  0  0  0
  3  6  1  0  0  0  0
 24 33  1  0  0  0  0
 24 34  1  0  0  0  0
 24 35  1  0  0  0  0
 40 43  1  0  0  0  0
 40 44  1  0  0  0  0
 40 45  1  0  0  0  0
 11 14  1  0  0  0  0
 11 15  1  0  0  0  0
 11 16  1  0  0  0  0
 23 30  1  0  0  0  0
 23 31  1  0  0  0  0
 23 32  1  0  0  0  0
 47 49  1  0  0  0  0
 47 50  1  0  0  0  0
 47 51  1  0  0  0  0
 22 28  1  0  0  0  0
 22 29  1  0  0  0  0
 37 42  1  0  0  0  0
  8 13  1  0  0  0  0
 18 26  1  0  0  0  0
 21 27  1  0  0  0  0
 46 48  1  0  0  0  0
  7 12  1  0  0  0  0
 36 41  1  0  0  0  0
 17 25  1  0  0  0  0
M  END
$$$$

  -OEChem-05262214473D

 51 50  0     1  0  0  0  0  0999 V2000
    1.3524   -3.0009    1.4091 C   0  0  0  0  0  0  0  0  0  0  0  0
    1.8758   -1.9880    0.9598 O   0  0  0  0  0  0  0  0  0  0  0  0
    2.2030   -4.1782    1.7536 C   0  0  0  0  0  0  0  0  0  0  0  0
    2.3264   -4.8705    0.9053 H   0  0  0  0  0  0  0  0  0  0  0  0
    3.2257   -3.8876    2.0432 H   0  0  0  0  0  0  0  0  0  0  0  0
    1.8327   -4.8004    2.5839 H   0  0  0  0  0  0  0  0  0  0  0  0
    0.0005   -3.1873    1.6465 N   0  0  0  0  0  0  0  0  0  0  0  0
   -0.9949   -2.1807    1.3864 C   0  0  2  0  0  0  0  0  0  0  0  0
   -0.3083   -0.8216    1.4164 C   0  0  0  0  0  0  0  0  0  0  0  0
    0.7533   -0.6191    2.0022 O   0  0  0  0  0  0  0  0  0  0  0  0
   -2.1232   -2.2423    2.4042 C   0  0  0  0  0  0  0  0  0  0  0  0
   -0.3048   -4.0823    2.0245 H   0  0  0  0  0  0  0  0  0  0  0  0
   -1.3830   -2.3724    0.3801 H   0  0  0  0  0  0  0  0  0  0  0  0
   -1.7534   -2.0527    3.4185 H   0  0  0  0  0  0  0  0  0  0  0  0
   -2.8936   -1.4947    2.1882 H   0  0  0  0  0  0  0  0  0  0  0  0
   -2.5964   -3.2301    2.4022 H   0  0  0  0  0  0  0  0  0  0  0  0
   -1.0412    0.1517    0.7482 N   0  0  0  0  0  0  0  0  0  0  0  0
   -0.6079    1.5223    0.6467 C   0  0  2  0  0  0  0  0  0  0  0  0
    0.2400    1.6614   -0.6169 C   0  0  0  0  0  0  0  0  0  0  0  0
   -0.2005    1.4438   -1.7439 O   0  0  0  0  0  0  0  0  0  0  0  0
    0.1310    2.0180    1.9132 C   0  0  2  0  0  0  0  0  0  0  0  0
   -0.7789    2.0097    3.1617 C   0  0  0  0  0  0  0  0  0  0  0  0
    0.7357    3.4059    1.6629 C   0  0  0  0  0  0  0  0  0  0  0  0
   -0.0231    2.2340    4.4651 C   0  0  0  0  0  0  0  0  0  0  0  0
   -1.9022   -0.1128    0.2753 H   0  0  0  0  0  0  0  0  0  0  0  0
   -1.5194    2.1146    0.4953 H   0  0  0  0  0  0  0  0  0  0  0  0
    0.9679    1.3336    2.1063 H   0  0  0  0  0  0  0  0  0  0  0  0
   -1.5309    2.8022    3.0734 H   0  0  0  0  0  0  0  0  0  0  0  0
   -1.3244    1.0611    3.2309 H   0  0  0  0  0  0  0  0  0  0  0  0
   -0.0498    4.1423    1.4621 H   0  0  0  0  0  0  0  0  0  0  0  0
    1.2905    3.7598    2.5372 H   0  0  0  0  0  0  0  0  0  0  0  0
    1.4203    3.3975    0.8084 H   0  0  0  0  0  0  0  0  0  0  0  0
    0.7485    1.4744    4.6193 H   0  0  0  0  0  0  0  0  0  0  0  0
   -0.7140    2.1774    5.3127 H   0  0  0  0  0  0  0  0  0  0  0  0
    0.4504    3.2206    4.4805 H   0  0  0  0  0  0  0  0  0  0  0  0
    1.5306    2.0876   -0.3374 N   0  0  0  0  0  0  0  0  0  0  0  0
    2.5282    2.3174   -1.3574 C   0  0  2  0  0  0  0  0  0  0  0  0
    3.5110    3.3540   -0.8291 C   0  0  0  0  0  0  0  0  0  0  0  0
    3.2308    4.1492    0.0654 O   0  0  0  0  0  0  0  0  0  0  0  0
    1.8926    2.7841   -2.6578 C   0  0  0  0  0  0  0  0  0  0  0  0
    1.7870    2.2459    0.6326 H   0  0  0  0  0  0  0  0  0  0  0  0
    3.0481    1.3656   -1.5115 H   0  0  0  0  0  0  0  0  0  0  0  0
    1.3670    3.7365   -2.5232 H   0  0  0  0  0  0  0  0  0  0  0  0
    2.6469    2.9303   -3.4380 H   0  0  0  0  0  0  0  0  0  0  0  0
    1.1642    2.0510   -3.0207 H   0  0  0  0  0  0  0  0  0  0  0  0
    4.7233    3.3153   -1.5037 N   0  0  0  0  0  0  0  0  0  0  0  0
    5.8157    4.2084   -1.1957 C   0  0  0  0  0  0  0  0  0  0  0  0
    4.8747    2.6102   -2.2190 H   0  0  0  0  0  0  0  0  0  0  0  0
    5.7564    5.0972   -1.8410 H   0  0  0  0  0  0  0  0  0  0  0  0
    5.7518    4.5158   -0.1414 H   0  0  0  0  0  0  0  0  0  0  0  0
    6.7714    3.6922   -1.3697 H   0  0  0  0  0  0  0  0  0  0  0  0
  1  3  1  0  0  0  0
  1  7  1  0  0  0  0
  1  2  2  0  0  0  0
 37 38  1  0  0  0  0
 38 46  1  0  0  0  0
 38 39  2  0  0  0  0
  8  9  1  0  0  0  0
  9 17  1  0  0  0  0
  9 10  2  0  0  0  0
 18 19  1  0  0  0  0
 19 36  1  0  0  0  0
 19 20  2  0  0  0  0
 22 24  1  0  0  0  0
 37 40  1  0  0  0  0
  8 11  1  0  0  0  0
 21 23  1  0  0  0  0
 46 47  1  0  0  0  0
 21 22  1  0  0  0  0
 36 37  1  0  0  0  0
  7  8  1  0  0  0  0
 18 21  1  0  0  0  0
 17 18  1  0  0  0  0
  3  4  1  0  0  0  0
  3  5  1  0  0  0  0
  3  6  1  0  0  0  0
 24 33  1  0  0  0  0
 24 34  1  0  0  0  0
 24 35  1  0  0  0  0
 40 43  1  0  0  0  0
 40 44  1  0  0  0  0
 40 45  1  0  0  0  0
 11 14  1  0  0  0  0
 11 15  1  0  0  0  0
 11 16  1  0  0  0  0
 23 30  1  0  0  0  0
 23 31  1  0  0  0  0
 23 32  1  0  0  0  0
 47 49  1  0  0  0  0
 47 50  1  0  0  0  0
 47 51  1  0  0  0  0
 22 28  1  0  0  0  0
 22 29  1  0  0  0  0
 37 42  1  0  0  0  0
  8 13  1  0  0  0  0
 18 26  1  0  0  0  0
 21 27  1  0  0  0  0
 46 48  1  0  0  0  0
  7 12  1  0  0  0  0
 36 41  1  0  0  0  0
 17 25  1  0  0  0  0
M  END
$$$$

  -OEChem-05262214473D

 51 50  0     1  0  0  0  0  0999 V2000
    1.3524   -3.0009    1.4091 C   0  0  0  0  0  0  0  0  0  0  0  0
    1.8758   -1.9880    0.9598 O   0  0  0  0  0  0  0  0  0  0  0  0
    2.2030   -4.1782    1.7536 C   0  0  0  0  0  0  0  0  0  0  0  0
    2.3264   -4.8705    0.9053 H   0  0  0  0  0  0  0  0  0  0  0  0
    3.2257   -3.8876    2.0432 H   0  0  0  0  0  0  0  0  0  0  0  0
    1.8327   -4.8004    2.5839 H   0  0  0  0  0  0  0  0  0  0  0  0
    0.0005   -3.1873    1.6465 N   0  0  0  0  0  0  0  0  0  0  0  0
   -0.9949   -2.1807    1.3864 C   0  0  2  0  0  0  0  0  0  0  0  0
   -0.3083   -0.8216    1.4164 C   0  0  0  0  0  0  0  0  0  0  0  0
    0.7533   -0.6191    2.0022 O   0  0  0  0  0  0  0  0  0  0  0  0
   -2.1232   -2.2423    2.4042 C   0  0  0  0  0  0  0  0  0  0  0  0
   -0.3048   -4.0823    2.0245 H   0  0  0  0  0  0  0  0  0  0  0  0
   -1.3830   -2.3724    0.3801 H   0  0  0  0  0  0  0  0  0  0  0  0
   -1.7534   -2.0527    3.4185 H   0  0  0  0  0  0  0  0  0  0  0  0
   -2.8936   -1.4947    2.1882 H   0  0  0  0  0  0  0  0  0  0  0  0
   -2.5964   -3.2301    2.4022 H   0  0  0  0  0  0  0  0  0  0  0  0
   -1.0412    0.1517    0.7482 N   0  0  0  0  0  0  0  0  0  0  0  0
   -0.6079    1.5223    0.6467 C   0  0  2  0  0  0  0  0  0  0  0  0
    0.2400    1.6614   -0.6169 C   0  0  0  0  0  0  0  0  0  0  0  0
   -0.2460    1.7094   -1.7452 O   0  0  0  0  0  0  0  0  0  0  0  0
    0.1310    2.0180    1.9132 C   0  0  2  0  0  0  0  0  0  0  0  0
   -0.7789    2.0097    3.1617 C   0  0  0  0  0  0  0  0  0  0  0  0
    0.7357    3.4059    1.6629 C   0  0  0  0  0  0  0  0  0  0  0  0
   -0.0231    2.2340    4.4651 C   0  0  0  0  0  0  0  0  0  0  0  0
   -1.9022   -0.1128    0.2753 H   0  0  0  0  0  0  0  0  0  0  0  0
   -1.5194    2.1146    0.4953 H   0  0  0  0  0  0  0  0  0  0  0  0
    0.9679    1.3336    2.1063 H   0  0  0  0  0  0  0  0  0  0  0  0
   -1.5309    2.8022    3.0734 H   0  0  0  0  0  0  0  0  0  0  0  0
   -1.3244    1.0611    3.2309 H   0  0  0  0  0  0  0  0  0  0  0  0
   -0.0498    4.1423    1.4621 H   0  0  0  0  0  0  0  0  0  0  0  0
    1.2905    3.7598    2.5372 H   0  0  0  0  0  0  0  0  0  0  0  0
    1.4203    3.3975    0.8084 H   0  0  0  0  0  0  0  0  0  0  0  0
    0.7485    1.4744    4.6193 H   0  0  0  0  0  0  0  0  0  0  0  0
   -0.7140    2.1774    5.3127 H   0  0  0  0  0  0  0  0  0  0  0  0
    0.4504    3.2206    4.4805 H   0  0  0  0  0  0  0  0  0  0  0  0
    1.5943    1.7583   -0.3309 N   0  0  0  0  0  0  0  0  0  0  0  0
    2.6099    1.9177   -1.3466 C   0  0  2  0  0  0  0  0  0  0  0  0
    3.7973    2.6334   -0.7163 C   0  0  0  0  0  0  0  0  0  0  0  0
    3.7024    3.3304    0.2917 O   0  0  0  0  0  0  0  0  0  0  0  0
    2.0797    2.6937   -2.5422 C   0  0  0  0  0  0  0  0  0  0  0  0
    1.8865    1.7151    0.6410 H   0  0  0  0  0  0  0  0  0  0  0  0
    2.9110    0.9101   -1.6536 H   0  0  0  0  0  0  0  0  0  0  0  0
    1.7730    3.7058   -2.2541 H   0  0  0  0  0  0  0  0  0  0  0  0
    2.8415    2.7888   -3.3230 H   0  0  0  0  0  0  0  0  0  0  0  0
    1.2074    2.1929   -2.9761 H   0  0  0  0  0  0  0  0  0  0  0  0
    4.9673    2.4371   -1.4366 N   0  0  0  0  0  0  0  0  0  0  0  0
    6.2291    3.0231   -1.0488 C   0  0  0  0  0  0  0  0  0  0  0  0
    4.9574    1.8284   -2.2496 H   0  0  0  0  0  0  0  0  0  0  0  0
    6.3579    3.9889   -1.5594 H   0  0  0  0  0  0  0  0  0  0  0  0
    6.2414    3.1797    0.0400 H   0  0  0  0  0  0  0  0  0  0  0  0
    7.0495    2.3469   -1.3312 H   0  0  0  0  0  0  0  0  0  0  0  0
  1  3  1  0  0  0  0
  1  7  1  0  0  0  0
  1  2  2  0  0  0  0
 37 38  1  0  0  0  0
 38 46  1  0  0  0  0
 38 39  2  0  0  0  0
  8  9  1  0  0  0  0
  9 17  1  0  0  0  0
  9 10  2  0  0  0  0
 18 19  1  0  0  0  0
 19 36  1  0  0  0  0
 19 20  2  0  0  0  0
 22 24  1  0  0  0  0
 37 40  1  0  0  0  0
  8 11  1  0  0  0  0
 21 23  1  0  0  0  0
 46 47  1  0  0  0  0
 21 22  1  0  0  0  0
 36 37  1  0  0  0  0
  7  8  1  0  0  0  0
 18 21  1  0  0  0  0
 17 18  1  0  0  0  0
  3  4  1  0  0  0  0
  3  5  1  0  0  0  0
  3  6  1  0  0  0  0
 24 33  1  0  0  0  0
 24 34  1  0  0  0  0
 24 35  1  0  0  0  0
 40 43  1  0  0  0  0
 40 44  1  0  0  0  0
 40 45  1  0  0  0  0
 11 14  1  0  0  0  0
 11 15  1  0  0  0  0
 11 16  1  0  0  0  0
 23 30  1  0  0  0  0
 23 31  1  0  0  0  0
 23 32  1  0  0  0  0
 47 49  1  0  0  0  0
 47 50  1  0  0  0  0
 47 51  1  0  0  0  0
 22 28  1  0  0  0  0
 22 29  1  0  0  0  0
 37 42  1  0  0  0  0
  8 13  1  0  0  0  0
 18 26  1  0  0  0  0
 21 27  1  0  0  0  0
 46 48  1  0  0  0  0
  7 12  1  0  0  0  0
 36 41  1  0  0  0  0
 17 25  1  0  0  0  0
M  END
$$$$

  -OEChem-05262214473D

 51 50  0     1  0  0  0  0  0999 V2000
    1.3524   -3.0009    1.4091 C   0  0  0  0  0  0  0  0  0  0  0  0
    1.8758   -1.9880    0.9598 O   0  0  0  0  0  0  0  0  0  0  0  0
    2.2030   -4.1782    1.7536 C   0  0  0  0  0  0  0  0  0  0  0  0
    2.3264   -4.8705    0.9053 H   0  0  0  0  0  0  0  0  0  0  0  0
    3.2257   -3.8876    2.0432 H   0  0  0  0  0  0  0  0  0  0  0  0
    1.8327   -4.8004    2.5839 H   0  0  0  0  0  0  0  0  0  0  0  0
    0.0005   -3.1873    1.6465 N   0  0  0  0  0  0  0  0  0  0  0  0
   -0.9949   -2.1807    1.3864 C   0  0  2  0  0  0  0  0  0  0  0  0
   -0.3083   -0.8216    1.4164 C   0  0  0  0  0  0  0  0  0  0  0  0
    0.7533   -0.6191    2.0022 O   0  0  0  0  0  0  0  0  0  0  0  0
   -2.1232   -2.2423    2.4042 C   0  0  0  0  0  0  0  0  0  0  0  0
   -0.3048   -4.0823    2.0245 H   0  0  0  0  0  0  0  0  0  0  0  0
   -1.3830   -2.3724    0.3801 H   0  0  0  0  0  0  0  0  0  0  0  0
   -1.7534   -2.0527    3.4185 H   0  0  0  0  0  0  0  0  0  0  0  0
   -2.8936   -1.4947    2.1882 H   0  0  0  0  0  0  0  0  0  0  0  0
   -2.5964   -3.2301    2.4022 H   0  0  0  0  0  0  0  0  0  0  0  0
   -1.0412    0.1517    0.7482 N   0  0  0  0  0  0  0  0  0  0  0  0
   -0.6079    1.5223    0.6467 C   0  0  2  0  0  0  0  0  0  0  0  0
    0.2400    1.6614   -0.6169 C   0  0  0  0  0  0  0  0  0  0  0  0
   -0.2331    1.9759   -1.7072 O   0  0  0  0  0  0  0  0  0  0  0  0
    0.1310    2.0180    1.9132 C   0  0  2  0  0  0  0  0  0  0  0  0
   -0.7789    2.0097    3.1617 C   0  0  0  0  0  0  0  0  0  0  0  0
    0.7357    3.4059    1.6629 C   0  0  0  0  0  0  0  0  0  0  0  0
   -0.0231    2.2340    4.4651 C   0  0  0  0  0  0  0  0  0  0  0  0
   -1.9022   -0.1128    0.2753 H   0  0  0  0  0  0  0  0  0  0  0  0
   -1.5194    2.1146    0.4953 H   0  0  0  0  0  0  0  0  0  0  0  0
    0.9679    1.3336    2.1063 H   0  0  0  0  0  0  0  0  0  0  0  0
   -1.5309    2.8022    3.0734 H   0  0  0  0  0  0  0  0  0  0  0  0
   -1.3244    1.0611    3.2309 H   0  0  0  0  0  0  0  0  0  0  0  0
   -0.0498    4.1423    1.4621 H   0  0  0  0  0  0  0  0  0  0  0  0
    1.2905    3.7598    2.5372 H   0  0  0  0  0  0  0  0  0  0  0  0
    1.4203    3.3975    0.8084 H   0  0  0  0  0  0  0  0  0  0  0  0
    0.7485    1.4744    4.6193 H   0  0  0  0  0  0  0  0  0  0  0  0
   -0.7140    2.1774    5.3127 H   0  0  0  0  0  0  0  0  0  0  0  0
    0.4504    3.2206    4.4805 H   0  0  0  0  0  0  0  0  0  0  0  0
    1.5856    1.4257   -0.3734 N   0  0  0  0  0  0  0  0  0  0  0  0
    2.6035    1.5125   -1.3955 C   0  0  2  0  0  0  0  0  0  0  0  0
    3.9223    1.8598   -0.7176 C   0  0  0  0  0  0  0  0  0  0  0  0
    3.9880    2.4061    0.3816 O   0  0  0  0  0  0  0  0  0  0  0  0
    2.2437    2.5496   -2.4480 C   0  0  0  0  0  0  0  0  0  0  0  0
    1.8692    1.1798    0.5704 H   0  0  0  0  0  0  0  0  0  0  0  0
    2.6777    0.5200   -1.8531 H   0  0  0  0  0  0  0  0  0  0  0  0
    2.1649    3.5505   -2.0082 H   0  0  0  0  0  0  0  0  0  0  0  0
    3.0019    2.5940   -3.2368 H   0  0  0  0  0  0  0  0  0  0  0  0
    1.2806    2.3144   -2.9137 H   0  0  0  0  0  0  0  0  0  0  0  0
    5.0167    1.5271   -1.5036 N   0  0  0  0  0  0  0  0  0  0  0  0
    6.3782    1.7687   -1.0868 C   0  0  0  0  0  0  0  0  0  0  0  0
    4.8692    1.0598   -2.3934 H   0  0  0  0  0  0  0  0  0  0  0  0
    6.7083    2.7491   -1.4608 H   0  0  0  0  0  0  0  0  0  0  0  0
    6.4326    1.7582    0.0118 H   0  0  0  0  0  0  0  0  0  0  0  0
    7.0311    0.9824   -1.4937 H   0  0  0  0  0  0  0  0  0  0  0  0
  1  3  1  0  0  0  0
  1  7  1  0  0  0  0
  1  2  2  0  0  0  0
 37 38  1  0  0  0  0
 38 46  1  0  0  0  0
 38 39  2  0  0  0  0
  8  9  1  0  0  0  0
  9 17  1  0  0  0  0
  9 10  2  0  0  0  0
 18 19  1  0  0  0  0
 19 36  1  0  0  0  0
 19 20  2  0  0  0  0
 22 24  1  0  0  0  0
 37 40  1  0  0  0  0
  8 11  1  0  0  0  0
 21 23  1  0  0  0  0
 46 47  1  0  0  0  0
 21 22  1  0  0  0  0
 36 37  1  0  0  0  0
  7  8  1  0  0  0  0
 18 21  1  0  0  0  0
 17 18  1  0  0  0  0
  3  4  1  0  0  0  0
  3  5  1  0  0  0  0
  3  6  1  0  0  0  0
 24 33  1  0  0  0  0
 24 34  1  0  0  0  0
 24 35  1  0  0  0  0
 40 43  1  0  0  0  0
 40 44  1  0  0  0  0
 40 45  1  0  0  0  0
 11 14  1  0  0  0  0
 11 15  1  0  0  0  0
 11 16  1  0  0  0  0
 23 30  1  0  0  0  0
 23 31  1  0  0  0  0
 23 32  1  0  0  0  0
 47 49  1  0  0  0  0
 47 50  1  0  0  0  0
 47 51  1  0  0  0  0
 22 28  1  0  0  0  0
 22 29  1  0  0  0  0
 37 42  1  0  0  0  0
  8 13  1  0  0  0  0
 18 26  1  0  0  0  0
 21 27  1  0  0  0  0
 46 48  1  0  0  0  0
  7 12  1  0  0  0  0
 36 41  1  0  0  0  0
 17 25  1  0  0  0  0
M  END
$$$$

  -OEChem-05262214473D

 51 50  0     1  0  0  0  0  0999 V2000
    1.3524   -3.0009    1.4091 C   0  0  0  0  0  0  0  0  0  0  0  0
    1.8758   -1.9880    0.9598 O   0  0  0  0  0  0  0  0  0  0  0  0
    2.2030   -4.1782    1.7536 C   0  0  0  0  0  0  0  0  0  0  0  0
    2.3264   -4.8705    0.9053 H   0  0  0  0  0  0  0  0  0  0  0  0
    3.2257   -3.8876    2.0432 H   0  0  0  0  0  0  0  0  0  0  0  0
    1.8327   -4.8004    2.5839 H   0  0  0  0  0  0  0  0  0  0  0  0
    0.0005   -3.1873    1.6465 N   0  0  0  0  0  0  0  0  0  0  0  0
   -0.9949   -2.1807    1.3864 C   0  0  2  0  0  0  0  0  0  0  0  0
   -0.3083   -0.8216    1.4164 C   0  0  0  0  0  0  0  0  0  0  0  0
    0.7533   -0.6191    2.0022 O   0  0  0  0  0  0  0  0  0  0  0  0
   -2.1232   -2.2423    2.4042 C   0  0  0  0  0  0  0  0  0  0  0  0
   -0.3048   -4.0823    2.0245 H   0  0  0  0  0  0  0  0  0  0  0  0
   -1.3830   -2.3724    0.3801 H   0  0  0  0  0  0  0  0  0  0  0  0
   -1.7534   -2.0527    3.4185 H   0  0  0  0  0  0  0  0  0  0  0  0
   -2.8936   -1.4947    2.1882 H   0  0  0  0  0  0  0  0  0  0  0  0
   -2.5964   -3.2301    2.4022 H   0  0  0  0  0  0  0  0  0  0  0  0
   -1.0412    0.1517    0.7482 N   0  0  0  0  0  0  0  0  0  0  0  0
   -0.6079    1.5223    0.6467 C   0  0  2  0  0  0  0  0  0  0  0  0
    0.2400    1.6614   -0.6169 C   0  0  0  0  0  0  0  0  0  0  0  0
   -0.1627    2.2251   -1.6326 O   0  0  0  0  0  0  0  0  0  0  0  0
    0.1310    2.0180    1.9132 C   0  0  2  0  0  0  0  0  0  0  0  0
   -0.7789    2.0097    3.1617 C   0  0  0  0  0  0  0  0  0  0  0  0
    0.7357    3.4059    1.6629 C   0  0  0  0  0  0  0  0  0  0  0  0
   -0.0231    2.2340    4.4651 C   0  0  0  0  0  0  0  0  0  0  0  0
   -1.9022   -0.1128    0.2753 H   0  0  0  0  0  0  0  0  0  0  0  0
   -1.5194    2.1146    0.4953 H   0  0  0  0  0  0  0  0  0  0  0  0
    0.9679    1.3336    2.1063 H   0  0  0  0  0  0  0  0  0  0  0  0
   -1.5309    2.8022    3.0734 H   0  0  0  0  0  0  0  0  0  0  0  0
   -1.3244    1.0611    3.2309 H   0  0  0  0  0  0  0  0  0  0  0  0
   -0.0498    4.1423    1.4621 H   0  0  0  0  0  0  0  0  0  0  0  0
    1.2905    3.7598    2.5372 H   0  0  0  0  0  0  0  0  0  0  0  0
    1.4203    3.3975    0.8084 H   0  0  0  0  0  0  0  0  0  0  0  0
    0.7485    1.4744    4.6193 H   0  0  0  0  0  0  0  0  0  0  0  0
   -0.7140    2.1774    5.3127 H   0  0  0  0  0  0  0  0  0  0  0  0
    0.4504    3.2206    4.4805 H   0  0  0  0  0  0  0  0  0  0  0  0
    1.5049    1.1124   -0.4620 N   0  0  0  0  0  0  0  0  0  0  0  0
    2.5095    1.1296   -1.5008 C   0  0  2  0  0  0  0  0  0  0  0  0
    3.8775    1.0860   -0.8329 C   0  0  0  0  0  0  0  0  0  0  0  0
    4.0682    1.4392    0.3290 O   0  0  0  0  0  0  0  0  0  0  0  0
    2.3736    2.3619   -2.3816 C   0  0  0  0  0  0  0  0  0  0  0  0
    1.7363    0.6766    0.4258 H   0  0  0  0  0  0  0  0  0  0  0  0
    2.3641    0.2217   -2.0964 H   0  0  0  0  0  0  0  0  0  0  0  0
    2.5161    3.2814   -1.8022 H   0  0  0  0  0  0  0  0  0  0  0  0
    3.1172    2.3590   -3.1853 H   0  0  0  0  0  0  0  0  0  0  0  0
    1.3787    2.4072   -2.8376 H   0  0  0  0  0  0  0  0  0  0  0  0
    4.8680    0.6471   -1.7003 N   0  0  0  0  0  0  0  0  0  0  0  0
    6.2529    0.5305   -1.3072 C   0  0  0  0  0  0  0  0  0  0  0  0
    4.6162    0.3570   -2.6406 H   0  0  0  0  0  0  0  0  0  0  0  0
    6.7837    1.4624   -1.5518 H   0  0  0  0  0  0  0  0  0  0  0  0
    6.3124    0.3483   -0.2241 H   0  0  0  0  0  0  0  0  0  0  0  0
    6.7175   -0.3083   -1.8463 H   0  0  0  0  0  0  0  0  0  0  0  0
  1  3  1  0  0  0  0
  1  7  1  0  0  0  0
  1  2  2  0  0  0  0
 37 38  1  0  0  0  0
 38 46  1  0  0  0  0
 38 39  2  0  0  0  0
  8  9  1  0  0  0  0
  9 17  1  0  0  0  0
  9 10  2  0  0  0  0
 18 19  1  0  0  0  0
 19 36  1  0  0  0  0
 19 20  2  0  0  0  0
 22 24  1  0  0  0  0
 37 40  1  0  0  0  0
  8 11  1  0  0  0  0
 21 23  1  0  0  0  0
 46 47  1  0  0  0  0
 21 22  1  0  0  0  0
 36 37  1  0  0  0  0
  7  8  1  0  0  0  0
 18 21  1  0  0  0  0
 17 18  1  0  0  0  0
  3  4  1  0  0  0  0
  3  5  1  0  0  0  0
  3  6  1  0  0  0  0
 24 33  1  0  0  0  0
 24 34  1  0  0  0  0
 24 35  1  0  0  0  0
 40 43  1  0  0  0  0
 40 44  1  0  0  0  0
 40 45  1  0  0  0  0
 11 14  1  0  0  0  0
 11 15  1  0  0  0  0
 11 16  1  0  0  0  0
 23 30  1  0  0  0  0
 23 31  1  0  0  0  0
 23 32  1  0  0  0  0
 47 49  1  0  0  0  0
 47 50  1  0  0  0  0
 47 51  1  0  0  0  0
 22 28  1  0  0  0  0
 22 29  1  0  0  0  0
 37 42  1  0  0  0  0
  8 13  1  0  0  0  0
 18 26  1  0  0  0  0
 21 27  1  0  0  0  0
 46 48  1  0  0  0  0
  7 12  1  0  0  0  0
 36 41  1  0  0  0  0
 17 25  1  0  0  0  0
M  END
$$$$

  -OEChem-05262214473D

 51 50  0     1  0  0  0  0  0999 V2000
    1.3524   -3.0009    1.4091 C   0  0  0  0  0  0  0  0  0  0  0  0
    1.8758   -1.9880    0.9598 O   0  0  0  0  0  0  0  0  0  0  0  0
    2.2030   -4.1782    1.7536 C   0  0  0  0  0  0  0  0  0  0  0  0
    2.3264   -4.8705    0.9053 H   0  0  0  0  0  0  0  0  0  0  0  0
    3.2257   -3.8876    2.0432 H   0  0  0  0  0  0  0  0  0  0  0  0
    1.8327   -4.8004    2.5839 H   0  0  0  0  0  0  0  0  0  0  0  0
    0.0005   -3.1873    1.6465 N   0  0  0  0  0  0  0  0  0  0  0  0
   -0.9949   -2.1807    1.3864 C   0  0  2  0  0  0  0  0  0  0  0  0
   -0.3083   -0.8216    1.4164 C   0  0  0  0  0  0  0  0  0  0  0  0
    0.7533   -0.6191    2.0022 O   0  0  0  0  0  0  0  0  0  0  0  0
   -2.1232   -2.2423    2.4042 C   0  0  0  0  0  0  0  0  0  0  0  0
   -0.3048   -4.0823    2.0245 H   0  0  0  0  0  0  0  0  0  0  0  0
   -1.3830   -2.3724    0.3801 H   0  0  0  0  0  0  0  0  0  0  0  0
   -1.7534   -2.0527    3.4185 H   0  0  0  0  0  0  0  0  0  0  0  0
   -2.8936   -1.4947    2.1882 H   0  0  0  0  0  0  0  0  0  0  0  0
   -2.5964   -3.2301    2.4022 H   0  0  0  0  0  0  0  0  0  0  0  0
   -1.0412    0.1517    0.7482 N   0  0  0  0  0  0  0  0  0  0  0  0
   -0.6079    1.5223    0.6467 C   0  0  2  0  0  0  0  0  0  0  0  0
    0.2400    1.6614   -0.6169 C   0  0  0  0  0  0  0  0  0  0  0  0
   -0.0397    2.4400   -1.5264 O   0  0  0  0  0  0  0  0  0  0  0  0
    0.1310    2.0180    1.9132 C   0  0  2  0  0  0  0  0  0  0  0  0
   -0.7789    2.0097    3.1617 C   0  0  0  0  0  0  0  0  0  0  0  0
    0.7357    3.4059    1.6629 C   0  0  0  0  0  0  0  0  0  0  0  0
   -0.0231    2.2340    4.4651 C   0  0  0  0  0  0  0  0  0  0  0  0
   -1.9022   -0.1128    0.2753 H   0  0  0  0  0  0  0  0  0  0  0  0
   -1.5194    2.1146    0.4953 H   0  0  0  0  0  0  0  0  0  0  0  0
    0.9679    1.3336    2.1063 H   0  0  0  0  0  0  0  0  0  0  0  0
   -1.5309    2.8022    3.0734 H   0  0  0  0  0  0  0  0  0  0  0  0
   -1.3244    1.0611    3.2309 H   0  0  0  0  0  0  0  0  0  0  0  0
   -0.0498    4.1423    1.4621 H   0  0  0  0  0  0  0  0  0  0  0  0
    1.2905    3.7598    2.5372 H   0  0  0  0  0  0  0  0  0  0  0  0
    1.4203    3.3975    0.8084 H   0  0  0  0  0  0  0  0  0  0  0  0
    0.7485    1.4744    4.6193 H   0  0  0  0  0  0  0  0  0  0  0  0
   -0.7140    2.1774    5.3127 H   0  0  0  0  0  0  0  0  0  0  0  0
    0.4504    3.2206    4.4805 H   0  0  0  0  0  0  0  0  0  0  0  0
    1.3578    0.8397   -0.5907 N   0  0  0  0  0  0  0  0  0  0  0  0
    2.3342    0.7949   -1.6552 C   0  0  2  0  0  0  0  0  0  0  0  0
    3.6658    0.3648   -1.0543 C   0  0  0  0  0  0  0  0  0  0  0  0
    3.9375    0.4957    0.1374 O   0  0  0  0  0  0  0  0  0  0  0  0
    2.4604    2.1432   -2.3474 C   0  0  0  0  0  0  0  0  0  0  0  0
    1.4968    0.2398    0.2171 H   0  0  0  0  0  0  0  0  0  0  0  0
    1.9917    0.0357   -2.3668 H   0  0  0  0  0  0  0  0  0  0  0  0
    2.8025    2.9167   -1.6502 H   0  0  0  0  0  0  0  0  0  0  0  0
    3.1795    2.1000   -3.1720 H   0  0  0  0  0  0  0  0  0  0  0  0
    1.4951    2.4648   -2.7531 H   0  0  0  0  0  0  0  0  0  0  0  0
    4.5314   -0.1428   -2.0131 N   0  0  0  0  0  0  0  0  0  0  0  0
    5.8616   -0.6069   -1.6950 C   0  0  0  0  0  0  0  0  0  0  0  0
    4.2155   -0.2322   -2.9743 H   0  0  0  0  0  0  0  0  0  0  0  0
    6.5790    0.2165   -1.8263 H   0  0  0  0  0  0  0  0  0  0  0  0
    5.8890   -0.9540   -0.6515 H   0  0  0  0  0  0  0  0  0  0  0  0
    6.1300   -1.4372   -2.3647 H   0  0  0  0  0  0  0  0  0  0  0  0
  1  3  1  0  0  0  0
  1  7  1  0  0  0  0
  1  2  2  0  0  0  0
 37 38  1  0  0  0  0
 38 46  1  0  0  0  0
 38 39  2  0  0  0  0
  8  9  1  0  0  0  0
  9 17  1  0  0  0  0
  9 10  2  0  0  0  0
 18 19  1  0  0  0  0
 19 36  1  0  0  0  0
 19 20  2  0  0  0  0
 22 24  1  0  0  0  0
 37 40  1  0  0  0  0
  8 11  1  0  0  0  0
 21 23  1  0  0  0  0
 46 47  1  0  0  0  0
 21 22  1  0  0  0  0
 36 37  1  0  0  0  0
  7  8  1  0  0  0  0
 18 21  1  0  0  0  0
 17 18  1  0  0  0  0
  3  4  1  0  0  0  0
  3  5  1  0  0  0  0
  3  6  1  0  0  0  0
 24 33  1  0  0  0  0
 24 34  1  0  0  0  0
 24 35  1  0  0  0  0
 40 43  1  0  0  0  0
 40 44  1  0  0  0  0
 40 45  1  0  0  0  0
 11 14  1  0  0  0  0
 11 15  1  0  0  0  0
 11 16  1  0  0  0  0
 23 30  1  0  0  0  0
 23 31  1  0  0  0  0
 23 32  1  0  0  0  0
 47 49  1  0  0  0  0
 47 50  1  0  0  0  0
 47 51  1  0  0  0  0
 22 28  1  0  0  0  0
 22 29  1  0  0  0  0
 37 42  1  0  0  0  0
  8 13  1  0  0  0  0
 18 26  1  0  0  0  0
 21 27  1  0  0  0  0
 46 48  1  0  0  0  0
  7 12  1  0  0  0  0
 36 41  1  0  0  0  0
 17 25  1  0  0  0  0
M  END
$$$$

  -OEChem-05262214473D

 51 50  0     1  0  0  0  0  0999 V2000
    1.3524   -3.0009    1.4091 C   0  0  0  0  0  0  0  0  0  0  0  0
    1.8758   -1.9880    0.9598 O   0  0  0  0  0  0  0  0  0  0  0  0
    2.2030   -4.1782    1.7536 C   0  0  0  0  0  0  0  0  0  0  0  0
    2.3264   -4.8705    0.9053 H   0  0  0  0  0  0  0  0  0  0  0  0
    3.2257   -3.8876    2.0432 H   0  0  0  0  0  0  0  0  0  0  0  0
    1.8327   -4.8004    2.5839 H   0  0  0  0  0  0  0  0  0  0  0  0
    0.0005   -3.1873    1.6465 N   0  0  0  0  0  0  0  0  0  0  0  0
   -0.9949   -2.1807    1.3864 C   0  0  2  0  0  0  0  0  0  0  0  0
   -0.3083   -0.8216    1.4164 C   0  0  0  0  0  0  0  0  0  0  0  0
    0.7533   -0.6191    2.0022 O   0  0  0  0  0  0  0  0  0  0  0  0
   -2.1232   -2.2423    2.4042 C   0  0  0  0  0  0  0  0  0  0  0  0
   -0.3048   -4.0823    2.0245 H   0  0  0  0  0  0  0  0  0  0  0  0
   -1.3830   -2.3724    0.3801 H   0  0  0  0  0  0  0  0  0  0  0  0
   -1.7534   -2.0527    3.4185 H   0  0  0  0  0  0  0  0  0  0  0  0
   -2.8936   -1.4947    2.1882 H   0  0  0  0  0  0  0  0  0  0  0  0
   -2.5964   -3.2301    2.4022 H   0  0  0  0  0  0  0  0  0  0  0  0
   -1.0412    0.1517    0.7482 N   0  0  0  0  0  0  0  0  0  0  0  0
   -0.6079    1.5223    0.6467 C   0  0  2  0  0  0  0  0  0  0  0  0
    0.2400    1.6614   -0.6169 C   0  0  0  0  0  0  0  0  0  0  0  0
    0.1277    2.6060   -1.3958 O   0  0  0  0  0  0  0  0  0  0  0  0
    0.1310    2.0180    1.9132 C   0  0  2  0  0  0  0  0  0  0  0  0
   -0.7789    2.0097    3.1617 C   0  0  0  0  0  0  0  0  0  0  0  0
    0.7357    3.4059    1.6629 C   0  0  0  0  0  0  0  0  0  0  0  0
   -0.0231    2.2340    4.4651 C   0  0  0  0  0  0  0  0  0  0  0  0
   -1.9022   -0.1128    0.2753 H   0  0  0  0  0  0  0  0  0  0  0  0
   -1.5194    2.1146    0.4953 H   0  0  0  0  0  0  0  0  0  0  0  0
    0.9679    1.3336    2.1063 H   0  0  0  0  0  0  0  0  0  0  0  0
   -1.5309    2.8022    3.0734 H   0  0  0  0  0  0  0  0  0  0  0  0
   -1.3244    1.0611    3.2309 H   0  0  0  0  0  0  0  0  0  0  0  0
   -0.0498    4.1423    1.4621 H   0  0  0  0  0  0  0  0  0  0  0  0
    1.2905    3.7598    2.5372 H   0  0  0  0  0  0  0  0  0  0  0  0
    1.4203    3.3975    0.8084 H   0  0  0  0  0  0  0  0  0  0  0  0
    0.7485    1.4744    4.6193 H   0  0  0  0  0  0  0  0  0  0  0  0
   -0.7140    2.1774    5.3127 H   0  0  0  0  0  0  0  0  0  0  0  0
    0.4504    3.2206    4.4805 H   0  0  0  0  0  0  0  0  0  0  0  0
    1.1544    0.6263   -0.7507 N   0  0  0  0  0  0  0  0  0  0  0  0
    2.0896    0.5314   -1.8484 C   0  0  2  0  0  0  0  0  0  0  0  0
    3.3018   -0.2548   -1.3668 C   0  0  0  0  0  0  0  0  0  0  0  0
    3.6048   -0.3602   -0.1801 O   0  0  0  0  0  0  0  0  0  0  0  0
    2.4982    1.9084   -2.3478 C   0  0  0  0  0  0  0  0  0  0  0  0
    1.1671   -0.1009   -0.0417 H   0  0  0  0  0  0  0  0  0  0  0  0
    1.5857   -0.0255   -2.6459 H   0  0  0  0  0  0  0  0  0  0  0  0
    3.0047    2.4813   -1.5625 H   0  0  0  0  0  0  0  0  0  0  0  0
    3.1846    1.8346   -3.1979 H   0  0  0  0  0  0  0  0  0  0  0  0
    1.6219    2.4835   -2.6660 H   0  0  0  0  0  0  0  0  0  0  0  0
    4.0299   -0.7889   -2.4207 N   0  0  0  0  0  0  0  0  0  0  0  0
    5.2311   -1.5662   -2.2237 C   0  0  0  0  0  0  0  0  0  0  0  0
    3.6945   -0.6676   -3.3718 H   0  0  0  0  0  0  0  0  0  0  0  0
    6.1082   -0.9037   -2.2656 H   0  0  0  0  0  0  0  0  0  0  0  0
    5.1912   -2.0599   -1.2415 H   0  0  0  0  0  0  0  0  0  0  0  0
    5.3087   -2.3275   -3.0138 H   0  0  0  0  0  0  0  0  0  0  0  0
  1  3  1  0  0  0  0
  1  7  1  0  0  0  0
  1  2  2  0  0  0  0
 37 38  1  0  0  0  0
 38 46  1  0  0  0  0
 38 39  2  0  0  0  0
  8  9  1  0  0  0  0
  9 17  1  0  0  0  0
  9 10  2  0  0  0  0
 18 19  1  0  0  0  0
 19 36  1  0  0  0  0
 19 20  2  0  0  0  0
 22 24  1  0  0  0  0
 37 40  1  0  0  0  0
  8 11  1  0  0  0  0
 21 23  1  0  0  0  0
 46 47  1  0  0  0  0
 21 22  1  0  0  0  0
 36 37  1  0  0  0  0
  7  8  1  0  0  0  0
 18 21  1  0  0  0  0
 17 18  1  0  0  0  0
  3  4  1  0  0  0  0
  3  5  1  0  0  0  0
  3  6  1  0  0  0  0
 24 33  1  0  0  0  0
 24 34  1  0  0  0  0
 24 35  1  0  0  0  0
 40 43  1  0  0  0  0
 40 44  1  0  0  0  0
 40 45  1  0  0  0  0
 11 14  1  0  0  0  0
 11 15  1  0  0  0  0
 11 16  1  0  0  0  0
 23 30  1  0  0  0  0
 23 31  1  0  0  0  0
 23 32  1  0  0  0  0
 47 49  1  0  0  0  0
 47 50  1  0  0  0  0
 47 51  1  0  0  0  0
 22 28  1  0  0  0  0
 22 29  1  0  0  0  0
 37 42  1  0  0  0  0
  8 13  1  0  0  0  0
 18 26  1  0  0  0  0
 21 27  1  0  0  0  0
 46 48  1  0  0  0  0
  7 12  1  0  0  0  0
 36 41  1  0  0  0  0
 17 25  1  0  0  0  0
M  END
$$$$

  -OEChem-05262214473D

 51 50  0     1  0  0  0  0  0999 V2000
    1.3524   -3.0009    1.4091 C   0  0  0  0  0  0  0  0  0  0  0  0
    1.8758   -1.9880    0.9598 O   0  0  0  0  0  0  0  0  0  0  0  0
    2.2030   -4.1782    1.7536 C   0  0  0  0  0  0  0  0  0  0  0  0
    2.3264   -4.8705    0.9053 H   0  0  0  0  0  0  0  0  0  0  0  0
    3.2257   -3.8876    2.0432 H   0  0  0  0  0  0  0  0  0  0  0  0
    1.8327   -4.8004    2.5839 H   0  0  0  0  0  0  0  0  0  0  0  0
    0.0005   -3.1873    1.6465 N   0  0  0  0  0  0  0  0  0  0  0  0
   -0.9949   -2.1807    1.3864 C   0  0  2  0  0  0  0  0  0  0  0  0
   -0.3083   -0.8216    1.4164 C   0  0  0  0  0  0  0  0  0  0  0  0
    0.7533   -0.6191    2.0022 O   0  0  0  0  0  0  0  0  0  0  0  0
   -2.1232   -2.2423    2.4042 C   0  0  0  0  0  0  0  0  0  0  0  0
   -0.3048   -4.0823    2.0245 H   0  0  0  0  0  0  0  0  0  0  0  0
   -1.3830   -2.3724    0.3801 H   0  0  0  0  0  0  0  0  0  0  0  0
   -1.7534   -2.0527    3.4185 H   0  0  0  0  0  0  0  0  0  0  0  0
   -2.8936   -1.4947    2.1882 H   0  0  0  0  0  0  0  0  0  0  0  0
   -2.5964   -3.2301    2.4022 H   0  0  0  0  0  0  0  0  0  0  0  0
   -1.0412    0.1517    0.7482 N   0  0  0  0  0  0  0  0  0  0  0  0
   -0.6079    1.5223    0.6467 C   0  0  2  0  0  0  0  0  0  0  0  0
    0.2400    1.6614   -0.6169 C   0  0  0  0  0  0  0  0  0  0  0  0
    0.3280    2.7118   -1.2498 O   0  0  0  0  0  0  0  0  0  0  0  0
    0.1310    2.0180    1.9132 C   0  0  2  0  0  0  0  0  0  0  0  0
   -0.7789    2.0097    3.1617 C   0  0  0  0  0  0  0  0  0  0  0  0
    0.7357    3.4059    1.6629 C   0  0  0  0  0  0  0  0  0  0  0  0
   -0.0231    2.2340    4.4651 C   0  0  0  0  0  0  0  0  0  0  0  0
   -1.9022   -0.1128    0.2753 H   0  0  0  0  0  0  0  0  0  0  0  0
   -1.5194    2.1146    0.4953 H   0  0  0  0  0  0  0  0  0  0  0  0
    0.9679    1.3336    2.1063 H   0  0  0  0  0  0  0  0  0  0  0  0
   -1.5309    2.8022    3.0734 H   0  0  0  0  0  0  0  0  0  0  0  0
   -1.3244    1.0611    3.2309 H   0  0  0  0  0  0  0  0  0  0  0  0
   -0.0498    4.1423    1.4621 H   0  0  0  0  0  0  0  0  0  0  0  0
    1.2905    3.7598    2.5372 H   0  0  0  0  0  0  0  0  0  0  0  0
    1.4203    3.3975    0.8084 H   0  0  0  0  0  0  0  0  0  0  0  0
    0.7485    1.4744    4.6193 H   0  0  0  0  0  0  0  0  0  0  0  0
   -0.7140    2.1774    5.3127 H   0  0  0  0  0  0  0  0  0  0  0  0
    0.4504    3.2206    4.4805 H   0  0  0  0  0  0  0  0  0  0  0  0
    0.9084    0.4867   -0.9311 N   0  0  0  0  0  0  0  0  0  0  0  0
    1.7924    0.3569   -2.0670 C   0  0  2  0  0  0  0  0  0  0  0  0
    2.8102   -0.7305   -1.7490 C   0  0  0  0  0  0  0  0  0  0  0  0
    3.0927   -1.0701   -0.6018 O   0  0  0  0  0  0  0  0  0  0  0  0
    2.4845    1.6736   -2.3829 C   0  0  0  0  0  0  0  0  0  0  0  0
    0.7695   -0.3222   -0.3328 H   0  0  0  0  0  0  0  0  0  0  0  0
    1.1739    0.0424   -2.9147 H   0  0  0  0  0  0  0  0  0  0  0  0
    3.1089    2.0048   -1.5450 H   0  0  0  0  0  0  0  0  0  0  0  0
    3.1320    1.5809   -3.2611 H   0  0  0  0  0  0  0  0  0  0  0  0
    1.7504    2.4618   -2.5822 H   0  0  0  0  0  0  0  0  0  0  0  0
    3.3976   -1.2470   -2.8954 N   0  0  0  0  0  0  0  0  0  0  0  0
    4.4043   -2.2819   -2.8572 C   0  0  0  0  0  0  0  0  0  0  0  0
    3.0887   -0.9197   -3.8060 H   0  0  0  0  0  0  0  0  0  0  0  0
    5.4033   -1.8219   -2.8396 H   0  0  0  0  0  0  0  0  0  0  0  0
    4.2666   -2.8940   -1.9537 H   0  0  0  0  0  0  0  0  0  0  0  0
    4.3096   -2.9185   -3.7493 H   0  0  0  0  0  0  0  0  0  0  0  0
  1  3  1  0  0  0  0
  1  7  1  0  0  0  0
  1  2  2  0  0  0  0
 37 38  1  0  0  0  0
 38 46  1  0  0  0  0
 38 39  2  0  0  0  0
  8  9  1  0  0  0  0
  9 17  1  0  0  0  0
  9 10  2  0  0  0  0
 18 19  1  0  0  0  0
 19 36  1  0  0  0  0
 19 20  2  0  0  0  0
 22 24  1  0  0  0  0
 37 40  1  0  0  0  0
  8 11  1  0  0  0  0
 21 23  1  0  0  0  0
 46 47  1  0  0  0  0
 21 22  1  0  0  0  0
 36 37  1  0  0  0  0
  7  8  1  0  0  0  0
 18 21  1  0  0  0  0
 17 18  1  0  0  0  0
  3  4  1  0  0  0  0
  3  5  1  0  0  0  0
  3  6  1  0  0  0  0
 24 33  1  0  0  0  0
 24 34  1  0  0  0  0
 24 35  1  0  0  0  0
 40 43  1  0  0  0  0
 40 44  1  0  0  0  0
 40 45  1  0  0  0  0
 11 14  1  0  0  0  0
 11 15  1  0  0  0  0
 11 16  1  0  0  0  0
 23 30  1  0  0  0  0
 23 31  1  0  0  0  0
 23 32  1  0  0  0  0
 47 49  1  0  0  0  0
 47 50  1  0  0  0  0
 47 51  1  0  0  0  0
 22 28  1  0  0  0  0
 22 29  1  0  0  0  0
 37 42  1  0  0  0  0
  8 13  1  0  0  0  0
 18 26  1  0  0  0  0
 21 27  1  0  0  0  0
 46 48  1  0  0  0  0
  7 12  1  0  0  0  0
 36 41  1  0  0  0  0
 17 25  1  0  0  0  0
M  END
$$$$

  -OEChem-05262214473D

 51 50  0     1  0  0  0  0  0999 V2000
    1.3524   -3.0009    1.4091 C   0  0  0  0  0  0  0  0  0  0  0  0
    1.8758   -1.9880    0.9598 O   0  0  0  0  0  0  0  0  0  0  0  0
    2.2030   -4.1782    1.7536 C   0  0  0  0  0  0  0  0  0  0  0  0
    2.3264   -4.8705    0.9053 H   0  0  0  0  0  0  0  0  0  0  0  0
    3.2257   -3.8876    2.0432 H   0  0  0  0  0  0  0  0  0  0  0  0
    1.8327   -4.8004    2.5839 H   0  0  0  0  0  0  0  0  0  0  0  0
    0.0005   -3.1873    1.6465 N   0  0  0  0  0  0  0  0  0  0  0  0
   -0.9949   -2.1807    1.3864 C   0  0  2  0  0  0  0  0  0  0  0  0
   -0.3083   -0.8216    1.4164 C   0  0  0  0  0  0  0  0  0  0  0  0
    0.7533   -0.6191    2.0022 O   0  0  0  0  0  0  0  0  0  0  0  0
   -2.1232   -2.2423    2.4042 C   0  0  0  0  0  0  0  0  0  0  0  0
   -0.3048   -4.0823    2.0245 H   0  0  0  0  0  0  0  0  0  0  0  0
   -1.3830   -2.3724    0.3801 H   0  0  0  0  0  0  0  0  0  0  0  0
   -1.7534   -2.0527    3.4185 H   0  0  0  0  0  0  0  0  0  0  0  0
   -2.8936   -1.4947    2.1882 H   0  0  0  0  0  0  0  0  0  0  0  0
   -2.5964   -3.2301    2.4022 H   0  0  0  0  0  0  0  0  0  0  0  0
   -1.0412    0.1517    0.7482 N   0  0  0  0  0  0  0  0  0  0  0  0
   -0.6079    1.5223    0.6467 C   0  0  2  0  0  0  0  0  0  0  0  0
    0.2400    1.6614   -0.6169 C   0  0  0  0  0  0  0  0  0  0  0  0
    0.5475    2.7501   -1.0983 O   0  0  0  0  0  0  0  0  0  0  0  0
    0.1310    2.0180    1.9132 C   0  0  2  0  0  0  0  0  0  0  0  0
   -0.7789    2.0097    3.1617 C   0  0  0  0  0  0  0  0  0  0  0  0
    0.7357    3.4059    1.6629 C   0  0  0  0  0  0  0  0  0  0  0  0
   -0.0231    2.2340    4.4651 C   0  0  0  0  0  0  0  0  0  0  0  0
   -1.9022   -0.1128    0.2753 H   0  0  0  0  0  0  0  0  0  0  0  0
   -1.5194    2.1146    0.4953 H   0  0  0  0  0  0  0  0  0  0  0  0
    0.9679    1.3336    2.1063 H   0  0  0  0  0  0  0  0  0  0  0  0
   -1.5309    2.8022    3.0734 H   0  0  0  0  0  0  0  0  0  0  0  0
   -1.3244    1.0611    3.2309 H   0  0  0  0  0  0  0  0  0  0  0  0
   -0.0498    4.1423    1.4621 H   0  0  0  0  0  0  0  0  0  0  0  0
    1.2905    3.7598    2.5372 H   0  0  0  0  0  0  0  0  0  0  0  0
    1.4203    3.3975    0.8084 H   0  0  0  0  0  0  0  0  0  0  0  0
    0.7485    1.4744    4.6193 H   0  0  0  0  0  0  0  0  0  0  0  0
   -0.7140    2.1774    5.3127 H   0  0  0  0  0  0  0  0  0  0  0  0
    0.4504    3.2206    4.4805 H   0  0  0  0  0  0  0  0  0  0  0  0
    0.6367    0.4304   -1.1196 N   0  0  0  0  0  0  0  0  0  0  0  0
    1.4628    0.2833   -2.2962 C   0  0  2  0  0  0  0  0  0  0  0  0
    2.2246   -1.0299   -2.1749 C   0  0  0  0  0  0  0  0  0  0  0  0
    2.4362   -1.5856   -1.0991 O   0  0  0  0  0  0  0  0  0  0  0  0
    2.4202    1.4548   -2.4501 C   0  0  0  0  0  0  0  0  0  0  0  0
    0.3313   -0.4092   -0.6364 H   0  0  0  0  0  0  0  0  0  0  0  0
    0.7844    0.2347   -3.1549 H   0  0  0  0  0  0  0  0  0  0  0  0
    3.1079    1.5198   -1.5991 H   0  0  0  0  0  0  0  0  0  0  0  0
    3.0255    1.3561   -3.3573 H   0  0  0  0  0  0  0  0  0  0  0  0
    1.8719    2.4013   -2.5073 H   0  0  0  0  0  0  0  0  0  0  0  0
    2.6775   -1.4860   -3.4049 N   0  0  0  0  0  0  0  0  0  0  0  0
    3.4375   -2.7053   -3.5525 C   0  0  0  0  0  0  0  0  0  0  0  0
    2.4393   -0.9711   -4.2474 H   0  0  0  0  0  0  0  0  0  0  0  0
    4.5124   -2.4755   -3.5094 H   0  0  0  0  0  0  0  0  0  0  0  0
    3.1782   -3.3996   -2.7397 H   0  0  0  0  0  0  0  0  0  0  0  0
    3.2006   -3.1699   -4.5211 H   0  0  0  0  0  0  0  0  0  0  0  0
  1  3  1  0  0  0  0
  1  7  1  0  0  0  0
  1  2  2  0  0  0  0
 37 38  1  0  0  0  0
 38 46  1  0  0  0  0
 38 39  2  0  0  0  0
  8  9  1  0  0  0  0
  9 17  1  0  0  0  0
  9 10  2  0  0  0  0
 18 19  1  0  0  0  0
 19 36  1  0  0  0  0
 19 20  2  0  0  0  0
 22 24  1  0  0  0  0
 37 40  1  0  0  0  0
  8 11  1  0  0  0  0
 21 23  1  0  0  0  0
 46 47  1  0  0  0  0
 21 22  1  0  0  0  0
 36 37  1  0  0  0  0
  7  8  1  0  0  0  0
 18 21  1  0  0  0  0
 17 18  1  0  0  0  0
  3  4  1  0  0  0  0
  3  5  1  0  0  0  0
  3  6  1  0  0  0  0
 24 33  1  0  0  0  0
 24 34  1  0  0  0  0
 24 35  1  0  0  0  0
 40 43  1  0  0  0  0
 40 44  1  0  0  0  0
 40 45  1  0  0  0  0
 11 14  1  0  0  0  0
 11 15  1  0  0  0  0
 11 16  1  0  0  0  0
 23 30  1  0  0  0  0
 23 31  1  0  0  0  0
 23 32  1  0  0  0  0
 47 49  1  0  0  0  0
 47 50  1  0  0  0  0
 47 51  1  0  0  0  0
 22 28  1  0  0  0  0
 22 29  1  0  0  0  0
 37 42  1  0  0  0  0
  8 13  1  0  0  0  0
 18 26  1  0  0  0  0
 21 27  1  0  0  0  0
 46 48  1  0  0  0  0
  7 12  1  0  0  0  0
 36 41  1  0  0  0  0
 17 25  1  0  0  0  0
M  END
$$$$

  -OEChem-05262214473D

 51 50  0     1  0  0  0  0  0999 V2000
    1.3524   -3.0009    1.4091 C   0  0  0  0  0  0  0  0  0  0  0  0
    1.8758   -1.9880    0.9598 O   0  0  0  0  0  0  0  0  0  0  0  0
    2.2030   -4.1782    1.7536 C   0  0  0  0  0  0  0  0  0  0  0  0
    2.3264   -4.8705    0.9053 H   0  0  0  0  0  0  0  0  0  0  0  0
    3.2257   -3.8876    2.0432 H   0  0  0  0  0  0  0  0  0  0  0  0
    1.8327   -4.8004    2.5839 H   0  0  0  0  0  0  0  0  0  0  0  0
    0.0005   -3.1873    1.6465 N   0  0  0  0  0  0  0  0  0  0  0  0
   -0.9949   -2.1807    1.3864 C   0  0  2  0  0  0  0  0  0  0  0  0
   -0.3083   -0.8216    1.4164 C   0  0  0  0  0  0  0  0  0  0  0  0
    0.7533   -0.6191    2.0022 O   0  0  0  0  0  0  0  0  0  0  0  0
   -2.1232   -2.2423    2.4042 C   0  0  0  0  0  0  0  0  0  0  0  0
   -0.3048   -4.0823    2.0245 H   0  0  0  0  0  0  0  0  0  0  0  0
   -1.3830   -2.3724    0.3801 H   0  0  0  0  0  0  0  0  0  0  0  0
   -1.7534   -2.0527    3.4185 H   0  0  0  0  0  0  0  0  0  0  0  0
   -2.8936   -1.4947    2.1882 H   0  0  0  0  0  0  0  0  0  0  0  0
   -2.5964   -3.2301    2.4022 H   0  0  0  0  0  0  0  0  0  0  0  0
   -1.0412    0.1517    0.7482 N   0  0  0  0  0  0  0  0  0  0  0  0
   -0.6079    1.5223    0.6467 C   0  0  2  0  0  0  0  0  0  0  0  0
    0.2400    1.6614   -0.6169 C   0  0  0  0  0  0  0  0  0  0  0  0
    0.7713    2.7184   -0.9516 O   0  0  0  0  0  0  0  0  0  0  0  0
    0.1310    2.0180    1.9132 C   0  0  2  0  0  0  0  0  0  0  0  0
   -0.7789    2.0097    3.1617 C   0  0  0  0  0  0  0  0  0  0  0  0
    0.7357    3.4059    1.6629 C   0  0  0  0  0  0  0  0  0  0  0  0
   -0.0231    2.2340    4.4651 C   0  0  0  0  0  0  0  0  0  0  0  0
   -1.9022   -0.1128    0.2753 H   0  0  0  0  0  0  0  0  0  0  0  0
   -1.5194    2.1146    0.4953 H   0  0  0  0  0  0  0  0  0  0  0  0
    0.9679    1.3336    2.1063 H   0  0  0  0  0  0  0  0  0  0  0  0
   -1.5309    2.8022    3.0734 H   0  0  0  0  0  0  0  0  0  0  0  0
   -1.3244    1.0611    3.2309 H   0  0  0  0  0  0  0  0  0  0  0  0
   -0.0498    4.1423    1.4621 H   0  0  0  0  0  0  0  0  0  0  0  0
    1.2905    3.7598    2.5372 H   0  0  0  0  0  0  0  0  0  0  0  0
    1.4203    3.3975    0.8084 H   0  0  0  0  0  0  0  0  0  0  0  0
    0.7485    1.4744    4.6193 H   0  0  0  0  0  0  0  0  0  0  0  0
   -0.7140    2.1774    5.3127 H   0  0  0  0  0  0  0  0  0  0  0  0
    0.4504    3.2206    4.4805 H   0  0  0  0  0  0  0  0  0  0  0  0
    0.3578    0.4613   -1.3033 N   0  0  0  0  0  0  0  0  0  0  0  0
    1.1234    0.3158   -2.5204 C   0  0  2  0  0  0  0  0  0  0  0  0
    1.5848   -1.1325   -2.6155 C   0  0  0  0  0  0  0  0  0  0  0  0
    1.6800   -1.8717   -1.6379 O   0  0  0  0  0  0  0  0  0  0  0  0
    2.3097    1.2669   -2.5450 C   0  0  0  0  0  0  0  0  0  0  0  0
   -0.1177   -0.3557   -0.9318 H   0  0  0  0  0  0  0  0  0  0  0  0
    0.4436    0.5383   -3.3502 H   0  0  0  0  0  0  0  0  0  0  0  0
    3.0020    1.0592   -1.7209 H   0  0  0  0  0  0  0  0  0  0  0  0
    2.8722    1.1756   -3.4800 H   0  0  0  0  0  0  0  0  0  0  0  0
    1.9781    2.3062   -2.4466 H   0  0  0  0  0  0  0  0  0  0  0  0
    1.9189   -1.4897   -3.9143 N   0  0  0  0  0  0  0  0  0  0  0  0
    2.3967   -2.8075   -4.2621 C   0  0  0  0  0  0  0  0  0  0  0  0
    1.7907   -0.8184   -4.6658 H   0  0  0  0  0  0  0  0  0  0  0  0
    3.4961   -2.8200   -4.2292 H   0  0  0  0  0  0  0  0  0  0  0  0
    2.0002   -3.5421   -3.5458 H   0  0  0  0  0  0  0  0  0  0  0  0
    2.0575   -3.0645   -5.2765 H   0  0  0  0  0  0  0  0  0  0  0  0
  1  3  1  0  0  0  0
  1  7  1  0  0  0  0
  1  2  2  0  0  0  0
 37 38  1  0  0  0  0
 38 46  1  0  0  0  0
 38 39  2  0  0  0  0
  8  9  1  0  0  0  0
  9 17  1  0  0  0  0
  9 10  2  0  0  0  0
 18 19  1  0  0  0  0
 19 36  1  0  0  0  0
 19 20  2  0  0  0  0
 22 24  1  0  0  0  0
 37 40  1  0  0  0  0
  8 11  1  0  0  0  0
 21 23  1  0  0  0  0
 46 47  1  0  0  0  0
 21 22  1  0  0  0  0
 36 37  1  0  0  0  0
  7  8  1  0  0  0  0
 18 21  1  0  0  0  0
 17 18  1  0  0  0  0
  3  4  1  0  0  0  0
  3  5  1  0  0  0  0
  3  6  1  0  0  0  0
 24 33  1  0  0  0  0
 24 34  1  0  0  0  0
 24 35  1  0  0  0  0
 40 43  1  0  0  0  0
 40 44  1  0  0  0  0
 40 45  1  0  0  0  0
 11 14  1  0  0  0  0
 11 15  1  0  0  0  0
 11 16  1  0  0  0  0
 23 30  1  0  0  0  0
 23 31  1  0  0  0  0
 23 32  1  0  0  0  0
 47 49  1  0  0  0  0
 47 50  1  0  0  0  0
 47 51  1  0  0  0  0
 22 28  1  0  0  0  0
 22 29  1  0  0  0  0
 37 42  1  0  0  0  0
  8 13  1  0  0  0  0
 18 26  1  0  0  0  0
 21 27  1  0  0  0  0
 46 48  1  0  0  0  0
  7 12  1  0  0  0  0
 36 41  1  0  0  0  0
 17 25  1  0  0  0  0
M  END
$$$$

  -OEChem-05262214473D

 51 50  0     1  0  0  0  0  0999 V2000
    1.3524   -3.0009    1.4091 C   0  0  0  0  0  0  0  0  0  0  0  0
    1.8758   -1.9880    0.9598 O   0  0  0  0  0  0  0  0  0  0  0  0
    2.2030   -4.1782    1.7536 C   0  0  0  0  0  0  0  0  0  0  0  0
    2.3264   -4.8705    0.9053 H   0  0  0  0  0  0  0  0  0  0  0  0
    3.2257   -3.8876    2.0432 H   0  0  0  0  0  0  0  0  0  0  0  0
    1.8327   -4.8004    2.5839 H   0  0  0  0  0  0  0  0  0  0  0  0
    0.0005   -3.1873    1.6465 N   0  0  0  0  0  0  0  0  0  0  0  0
   -0.9949   -2.1807    1.3864 C   0  0  2  0  0  0  0  0  0  0  0  0
   -0.3083   -0.8216    1.4164 C   0  0  0  0  0  0  0  0  0  0  0  0
    0.7533   -0.6191    2.0022 O   0  0  0  0  0  0  0  0  0  0  0  0
   -2.1232   -2.2423    2.4042 C   0  0  0  0  0  0  0  0  0  0  0  0
   -0.3048   -4.0823    2.0245 H   0  0  0  0  0  0  0  0  0  0  0  0
   -1.3830   -2.3724    0.3801 H   0  0  0  0  0  0  0  0  0  0  0  0
   -1.7534   -2.0527    3.4185 H   0  0  0  0  0  0  0  0  0  0  0  0
   -2.8936   -1.4947    2.1882 H   0  0  0  0  0  0  0  0  0  0  0  0
   -2.5964   -3.2301    2.4022 H   0  0  0  0  0  0  0  0  0  0  0  0
   -1.0412    0.1517    0.7482 N   0  0  0  0  0  0  0  0  0  0  0  0
   -0.6079    1.5223    0.6467 C   0  0  2  0  0  0  0  0  0  0  0  0
    0.2400    1.6614   -0.6169 C   0  0  0  0  0  0  0  0  0  0  0  0
    0.9841    2.6188   -0.8197 O   0  0  0  0  0  0  0  0  0  0  0  0
    0.1310    2.0180    1.9132 C   0  0  2  0  0  0  0  0  0  0  0  0
   -0.7789    2.0097    3.1617 C   0  0  0  0  0  0  0  0  0  0  0  0
    0.7357    3.4059    1.6629 C   0  0  0  0  0  0  0  0  0  0  0  0
   -0.0231    2.2340    4.4651 C   0  0  0  0  0  0  0  0  0  0  0  0
   -1.9022   -0.1128    0.2753 H   0  0  0  0  0  0  0  0  0  0  0  0
   -1.5194    2.1146    0.4953 H   0  0  0  0  0  0  0  0  0  0  0  0
    0.9679    1.3336    2.1063 H   0  0  0  0  0  0  0  0  0  0  0  0
   -1.5309    2.8022    3.0734 H   0  0  0  0  0  0  0  0  0  0  0  0
   -1.3244    1.0611    3.2309 H   0  0  0  0  0  0  0  0  0  0  0  0
   -0.0498    4.1423    1.4621 H   0  0  0  0  0  0  0  0  0  0  0  0
    1.2905    3.7598    2.5372 H   0  0  0  0  0  0  0  0  0  0  0  0
    1.4203    3.3975    0.8084 H   0  0  0  0  0  0  0  0  0  0  0  0
    0.7485    1.4744    4.6193 H   0  0  0  0  0  0  0  0  0  0  0  0
   -0.7140    2.1774    5.3127 H   0  0  0  0  0  0  0  0  0  0  0  0
    0.4504    3.2206    4.4805 H   0  0  0  0  0  0  0  0  0  0  0  0
    0.0906    0.5771   -1.4698 N   0  0  0  0  0  0  0  0  0  0  0  0
    0.7971    0.4519   -2.7244 C   0  0  2  0  0  0  0  0  0  0  0  0
    0.9344   -1.0315   -3.0408 C   0  0  0  0  0  0  0  0  0  0  0  0
    0.8757   -1.9088   -2.1817 O   0  0  0  0  0  0  0  0  0  0  0  0
    2.1605    1.1226   -2.6610 C   0  0  0  0  0  0  0  0  0  0  0  0
   -0.5470   -0.1656   -1.1989 H   0  0  0  0  0  0  0  0  0  0  0  0
    0.1748    0.9325   -3.4871 H   0  0  0  0  0  0  0  0  0  0  0  0
    2.7981    0.6546   -1.9022 H   0  0  0  0  0  0  0  0  0  0  0  0
    2.6826    1.0517   -3.6209 H   0  0  0  0  0  0  0  0  0  0  0  0
    2.0617    2.1828   -2.4040 H   0  0  0  0  0  0  0  0  0  0  0  0
    1.1733   -1.2576   -4.3891 N   0  0  0  0  0  0  0  0  0  0  0  0
    1.3528   -2.5815   -4.9377 C   0  0  0  0  0  0  0  0  0  0  0  0
    1.1870   -0.4720   -5.0327 H   0  0  0  0  0  0  0  0  0  0  0  0
    2.4239   -2.8318   -4.9500 H   0  0  0  0  0  0  0  0  0  0  0  0
    0.8128   -3.3118   -4.3172 H   0  0  0  0  0  0  0  0  0  0  0  0
    0.9581   -2.6096   -5.9641 H   0  0  0  0  0  0  0  0  0  0  0  0
  1  3  1  0  0  0  0
  1  7  1  0  0  0  0
  1  2  2  0  0  0  0
 37 38  1  0  0  0  0
 38 46  1  0  0  0  0
 38 39  2  0  0  0  0
  8  9  1  0  0  0  0
  9 17  1  0  0  0  0
  9 10  2  0  0  0  0
 18 19  1  0  0  0  0
 19 36  1  0  0  0  0
 19 20  2  0  0  0  0
 22 24  1  0  0  0  0
 37 40  1  0  0  0  0
  8 11  1  0  0  0  0
 21 23  1  0  0  0  0
 46 47  1  0  0  0  0
 21 22  1  0  0  0  0
 36 37  1  0  0  0  0
  7  8  1  0  0  0  0
 18 21  1  0  0  0  0
 17 18  1  0  0  0  0
  3  4  1  0  0  0  0
  3  5  1  0  0  0  0
  3  6  1  0  0  0  0
 24 33  1  0  0  0  0
 24 34  1  0  0  0  0
 24 35  1  0  0  0  0
 40 43  1  0  0  0  0
 40 44  1  0  0  0  0
 40 45  1  0  0  0  0
 11 14  1  0  0  0  0
 11 15  1  0  0  0  0
 11 16  1  0  0  0  0
 23 30  1  0  0  0  0
 23 31  1  0  0  0  0
 23 32  1  0  0  0  0
 47 49  1  0  0  0  0
 47 50  1  0  0  0  0
 47 51  1  0  0  0  0
 22 28  1  0  0  0  0
 22 29  1  0  0  0  0
 37 42  1  0  0  0  0
  8 13  1  0  0  0  0
 18 26  1  0  0  0  0
 21 27  1  0  0  0  0
 46 48  1  0  0  0  0
  7 12  1  0  0  0  0
 36 41  1  0  0  0  0
 17 25  1  0  0  0  0
M  END
$$$$

  -OEChem-05262214473D

 51 50  0     1  0  0  0  0  0999 V2000
    1.3524   -3.0009    1.4091 C   0  0  0  0  0  0  0  0  0  0  0  0
    1.8758   -1.9880    0.9598 O   0  0  0  0  0  0  0  0  0  0  0  0
    2.2030   -4.1782    1.7536 C   0  0  0  0  0  0  0  0  0  0  0  0
    2.3264   -4.8705    0.9053 H   0  0  0  0  0  0  0  0  0  0  0  0
    3.2257   -3.8876    2.0432 H   0  0  0  0  0  0  0  0  0  0  0  0
    1.8327   -4.8004    2.5839 H   0  0  0  0  0  0  0  0  0  0  0  0
    0.0005   -3.1873    1.6465 N   0  0  0  0  0  0  0  0  0  0  0  0
   -0.9949   -2.1807    1.3864 C   0  0  2  0  0  0  0  0  0  0  0  0
   -0.3083   -0.8216    1.4164 C   0  0  0  0  0  0  0  0  0  0  0  0
    0.7533   -0.6191    2.0022 O   0  0  0  0  0  0  0  0  0  0  0  0
   -2.1232   -2.2423    2.4042 C   0  0  0  0  0  0  0  0  0  0  0  0
   -0.3048   -4.0823    2.0245 H   0  0  0  0  0  0  0  0  0  0  0  0
   -1.3830   -2.3724    0.3801 H   0  0  0  0  0  0  0  0  0  0  0  0
   -1.7534   -2.0527    3.4185 H   0  0  0  0  0  0  0  0  0  0  0  0
   -2.8936   -1.4947    2.1882 H   0  0  0  0  0  0  0  0  0  0  0  0
   -2.5964   -3.2301    2.4022 H   0  0  0  0  0  0  0  0  0  0  0  0
   -1.0412    0.1517    0.7482 N   0  0  0  0  0  0  0  0  0  0  0  0
   -0.6079    1.5223    0.6467 C   0  0  2  0  0  0  0  0  0  0  0  0
    0.2400    1.6614   -0.6169 C   0  0  0  0  0  0  0  0  0  0  0  0
    1.1715    2.4581   -0.7117 O   0  0  0  0  0  0  0  0  0  0  0  0
    0.1310    2.0180    1.9132 C   0  0  2  0  0  0  0  0  0  0  0  0
   -0.7789    2.0097    3.1617 C   0  0  0  0  0  0  0  0  0  0  0  0
    0.7357    3.4059    1.6629 C   0  0  0  0  0  0  0  0  0  0  0  0
   -0.0231    2.2340    4.4651 C   0  0  0  0  0  0  0  0  0  0  0  0
   -1.9022   -0.1128    0.2753 H   0  0  0  0  0  0  0  0  0  0  0  0
   -1.5194    2.1146    0.4953 H   0  0  0  0  0  0  0  0  0  0  0  0
    0.9679    1.3336    2.1063 H   0  0  0  0  0  0  0  0  0  0  0  0
   -1.5309    2.8022    3.0734 H   0  0  0  0  0  0  0  0  0  0  0  0
   -1.3244    1.0611    3.2309 H   0  0  0  0  0  0  0  0  0  0  0  0
   -0.0498    4.1423    1.4621 H   0  0  0  0  0  0  0  0  0  0  0  0
    1.2905    3.7598    2.5372 H   0  0  0  0  0  0  0  0  0  0  0  0
    1.4203    3.3975    0.8084 H   0  0  0  0  0  0  0  0  0  0  0  0
    0.7485    1.4744    4.6193 H   0  0  0  0  0  0  0  0  0  0  0  0
   -0.7140    2.1774    5.3127 H   0  0  0  0  0  0  0  0  0  0  0  0
    0.4504    3.2206    4.4805 H   0  0  0  0  0  0  0  0  0  0  0  0
   -0.1465    0.7702   -1.6077 N   0  0  0  0  0  0  0  0  0  0  0  0
    0.5063    0.6826   -2.8941 C   0  0  2  0  0  0  0  0  0  0  0  0
    0.3178   -0.7336   -3.4217 C   0  0  0  0  0  0  0  0  0  0  0  0
    0.0780   -1.6944   -2.6933 O   0  0  0  0  0  0  0  0  0  0  0  0
    1.9827    1.0319   -2.7902 C   0  0  0  0  0  0  0  0  0  0  0  0
   -0.9272    0.1483   -1.4195 H   0  0  0  0  0  0  0  0  0  0  0  0
   -0.0037    1.3906   -3.5564 H   0  0  0  0  0  0  0  0  0  0  0  0
    2.5104    0.3334   -2.1306 H   0  0  0  0  0  0  0  0  0  0  0  0
    2.4696    0.9928   -3.7703 H   0  0  0  0  0  0  0  0  0  0  0  0
    2.1170    2.0397   -2.3827 H   0  0  0  0  0  0  0  0  0  0  0  0
    0.4916   -0.8057   -4.7967 N   0  0  0  0  0  0  0  0  0  0  0  0
    0.3768   -2.0428   -5.5333 C   0  0  0  0  0  0  0  0  0  0  0  0
    0.6694    0.0445   -5.3232 H   0  0  0  0  0  0  0  0  0  0  0  0
    1.3686   -2.5103   -5.6226 H   0  0  0  0  0  0  0  0  0  0  0  0
   -0.3030   -2.7245   -5.0012 H   0  0  0  0  0  0  0  0  0  0  0  0
   -0.0227   -1.8361   -6.5370 H   0  0  0  0  0  0  0  0  0  0  0  0
  1  3  1  0  0  0  0
  1  7  1  0  0  0  0
  1  2  2  0  0  0  0
 37 38  1  0  0  0  0
 38 46  1  0  0  0  0
 38 39  2  0  0  0  0
  8  9  1  0  0  0  0
  9 17  1  0  0  0  0
  9 10  2  0  0  0  0
 18 19  1  0  0  0  0
 19 36  1  0  0  0  0
 19 20  2  0  0  0  0
 22 24  1  0  0  0  0
 37 40  1  0  0  0  0
  8 11  1  0  0  0  0
 21 23  1  0  0  0  0
 46 47  1  0  0  0  0
 21 22  1  0  0  0  0
 36 37  1  0  0  0  0
  7  8  1  0  0  0  0
 18 21  1  0  0  0  0
 17 18  1  0  0  0  0
  3  4  1  0  0  0  0
  3  5  1  0  0  0  0
  3  6  1  0  0  0  0
 24 33  1  0  0  0  0
 24 34  1  0  0  0  0
 24 35  1  0  0  0  0
 40 43  1  0  0  0  0
 40 44  1  0  0  0  0
 40 45  1  0  0  0  0
 11 14  1  0  0  0  0
 11 15  1  0  0  0  0
 11 16  1  0  0  0  0
 23 30  1  0  0  0  0
 23 31  1  0  0  0  0
 23 32  1  0  0  0  0
 47 49  1  0  0  0  0
 47 50  1  0  0  0  0
 47 51  1  0  0  0  0
 22 28  1  0  0  0  0
 22 29  1  0  0  0  0
 37 42  1  0  0  0  0
  8 13  1  0  0  0  0
 18 26  1  0  0  0  0
 21 27  1  0  0  0  0
 46 48  1  0  0  0  0
  7 12  1  0  0  0  0
 36 41  1  0  0  0  0
 17 25  1  0  0  0  0
M  END
$$$$

  -OEChem-05262214473D

 51 50  0     1  0  0  0  0  0999 V2000
    1.3524   -3.0009    1.4091 C   0  0  0  0  0  0  0  0  0  0  0  0
    1.8758   -1.9880    0.9598 O   0  0  0  0  0  0  0  0  0  0  0  0
    2.2030   -4.1782    1.7536 C   0  0  0  0  0  0  0  0  0  0  0  0
    2.3264   -4.8705    0.9053 H   0  0  0  0  0  0  0  0  0  0  0  0
    3.2257   -3.8876    2.0432 H   0  0  0  0  0  0  0  0  0  0  0  0
    1.8327   -4.8004    2.5839 H   0  0  0  0  0  0  0  0  0  0  0  0
    0.0005   -3.1873    1.6465 N   0  0  0  0  0  0  0  0  0  0  0  0
   -0.9949   -2.1807    1.3864 C   0  0  2  0  0  0  0  0  0  0  0  0
   -0.3083   -0.8216    1.4164 C   0  0  0  0  0  0  0  0  0  0  0  0
    0.7533   -0.6191    2.0022 O   0  0  0  0  0  0  0  0  0  0  0  0
   -2.1232   -2.2423    2.4042 C   0  0  0  0  0  0  0  0  0  0  0  0
   -0.3048   -4.0823    2.0245 H   0  0  0  0  0  0  0  0  0  0  0  0
   -1.3830   -2.3724    0.3801 H   0  0  0  0  0  0  0  0  0  0  0  0
   -1.7534   -2.0527    3.4185 H   0  0  0  0  0  0  0  0  0  0  0  0
   -2.8936   -1.4947    2.1882 H   0  0  0  0  0  0  0  0  0  0  0  0
   -2.5964   -3.2301    2.4022 H   0  0  0  0  0  0  0  0  0  0  0  0
   -1.0412    0.1517    0.7482 N   0  0  0  0  0  0  0  0  0  0  0  0
   -0.6079    1.5223    0.6467 C   0  0  2  0  0  0  0  0  0  0  0  0
    0.2400    1.6614   -0.6169 C   0  0  0  0  0  0  0  0  0  0  0  0
    1.3207    2.2473   -0.6348 O   0  0  0  0  0  0  0  0  0  0  0  0
    0.1310    2.0180    1.9132 C   0  0  2  0  0  0  0  0  0  0  0  0
   -0.7789    2.0097    3.1617 C   0  0  0  0  0  0  0  0  0  0  0  0
    0.7357    3.4059    1.6629 C   0  0  0  0  0  0  0  0  0  0  0  0
   -0.0231    2.2340    4.4651 C   0  0  0  0  0  0  0  0  0  0  0  0
   -1.9022   -0.1128    0.2753 H   0  0  0  0  0  0  0  0  0  0  0  0
   -1.5194    2.1146    0.4953 H   0  0  0  0  0  0  0  0  0  0  0  0
    0.9679    1.3336    2.1063 H   0  0  0  0  0  0  0  0  0  0  0  0
   -1.5309    2.8022    3.0734 H   0  0  0  0  0  0  0  0  0  0  0  0
   -1.3244    1.0611    3.2309 H   0  0  0  0  0  0  0  0  0  0  0  0
   -0.0498    4.1423    1.4621 H   0  0  0  0  0  0  0  0  0  0  0  0
    1.2905    3.7598    2.5372 H   0  0  0  0  0  0  0  0  0  0  0  0
    1.4203    3.3975    0.8084 H   0  0  0  0  0  0  0  0  0  0  0  0
    0.7485    1.4744    4.6193 H   0  0  0  0  0  0  0  0  0  0  0  0
   -0.7140    2.1774    5.3127 H   0  0  0  0  0  0  0  0  0  0  0  0
    0.4504    3.2206    4.4805 H   0  0  0  0  0  0  0  0  0  0  0  0
   -0.3376    1.0272   -1.7076 N   0  0  0  0  0  0  0  0  0  0  0  0
    0.2708    0.9920   -3.0181 C   0  0  2  0  0  0  0  0  0  0  0  0
   -0.2230   -0.2592   -3.7323 C   0  0  0  0  0  0  0  0  0  0  0  0
   -0.6586   -1.2431   -3.1380 O   0  0  0  0  0  0  0  0  0  0  0  0
    1.7886    1.0009   -2.9239 C   0  0  0  0  0  0  0  0  0  0  0  0
   -1.2325    0.5646   -1.5785 H   0  0  0  0  0  0  0  0  0  0  0  0
   -0.0797    1.8811   -3.5534 H   0  0  0  0  0  0  0  0  0  0  0  0
    2.1583    0.1175   -2.3906 H   0  0  0  0  0  0  0  0  0  0  0  0
    2.2478    1.0030   -3.9180 H   0  0  0  0  0  0  0  0  0  0  0  0
    2.1404    1.8865   -2.3839 H   0  0  0  0  0  0  0  0  0  0  0  0
   -0.0798   -0.1648   -5.1096 N   0  0  0  0  0  0  0  0  0  0  0  0
   -0.4646   -1.2281   -6.0081 C   0  0  0  0  0  0  0  0  0  0  0  0
    0.2731    0.6959   -5.5174 H   0  0  0  0  0  0  0  0  0  0  0  0
    0.4022   -1.8772   -6.2013 H   0  0  0  0  0  0  0  0  0  0  0  0
   -1.2713   -1.8201   -5.5513 H   0  0  0  0  0  0  0  0  0  0  0  0
   -0.8181   -0.7967   -6.9563 H   0  0  0  0  0  0  0  0  0  0  0  0
  1  3  1  0  0  0  0
  1  7  1  0  0  0  0
  1  2  2  0  0  0  0
 37 38  1  0  0  0  0
 38 46  1  0  0  0  0
 38 39  2  0  0  0  0
  8  9  1  0  0  0  0
  9 17  1  0  0  0  0
  9 10  2  0  0  0  0
 18 19  1  0  0  0  0
 19 36  1  0  0  0  0
 19 20  2  0  0  0  0
 22 24  1  0  0  0  0
 37 40  1  0  0  0  0
  8 11  1  0  0  0  0
 21 23  1  0  0  0  0
 46 47  1  0  0  0  0
 21 22  1  0  0  0  0
 36 37  1  0  0  0  0
  7  8  1  0  0  0  0
 18 21  1  0  0  0  0
 17 18  1  0  0  0  0
  3  4  1  0  0  0  0
  3  5  1  0  0  0  0
  3  6  1  0  0  0  0
 24 33  1  0  0  0  0
 24 34  1  0  0  0  0
 24 35  1  0  0  0  0
 40 43  1  0  0  0  0
 40 44  1  0  0  0  0
 40 45  1  0  0  0  0
 11 14  1  0  0  0  0
 11 15  1  0  0  0  0
 11 16  1  0  0  0  0
 23 30  1  0  0  0  0
 23 31  1  0  0  0  0
 23 32  1  0  0  0  0
 47 49  1  0  0  0  0
 47 50  1  0  0  0  0
 47 51  1  0  0  0  0
 22 28  1  0  0  0  0
 22 29  1  0  0  0  0
 37 42  1  0  0  0  0
  8 13  1  0  0  0  0
 18 26  1  0  0  0  0
 21 27  1  0  0  0  0
 46 48  1  0  0  0  0
  7 12  1  0  0  0  0
 36 41  1  0  0  0  0
 17 25  1  0  0  0  0
M  END
$$$$

  -OEChem-05262214473D

 51 50  0     1  0  0  0  0  0999 V2000
    1.3524   -3.0009    1.4091 C   0  0  0  0  0  0  0  0  0  0  0  0
    1.8758   -1.9880    0.9598 O   0  0  0  0  0  0  0  0  0  0  0  0
    2.2030   -4.1782    1.7536 C   0  0  0  0  0  0  0  0  0  0  0  0
    2.3264   -4.8705    0.9053 H   0  0  0  0  0  0  0  0  0  0  0  0
    3.2257   -3.8876    2.0432 H   0  0  0  0  0  0  0  0  0  0  0  0
    1.8327   -4.8004    2.5839 H   0  0  0  0  0  0  0  0  0  0  0  0
    0.0005   -3.1873    1.6465 N   0  0  0  0  0  0  0  0  0  0  0  0
   -0.9949   -2.1807    1.3864 C   0  0  2  0  0  0  0  0  0  0  0  0
   -0.3083   -0.8216    1.4164 C   0  0  0  0  0  0  0  0  0  0  0  0
    0.7533   -0.6191    2.0022 O   0  0  0  0  0  0  0  0  0  0  0  0
   -2.1232   -2.2423    2.4042 C   0  0  0  0  0  0  0  0  0  0  0  0
   -0.3048   -4.0823    2.0245 H   0  0  0  0  0  0  0  0  0  0  0  0
   -1.3830   -2.3724    0.3801 H   0  0  0  0  0  0  0  0  0  0  0  0
   -1.7534   -2.0527    3.4185 H   0  0  0  0  0  0  0  0  0  0  0  0
   -2.8936   -1.4947    2.1882 H   0  0  0  0  0  0  0  0  0  0  0  0
   -2.5964   -3.2301    2.4022 H   0  0  0  0  0  0  0  0  0  0  0  0
   -1.0412    0.1517    0.7482 N   0  0  0  0  0  0  0  0  0  0  0  0
   -0.6079    1.5223    0.6467 C   0  0  2  0  0  0  0  0  0  0  0  0
    0.2400    1.6614   -0.6169 C   0  0  0  0  0  0  0  0  0  0  0  0
    1.4215    2.0006   -0.5943 O   0  0  0  0  0  0  0  0  0  0  0  0
    0.1310    2.0180    1.9132 C   0  0  2  0  0  0  0  0  0  0  0  0
   -0.7789    2.0097    3.1617 C   0  0  0  0  0  0  0  0  0  0  0  0
    0.7357    3.4059    1.6629 C   0  0  0  0  0  0  0  0  0  0  0  0
   -0.0231    2.2340    4.4651 C   0  0  0  0  0  0  0  0  0  0  0  0
   -1.9022   -0.1128    0.2753 H   0  0  0  0  0  0  0  0  0  0  0  0
   -1.5194    2.1146    0.4953 H   0  0  0  0  0  0  0  0  0  0  0  0
    0.9679    1.3336    2.1063 H   0  0  0  0  0  0  0  0  0  0  0  0
   -1.5309    2.8022    3.0734 H   0  0  0  0  0  0  0  0  0  0  0  0
   -1.3244    1.0611    3.2309 H   0  0  0  0  0  0  0  0  0  0  0  0
   -0.0498    4.1423    1.4621 H   0  0  0  0  0  0  0  0  0  0  0  0
    1.2905    3.7598    2.5372 H   0  0  0  0  0  0  0  0  0  0  0  0
    1.4203    3.3975    0.8084 H   0  0  0  0  0  0  0  0  0  0  0  0
    0.7485    1.4744    4.6193 H   0  0  0  0  0  0  0  0  0  0  0  0
   -0.7140    2.1774    5.3127 H   0  0  0  0  0  0  0  0  0  0  0  0
    0.4504    3.2206    4.4805 H   0  0  0  0  0  0  0  0  0  0  0  0
   -0.4694    1.3307   -1.7627 N   0  0  0  0  0  0  0  0  0  0  0  0
    0.1066    1.3590   -3.0878 C   0  0  2  0  0  0  0  0  0  0  0  0
   -0.6512    0.3594   -3.9515 C   0  0  0  0  0  0  0  0  0  0  0  0
   -1.2841   -0.5857   -3.4852 O   0  0  0  0  0  0  0  0  0  0  0  0
    1.5912    1.0316   -3.0529 C   0  0  0  0  0  0  0  0  0  0  0  0
   -1.4421    1.0548   -1.6652 H   0  0  0  0  0  0  0  0  0  0  0  0
   -0.0480    2.3708   -3.4783 H   0  0  0  0  0  0  0  0  0  0  0  0
    1.7659    0.0216   -2.6645 H   0  0  0  0  0  0  0  0  0  0  0  0
    2.0322    1.0815   -4.0540 H   0  0  0  0  0  0  0  0  0  0  0  0
    2.1301    1.7337   -2.4076 H   0  0  0  0  0  0  0  0  0  0  0  0
   -0.5019    0.6215   -5.3062 N   0  0  0  0  0  0  0  0  0  0  0  0
   -1.1141   -0.1928   -6.3300 C   0  0  0  0  0  0  0  0  0  0  0  0
    0.0252    1.4379   -5.6021 H   0  0  0  0  0  0  0  0  0  0  0  0
   -0.4093   -0.9758   -6.6466 H   0  0  0  0  0  0  0  0  0  0  0  0
   -2.0259   -0.6603   -5.9300 H   0  0  0  0  0  0  0  0  0  0  0  0
   -1.3737    0.4376   -7.1932 H   0  0  0  0  0  0  0  0  0  0  0  0
  1  3  1  0  0  0  0
  1  7  1  0  0  0  0
  1  2  2  0  0  0  0
 37 38  1  0  0  0  0
 38 46  1  0  0  0  0
 38 39  2  0  0  0  0
  8  9  1  0  0  0  0
  9 17  1  0  0  0  0
  9 10  2  0  0  0  0
 18 19  1  0  0  0  0
 19 36  1  0  0  0  0
 19 20  2  0  0  0  0
 22 24  1  0  0  0  0
 37 40  1  0  0  0  0
  8 11  1  0  0  0  0
 21 23  1  0  0  0  0
 46 47  1  0  0  0  0
 21 22  1  0  0  0  0
 36 37  1  0  0  0  0
  7  8  1  0  0  0  0
 18 21  1  0  0  0  0
 17 18  1  0  0  0  0
  3  4  1  0  0  0  0
  3  5  1  0  0  0  0
  3  6  1  0  0  0  0
 24 33  1  0  0  0  0
 24 34  1  0  0  0  0
 24 35  1  0  0  0  0
 40 43  1  0  0  0  0
 40 44  1  0  0  0  0
 40 45  1  0  0  0  0
 11 14  1  0  0  0  0
 11 15  1  0  0  0  0
 11 16  1  0  0  0  0
 23 30  1  0  0  0  0
 23 31  1  0  0  0  0
 23 32  1  0  0  0  0
 47 49  1  0  0  0  0
 47 50  1  0  0  0  0
 47 51  1  0  0  0  0
 22 28  1  0  0  0  0
 22 29  1  0  0  0  0
 37 42  1  0  0  0  0
  8 13  1  0  0  0  0
 18 26  1  0  0  0  0
 21 27  1  0  0  0  0
 46 48  1  0  0  0  0
  7 12  1  0  0  0  0
 36 41  1  0  0  0  0
 17 25  1  0  0  0  0
M  END
$$$$

  -OEChem-05262214473D

 51 50  0     1  0  0  0  0  0999 V2000
    1.3524   -3.0009    1.4091 C   0  0  0  0  0  0  0  0  0  0  0  0
    1.8758   -1.9880    0.9598 O   0  0  0  0  0  0  0  0  0  0  0  0
    2.2030   -4.1782    1.7536 C   0  0  0  0  0  0  0  0  0  0  0  0
    2.3264   -4.8705    0.9053 H   0  0  0  0  0  0  0  0  0  0  0  0
    3.2257   -3.8876    2.0432 H   0  0  0  0  0  0  0  0  0  0  0  0
    1.8327   -4.8004    2.5839 H   0  0  0  0  0  0  0  0  0  0  0  0
    0.0005   -3.1873    1.6465 N   0  0  0  0  0  0  0  0  0  0  0  0
   -0.9949   -2.1807    1.3864 C   0  0  2  0  0  0  0  0  0  0  0  0
   -0.3083   -0.8216    1.4164 C   0  0  0  0  0  0  0  0  0  0  0  0
    0.7533   -0.6191    2.0022 O   0  0  0  0  0  0  0  0  0  0  0  0
   -2.1232   -2.2423    2.4042 C   0  0  0  0  0  0  0  0  0  0  0  0
   -0.3048   -4.0823    2.0245 H   0  0  0  0  0  0  0  0  0  0  0  0
   -1.3830   -2.3724    0.3801 H   0  0  0  0  0  0  0  0  0  0  0  0
   -1.7534   -2.0527    3.4185 H   0  0  0  0  0  0  0  0  0  0  0  0
   -2.8936   -1.4947    2.1882 H   0  0  0  0  0  0  0  0  0  0  0  0
   -2.5964   -3.2301    2.4022 H   0  0  0  0  0  0  0  0  0  0  0  0
   -1.0412    0.1517    0.7482 N   0  0  0  0  0  0  0  0  0  0  0  0
   -0.6079    1.5223    0.6467 C   0  0  2  0  0  0  0  0  0  0  0  0
    0.2400    1.6614   -0.6169 C   0  0  0  0  0  0  0  0  0  0  0  0
    1.4670    1.7350   -0.5931 O   0  0  0  0  0  0  0  0  0  0  0  0
    0.1310    2.0180    1.9132 C   0  0  2  0  0  0  0  0  0  0  0  0
   -0.7789    2.0097    3.1617 C   0  0  0  0  0  0  0  0  0  0  0  0
    0.7357    3.4059    1.6629 C   0  0  0  0  0  0  0  0  0  0  0  0
   -0.0231    2.2340    4.4651 C   0  0  0  0  0  0  0  0  0  0  0  0
   -1.9022   -0.1128    0.2753 H   0  0  0  0  0  0  0  0  0  0  0  0
   -1.5194    2.1146    0.4953 H   0  0  0  0  0  0  0  0  0  0  0  0
    0.9679    1.3336    2.1063 H   0  0  0  0  0  0  0  0  0  0  0  0
   -1.5309    2.8022    3.0734 H   0  0  0  0  0  0  0  0  0  0  0  0
   -1.3244    1.0611    3.2309 H   0  0  0  0  0  0  0  0  0  0  0  0
   -0.0498    4.1423    1.4621 H   0  0  0  0  0  0  0  0  0  0  0  0
    1.2905    3.7598    2.5372 H   0  0  0  0  0  0  0  0  0  0  0  0
    1.4203    3.3975    0.8084 H   0  0  0  0  0  0  0  0  0  0  0  0
    0.7485    1.4744    4.6193 H   0  0  0  0  0  0  0  0  0  0  0  0
   -0.7140    2.1774    5.3127 H   0  0  0  0  0  0  0  0  0  0  0  0
    0.4504    3.2206    4.4805 H   0  0  0  0  0  0  0  0  0  0  0  0
   -0.5332    1.6599   -1.7692 N   0  0  0  0  0  0  0  0  0  0  0  0
    0.0249    1.7588   -3.0986 C   0  0  2  0  0  0  0  0  0  0  0  0
   -0.9375    1.0800   -4.0643 C   0  0  0  0  0  0  0  0  0  0  0  0
   -1.7557    0.2331   -3.7115 O   0  0  0  0  0  0  0  0  0  0  0  0
    1.4042    1.1221   -3.1685 C   0  0  0  0  0  0  0  0  0  0  0  0
   -1.5416    1.5857   -1.6735 H   0  0  0  0  0  0  0  0  0  0  0  0
    0.0891    2.8263   -3.3361 H   0  0  0  0  0  0  0  0  0  0  0  0
    1.3599    0.0524   -2.9335 H   0  0  0  0  0  0  0  0  0  0  0  0
    1.8375    1.2230   -4.1690 H   0  0  0  0  0  0  0  0  0  0  0  0
    2.0869    1.5917   -2.4522 H   0  0  0  0  0  0  0  0  0  0  0  0
   -0.7459    1.4996   -5.3733 N   0  0  0  0  0  0  0  0  0  0  0  0
   -1.5275    0.9925   -6.4769 C   0  0  0  0  0  0  0  0  0  0  0  0
   -0.0575    2.2197   -5.5715 H   0  0  0  0  0  0  0  0  0  0  0  0
   -1.0108    0.1326   -6.9282 H   0  0  0  0  0  0  0  0  0  0  0  0
   -2.5155    0.6758   -6.1114 H   0  0  0  0  0  0  0  0  0  0  0  0
   -1.6518    1.7829   -7.2317 H   0  0  0  0  0  0  0  0  0  0  0  0
  1  3  1  0  0  0  0
  1  7  1  0  0  0  0
  1  2  2  0  0  0  0
 37 38  1  0  0  0  0
 38 46  1  0  0  0  0
 38 39  2  0  0  0  0
  8  9  1  0  0  0  0
  9 17  1  0  0  0  0
  9 10  2  0  0  0  0
 18 19  1  0  0  0  0
 19 36  1  0  0  0  0
 19 20  2  0  0  0  0
 22 24  1  0  0  0  0
 37 40  1  0  0  0  0
  8 11  1  0  0  0  0
 21 23  1  0  0  0  0
 46 47  1  0  0  0  0
 21 22  1  0  0  0  0
 36 37  1  0  0  0  0
  7  8  1  0  0  0  0
 18 21  1  0  0  0  0
 17 18  1  0  0  0  0
  3  4  1  0  0  0  0
  3  5  1  0  0  0  0
  3  6  1  0  0  0  0
 24 33  1  0  0  0  0
 24 34  1  0  0  0  0
 24 35  1  0  0  0  0
 40 43  1  0  0  0  0
 40 44  1  0  0  0  0
 40 45  1  0  0  0  0
 11 14  1  0  0  0  0
 11 15  1  0  0  0  0
 11 16  1  0  0  0  0
 23 30  1  0  0  0  0
 23 31  1  0  0  0  0
 23 32  1  0  0  0  0
 47 49  1  0  0  0  0
 47 50  1  0  0  0  0
 47 51  1  0  0  0  0
 22 28  1  0  0  0  0
 22 29  1  0  0  0  0
 37 42  1  0  0  0  0
  8 13  1  0  0  0  0
 18 26  1  0  0  0  0
 21 27  1  0  0  0  0
 46 48  1  0  0  0  0
  7 12  1  0  0  0  0
 36 41  1  0  0  0  0
 17 25  1  0  0  0  0
M  END
$$$$

  -OEChem-05262214473D

 51 50  0     1  0  0  0  0  0999 V2000
    1.3524   -3.0009    1.4091 C   0  0  0  0  0  0  0  0  0  0  0  0
    1.8758   -1.9880    0.9598 O   0  0  0  0  0  0  0  0  0  0  0  0
    2.2030   -4.1782    1.7536 C   0  0  0  0  0  0  0  0  0  0  0  0
    2.3264   -4.8705    0.9053 H   0  0  0  0  0  0  0  0  0  0  0  0
    3.2257   -3.8876    2.0432 H   0  0  0  0  0  0  0  0  0  0  0  0
    1.8327   -4.8004    2.5839 H   0  0  0  0  0  0  0  0  0  0  0  0
    0.0005   -3.1873    1.6465 N   0  0  0  0  0  0  0  0  0  0  0  0
   -0.9949   -2.1807    1.3864 C   0  0  2  0  0  0  0  0  0  0  0  0
   -0.3083   -0.8216    1.4164 C   0  0  0  0  0  0  0  0  0  0  0  0
    0.7533   -0.6191    2.0022 O   0  0  0  0  0  0  0  0  0  0  0  0
   -2.1232   -2.2423    2.4042 C   0  0  0  0  0  0  0  0  0  0  0  0
   -0.3048   -4.0823    2.0245 H   0  0  0  0  0  0  0  0  0  0  0  0
   -1.3830   -2.3724    0.3801 H   0  0  0  0  0  0  0  0  0  0  0  0
   -1.7534   -2.0527    3.4185 H   0  0  0  0  0  0  0  0  0  0  0  0
   -2.8936   -1.4947    2.1882 H   0  0  0  0  0  0  0  0  0  0  0  0
   -2.5964   -3.2301    2.4022 H   0  0  0  0  0  0  0  0  0  0  0  0
   -1.0412    0.1517    0.7482 N   0  0  0  0  0  0  0  0  0  0  0  0
   -0.6079    1.5223    0.6467 C   0  0  2  0  0  0  0  0  0  0  0  0
    0.2400    1.6614   -0.6169 C   0  0  0  0  0  0  0  0  0  0  0  0
    1.4541    1.4686   -0.6310 O   0  0  0  0  0  0  0  0  0  0  0  0
    0.1310    2.0180    1.9132 C   0  0  2  0  0  0  0  0  0  0  0  0
   -0.7789    2.0097    3.1617 C   0  0  0  0  0  0  0  0  0  0  0  0
    0.7357    3.4059    1.6629 C   0  0  0  0  0  0  0  0  0  0  0  0
   -0.0231    2.2340    4.4651 C   0  0  0  0  0  0  0  0  0  0  0  0
   -1.9022   -0.1128    0.2753 H   0  0  0  0  0  0  0  0  0  0  0  0
   -1.5194    2.1146    0.4953 H   0  0  0  0  0  0  0  0  0  0  0  0
    0.9679    1.3336    2.1063 H   0  0  0  0  0  0  0  0  0  0  0  0
   -1.5309    2.8022    3.0734 H   0  0  0  0  0  0  0  0  0  0  0  0
   -1.3244    1.0611    3.2309 H   0  0  0  0  0  0  0  0  0  0  0  0
   -0.0498    4.1423    1.4621 H   0  0  0  0  0  0  0  0  0  0  0  0
    1.2905    3.7598    2.5372 H   0  0  0  0  0  0  0  0  0  0  0  0
    1.4203    3.3975    0.8084 H   0  0  0  0  0  0  0  0  0  0  0  0
    0.7485    1.4744    4.6193 H   0  0  0  0  0  0  0  0  0  0  0  0
   -0.7140    2.1774    5.3127 H   0  0  0  0  0  0  0  0  0  0  0  0
    0.4504    3.2206    4.4805 H   0  0  0  0  0  0  0  0  0  0  0  0
   -0.5244    1.9926   -1.7267 N   0  0  0  0  0  0  0  0  0  0  0  0
    0.0313    2.1639   -3.0497 C   0  0  2  0  0  0  0  0  0  0  0  0
   -1.0625    1.8536   -4.0630 C   0  0  0  0  0  0  0  0  0  0  0  0
   -2.0413    1.1574   -3.8014 O   0  0  0  0  0  0  0  0  0  0  0  0
    1.2401    1.2661   -3.2627 C   0  0  0  0  0  0  0  0  0  0  0  0
   -1.5243    2.1209   -1.6030 H   0  0  0  0  0  0  0  0  0  0  0  0
    0.3224    3.2164   -3.1366 H   0  0  0  0  0  0  0  0  0  0  0  0
    0.9679    0.2076   -3.1794 H   0  0  0  0  0  0  0  0  0  0  0  0
    1.6771    1.4179   -4.2552 H   0  0  0  0  0  0  0  0  0  0  0  0
    2.0138    1.4702   -2.5146 H   0  0  0  0  0  0  0  0  0  0  0  0
   -0.7953    2.4097   -5.3062 N   0  0  0  0  0  0  0  0  0  0  0  0
   -1.6766    2.2469   -6.4388 C   0  0  0  0  0  0  0  0  0  0  0  0
    0.0307    2.9883   -5.4277 H   0  0  0  0  0  0  0  0  0  0  0  0
   -1.3612    1.3724   -7.0268 H   0  0  0  0  0  0  0  0  0  0  0  0
   -2.7067    2.0973   -6.0832 H   0  0  0  0  0  0  0  0  0  0  0  0
   -1.6335    3.1473   -7.0692 H   0  0  0  0  0  0  0  0  0  0  0  0
  1  3  1  0  0  0  0
  1  7  1  0  0  0  0
  1  2  2  0  0  0  0
 37 38  1  0  0  0  0
 38 46  1  0  0  0  0
 38 39  2  0  0  0  0
  8  9  1  0  0  0  0
  9 17  1  0  0  0  0
  9 10  2  0  0  0  0
 18 19  1  0  0  0  0
 19 36  1  0  0  0  0
 19 20  2  0  0  0  0
 22 24  1  0  0  0  0
 37 40  1  0  0  0  0
  8 11  1  0  0  0  0
 21 23  1  0  0  0  0
 46 47  1  0  0  0  0
 21 22  1  0  0  0  0
 36 37  1  0  0  0  0
  7  8  1  0  0  0  0
 18 21  1  0  0  0  0
 17 18  1  0  0  0  0
  3  4  1  0  0  0  0
  3  5  1  0  0  0  0
  3  6  1  0  0  0  0
 24 33  1  0  0  0  0
 24 34  1  0  0  0  0
 24 35  1  0  0  0  0
 40 43  1  0  0  0  0
 40 44  1  0  0  0  0
 40 45  1  0  0  0  0
 11 14  1  0  0  0  0
 11 15  1  0  0  0  0
 11 16  1  0  0  0  0
 23 30  1  0  0  0  0
 23 31  1  0  0  0  0
 23 32  1  0  0  0  0
 47 49  1  0  0  0  0
 47 50  1  0  0  0  0
 47 51  1  0  0  0  0
 22 28  1  0  0  0  0
 22 29  1  0  0  0  0
 37 42  1  0  0  0  0
  8 13  1  0  0  0  0
 18 26  1  0  0  0  0
 21 27  1  0  0  0  0
 46 48  1  0  0  0  0
  7 12  1  0  0  0  0
 36 41  1  0  0  0  0
 17 25  1  0  0  0  0
M  END
$$$$

  -OEChem-05262214473D

 51 50  0     1  0  0  0  0  0999 V2000
    1.3524   -3.0009    1.4091 C   0  0  0  0  0  0  0  0  0  0  0  0
    1.8758   -1.9880    0.9598 O   0  0  0  0  0  0  0  0  0  0  0  0
    2.2030   -4.1782    1.7536 C   0  0  0  0  0  0  0  0  0  0  0  0
    2.3264   -4.8705    0.9053 H   0  0  0  0  0  0  0  0  0  0  0  0
    3.2257   -3.8876    2.0432 H   0  0  0  0  0  0  0  0  0  0  0  0
    1.8327   -4.8004    2.5839 H   0  0  0  0  0  0  0  0  0  0  0  0
    0.0005   -3.1873    1.6465 N   0  0  0  0  0  0  0  0  0  0  0  0
   -0.9949   -2.1807    1.3864 C   0  0  2  0  0  0  0  0  0  0  0  0
   -0.3083   -0.8216    1.4164 C   0  0  0  0  0  0  0  0  0  0  0  0
    0.7533   -0.6191    2.0022 O   0  0  0  0  0  0  0  0  0  0  0  0
   -2.1232   -2.2423    2.4042 C   0  0  0  0  0  0  0  0  0  0  0  0
   -0.3048   -4.0823    2.0245 H   0  0  0  0  0  0  0  0  0  0  0  0
   -1.3830   -2.3724    0.3801 H   0  0  0  0  0  0  0  0  0  0  0  0
   -1.7534   -2.0527    3.4185 H   0  0  0  0  0  0  0  0  0  0  0  0
   -2.8936   -1.4947    2.1882 H   0  0  0  0  0  0  0  0  0  0  0  0
   -2.5964   -3.2301    2.4022 H   0  0  0  0  0  0  0  0  0  0  0  0
   -1.0412    0.1517    0.7482 N   0  0  0  0  0  0  0  0  0  0  0  0
   -0.6079    1.5223    0.6467 C   0  0  2  0  0  0  0  0  0  0  0  0
    0.2400    1.6614   -0.6169 C   0  0  0  0  0  0  0  0  0  0  0  0
    1.3837    1.2194   -0.7057 O   0  0  0  0  0  0  0  0  0  0  0  0
    0.1310    2.0180    1.9132 C   0  0  2  0  0  0  0  0  0  0  0  0
   -0.7789    2.0097    3.1617 C   0  0  0  0  0  0  0  0  0  0  0  0
    0.7357    3.4059    1.6629 C   0  0  0  0  0  0  0  0  0  0  0  0
   -0.0231    2.2340    4.4651 C   0  0  0  0  0  0  0  0  0  0  0  0
   -1.9022   -0.1128    0.2753 H   0  0  0  0  0  0  0  0  0  0  0  0
   -1.5194    2.1146    0.4953 H   0  0  0  0  0  0  0  0  0  0  0  0
    0.9679    1.3336    2.1063 H   0  0  0  0  0  0  0  0  0  0  0  0
   -1.5309    2.8022    3.0734 H   0  0  0  0  0  0  0  0  0  0  0  0
   -1.3244    1.0611    3.2309 H   0  0  0  0  0  0  0  0  0  0  0  0
   -0.0498    4.1423    1.4621 H   0  0  0  0  0  0  0  0  0  0  0  0
    1.2905    3.7598    2.5372 H   0  0  0  0  0  0  0  0  0  0  0  0
    1.4203    3.3975    0.8084 H   0  0  0  0  0  0  0  0  0  0  0  0
    0.7485    1.4744    4.6193 H   0  0  0  0  0  0  0  0  0  0  0  0
   -0.7140    2.1774    5.3127 H   0  0  0  0  0  0  0  0  0  0  0  0
    0.4504    3.2206    4.4805 H   0  0  0  0  0  0  0  0  0  0  0  0
   -0.4437    2.3059   -1.6381 N   0  0  0  0  0  0  0  0  0  0  0  0
    0.1253    2.5469   -2.9445 C   0  0  2  0  0  0  0  0  0  0  0  0
   -1.0177    2.6273   -3.9478 C   0  0  0  0  0  0  0  0  0  0  0  0
   -2.1215    2.1243   -3.7488 O   0  0  0  0  0  0  0  0  0  0  0  0
    1.1103    1.4539   -3.3292 C   0  0  0  0  0  0  0  0  0  0  0  0
   -1.3914    2.6241   -1.4584 H   0  0  0  0  0  0  0  0  0  0  0  0
    0.6360    3.5147   -2.8934 H   0  0  0  0  0  0  0  0  0  0  0  0
    0.6168    0.4768   -3.3854 H   0  0  0  0  0  0  0  0  0  0  0  0
    1.5618    1.6528   -4.3067 H   0  0  0  0  0  0  0  0  0  0  0  0
    1.9156    1.3775   -2.5907 H   0  0  0  0  0  0  0  0  0  0  0  0
   -0.6466    3.2896   -5.1096 N   0  0  0  0  0  0  0  0  0  0  0  0
   -1.5513    3.4850   -6.2184 C   0  0  0  0  0  0  0  0  0  0  0  0
    0.2837    3.6911   -5.1805 H   0  0  0  0  0  0  0  0  0  0  0  0
   -1.4366    2.6590   -6.9358 H   0  0  0  0  0  0  0  0  0  0  0  0
   -2.5865    3.5072   -5.8473 H   0  0  0  0  0  0  0  0  0  0  0  0
   -1.3199    4.4380   -6.7167 H   0  0  0  0  0  0  0  0  0  0  0  0
  1  3  1  0  0  0  0
  1  7  1  0  0  0  0
  1  2  2  0  0  0  0
 37 38  1  0  0  0  0
 38 46  1  0  0  0  0
 38 39  2  0  0  0  0
  8  9  1  0  0  0  0
  9 17  1  0  0  0  0
  9 10  2  0  0  0  0
 18 19  1  0  0  0  0
 19 36  1  0  0  0  0
 19 20  2  0  0  0  0
 22 24  1  0  0  0  0
 37 40  1  0  0  0  0
  8 11  1  0  0  0  0
 21 23  1  0  0  0  0
 46 47  1  0  0  0  0
 21 22  1  0  0  0  0
 36 37  1  0  0  0  0
  7  8  1  0  0  0  0
 18 21  1  0  0  0  0
 17 18  1  0  0  0  0
  3  4  1  0  0  0  0
  3  5  1  0  0  0  0
  3  6  1  0  0  0  0
 24 33  1  0  0  0  0
 24 34  1  0  0  0  0
 24 35  1  0  0  0  0
 40 43  1  0  0  0  0
 40 44  1  0  0  0  0
 40 45  1  0  0  0  0
 11 14  1  0  0  0  0
 11 15  1  0  0  0  0
 11 16  1  0  0  0  0
 23 30  1  0  0  0  0
 23 31  1  0  0  0  0
 23 32  1  0  0  0  0
 47 49  1  0  0  0  0
 47 50  1  0  0  0  0
 47 51  1  0  0  0  0
 22 28  1  0  0  0  0
 22 29  1  0  0  0  0
 37 42  1  0  0  0  0
  8 13  1  0  0  0  0
 18 26  1  0  0  0  0
 21 27  1  0  0  0  0
 46 48  1  0  0  0  0
  7 12  1  0  0  0  0
 36 41  1  0  0  0  0
 17 25  1  0  0  0  0
M  END
$$$$

  -OEChem-05262214473D

 51 50  0     1  0  0  0  0  0999 V2000
    1.3524   -3.0009    1.4091 C   0  0  0  0  0  0  0  0  0  0  0  0
    1.8758   -1.9880    0.9598 O   0  0  0  0  0  0  0  0  0  0  0  0
    2.2030   -4.1782    1.7536 C   0  0  0  0  0  0  0  0  0  0  0  0
    2.3264   -4.8705    0.9053 H   0  0  0  0  0  0  0  0  0  0  0  0
    3.2257   -3.8876    2.0432 H   0  0  0  0  0  0  0  0  0  0  0  0
    1.8327   -4.8004    2.5839 H   0  0  0  0  0  0  0  0  0  0  0  0
    0.0005   -3.1873    1.6465 N   0  0  0  0  0  0  0  0  0  0  0  0
   -0.9949   -2.1807    1.3864 C   0  0  2  0  0  0  0  0  0  0  0  0
   -0.3083   -0.8216    1.4164 C   0  0  0  0  0  0  0  0  0  0  0  0
    0.7533   -0.6191    2.0022 O   0  0  0  0  0  0  0  0  0  0  0  0
   -2.1232   -2.2423    2.4042 C   0  0  0  0  0  0  0  0  0  0  0  0
   -0.3048   -4.0823    2.0245 H   0  0  0  0  0  0  0  0  0  0  0  0
   -1.3830   -2.3724    0.3801 H   0  0  0  0  0  0  0  0  0  0  0  0
   -1.7534   -2.0527    3.4185 H   0  0  0  0  0  0  0  0  0  0  0  0
   -2.8936   -1.4947    2.1882 H   0  0  0  0  0  0  0  0  0  0  0  0
   -2.5964   -3.2301    2.4022 H   0  0  0  0  0  0  0  0  0  0  0  0
   -1.0412    0.1517    0.7482 N   0  0  0  0  0  0  0  0  0  0  0  0
   -0.6079    1.5223    0.6467 C   0  0  2  0  0  0  0  0  0  0  0  0
    0.2400    1.6614   -0.6169 C   0  0  0  0  0  0  0  0  0  0  0  0
    1.2607    1.0045   -0.8119 O   0  0  0  0  0  0  0  0  0  0  0  0
    0.1310    2.0180    1.9132 C   0  0  2  0  0  0  0  0  0  0  0  0
   -0.7789    2.0097    3.1617 C   0  0  0  0  0  0  0  0  0  0  0  0
    0.7357    3.4059    1.6629 C   0  0  0  0  0  0  0  0  0  0  0  0
   -0.0231    2.2340    4.4651 C   0  0  0  0  0  0  0  0  0  0  0  0
   -1.9022   -0.1128    0.2753 H   0  0  0  0  0  0  0  0  0  0  0  0
   -1.5194    2.1146    0.4953 H   0  0  0  0  0  0  0  0  0  0  0  0
    0.9679    1.3336    2.1063 H   0  0  0  0  0  0  0  0  0  0  0  0
   -1.5309    2.8022    3.0734 H   0  0  0  0  0  0  0  0  0  0  0  0
   -1.3244    1.0611    3.2309 H   0  0  0  0  0  0  0  0  0  0  0  0
   -0.0498    4.1423    1.4621 H   0  0  0  0  0  0  0  0  0  0  0  0
    1.2905    3.7598    2.5372 H   0  0  0  0  0  0  0  0  0  0  0  0
    1.4203    3.3975    0.8084 H   0  0  0  0  0  0  0  0  0  0  0  0
    0.7485    1.4744    4.6193 H   0  0  0  0  0  0  0  0  0  0  0  0
   -0.7140    2.1774    5.3127 H   0  0  0  0  0  0  0  0  0  0  0  0
    0.4504    3.2206    4.4805 H   0  0  0  0  0  0  0  0  0  0  0  0
   -0.2967    2.5785   -1.5094 N   0  0  0  0  0  0  0  0  0  0  0  0
    0.3006    2.8815   -2.7900 C   0  0  2  0  0  0  0  0  0  0  0  0
   -0.8060    3.3486   -3.7263 C   0  0  0  0  0  0  0  0  0  0  0  0
   -1.9908    3.0678   -3.5572 O   0  0  0  0  0  0  0  0  0  0  0  0
    1.0235    1.6726   -3.3633 C   0  0  0  0  0  0  0  0  0  0  0  0
   -1.1519    3.0609   -1.2496 H   0  0  0  0  0  0  0  0  0  0  0  0
    1.0084    3.7007   -2.6230 H   0  0  0  0  0  0  0  0  0  0  0  0
    0.3304    0.8415   -3.5374 H   0  0  0  0  0  0  0  0  0  0  0  0
    1.4996    1.9118   -4.3200 H   0  0  0  0  0  0  0  0  0  0  0  0
    1.7992    1.3199   -2.6752 H   0  0  0  0  0  0  0  0  0  0  0  0
   -0.3101    4.0796   -4.7968 N   0  0  0  0  0  0  0  0  0  0  0  0
   -1.1600    4.6225   -5.8306 C   0  0  0  0  0  0  0  0  0  0  0  0
    0.6844    4.2803   -4.8468 H   0  0  0  0  0  0  0  0  0  0  0  0
   -1.2319    3.9049   -6.6613 H   0  0  0  0  0  0  0  0  0  0  0  0
   -2.1631    4.8095   -5.4199 H   0  0  0  0  0  0  0  0  0  0  0  0
   -0.7324    5.5670   -6.1982 H   0  0  0  0  0  0  0  0  0  0  0  0
  1  3  1  0  0  0  0
  1  7  1  0  0  0  0
  1  2  2  0  0  0  0
 37 38  1  0  0  0  0
 38 46  1  0  0  0  0
 38 39  2  0  0  0  0
  8  9  1  0  0  0  0
  9 17  1  0  0  0  0
  9 10  2  0  0  0  0
 18 19  1  0  0  0  0
 19 36  1  0  0  0  0
 19 20  2  0  0  0  0
 22 24  1  0  0  0  0
 37 40  1  0  0  0  0
  8 11  1  0  0  0  0
 21 23  1  0  0  0  0
 46 47  1  0  0  0  0
 21 22  1  0  0  0  0
 36 37  1  0  0  0  0
  7  8  1  0  0  0  0
 18 21  1  0  0  0  0
 17 18  1  0  0  0  0
  3  4  1  0  0  0  0
  3  5  1  0  0  0  0
  3  6  1  0  0  0  0
 24 33  1  0  0  0  0
 24 34  1  0  0  0  0
 24 35  1  0  0  0  0
 40 43  1  0  0  0  0
 40 44  1  0  0  0  0
 40 45  1  0  0  0  0
 11 14  1  0  0  0  0
 11 15  1  0  0  0  0
 11 16  1  0  0  0  0
 23 30  1  0  0  0  0
 23 31  1  0  0  0  0
 23 32  1  0  0  0  0
 47 49  1  0  0  0  0
 47 50  1  0  0  0  0
 47 51  1  0  0  0  0
 22 28  1  0  0  0  0
 22 29  1  0  0  0  0
 37 42  1  0  0  0  0
  8 13  1  0  0  0  0
 18 26  1  0  0  0  0
 21 27  1  0  0  0  0
 46 48  1  0  0  0  0
  7 12  1  0  0  0  0
 36 41  1  0  0  0  0
 17 25  1  0  0  0  0
M  END
$$$$

  -OEChem-05262214473D

 51 50  0     1  0  0  0  0  0999 V2000
    1.3524   -3.0009    1.4091 C   0  0  0  0  0  0  0  0  0  0  0  0
    1.8758   -1.9880    0.9598 O   0  0  0  0  0  0  0  0  0  0  0  0
    2.2030   -4.1782    1.7536 C   0  0  0  0  0  0  0  0  0  0  0  0
    2.3264   -4.8705    0.9053 H   0  0  0  0  0  0  0  0  0  0  0  0
    3.2257   -3.8876    2.0432 H   0  0  0  0  0  0  0  0  0  0  0  0
    1.8327   -4.8004    2.5839 H   0  0  0  0  0  0  0  0  0  0  0  0
    0.0005   -3.1873    1.6465 N   0  0  0  0  0  0  0  0  0  0  0  0
   -0.9949   -2.1807    1.3864 C   0  0  2  0  0  0  0  0  0  0  0  0
   -0.3083   -0.8216    1.4164 C   0  0  0  0  0  0  0  0  0  0  0  0
    0.7533   -0.6191    2.0022 O   0  0  0  0  0  0  0  0  0  0  0  0
   -2.1232   -2.2423    2.4042 C   0  0  0  0  0  0  0  0  0  0  0  0
   -0.3048   -4.0823    2.0245 H   0  0  0  0  0  0  0  0  0  0  0  0
   -1.3830   -2.3724    0.3801 H   0  0  0  0  0  0  0  0  0  0  0  0
   -1.7534   -2.0527    3.4185 H   0  0  0  0  0  0  0  0  0  0  0  0
   -2.8936   -1.4947    2.1882 H   0  0  0  0  0  0  0  0  0  0  0  0
   -2.5964   -3.2301    2.4022 H   0  0  0  0  0  0  0  0  0  0  0  0
   -1.0412    0.1517    0.7482 N   0  0  0  0  0  0  0  0  0  0  0  0
   -0.6079    1.5223    0.6467 C   0  0  2  0  0  0  0  0  0  0  0  0
    0.2400    1.6614   -0.6169 C   0  0  0  0  0  0  0  0  0  0  0  0
    1.0933    0.8385   -0.9425 O   0  0  0  0  0  0  0  0  0  0  0  0
    0.1310    2.0180    1.9132 C   0  0  2  0  0  0  0  0  0  0  0  0
   -0.7789    2.0097    3.1617 C   0  0  0  0  0  0  0  0  0  0  0  0
    0.7357    3.4059    1.6629 C   0  0  0  0  0  0  0  0  0  0  0  0
   -0.0231    2.2340    4.4651 C   0  0  0  0  0  0  0  0  0  0  0  0
   -1.9022   -0.1128    0.2753 H   0  0  0  0  0  0  0  0  0  0  0  0
   -1.5194    2.1146    0.4953 H   0  0  0  0  0  0  0  0  0  0  0  0
    0.9679    1.3336    2.1063 H   0  0  0  0  0  0  0  0  0  0  0  0
   -1.5309    2.8022    3.0734 H   0  0  0  0  0  0  0  0  0  0  0  0
   -1.3244    1.0611    3.2309 H   0  0  0  0  0  0  0  0  0  0  0  0
   -0.0498    4.1423    1.4621 H   0  0  0  0  0  0  0  0  0  0  0  0
    1.2905    3.7598    2.5372 H   0  0  0  0  0  0  0  0  0  0  0  0
    1.4203    3.3975    0.8084 H   0  0  0  0  0  0  0  0  0  0  0  0
    0.7485    1.4744    4.6193 H   0  0  0  0  0  0  0  0  0  0  0  0
   -0.7140    2.1774    5.3127 H   0  0  0  0  0  0  0  0  0  0  0  0
    0.4504    3.2206    4.4805 H   0  0  0  0  0  0  0  0  0  0  0  0
   -0.0932    2.7919   -1.3494 N   0  0  0  0  0  0  0  0  0  0  0  0
    0.5452    3.1451   -2.5969 C   0  0  2  0  0  0  0  0  0  0  0  0
   -0.4420    3.9682   -3.4139 C   0  0  0  0  0  0  0  0  0  0  0  0
   -1.6581    3.9237   -3.2397 O   0  0  0  0  0  0  0  0  0  0  0  0
    0.9856    1.9073   -3.3629 C   0  0  0  0  0  0  0  0  0  0  0  0
   -0.8222    3.4016   -0.9908 H   0  0  0  0  0  0  0  0  0  0  0  0
    1.4144    3.7619   -2.3439 H   0  0  0  0  0  0  0  0  0  0  0  0
    0.1282    1.2769   -3.6252 H   0  0  0  0  0  0  0  0  0  0  0  0
    1.4945    2.1773   -4.2941 H   0  0  0  0  0  0  0  0  0  0  0  0
    1.6724    1.3012   -2.7623 H   0  0  0  0  0  0  0  0  0  0  0  0
    0.1915    4.7256   -4.3891 N   0  0  0  0  0  0  0  0  0  0  0  0
   -0.5295    5.5818   -5.3020 C   0  0  0  0  0  0  0  0  0  0  0  0
    1.2054    4.7157   -4.4493 H   0  0  0  0  0  0  0  0  0  0  0  0
   -0.7611    5.0252   -6.2220 H   0  0  0  0  0  0  0  0  0  0  0  0
   -1.4654    5.9154   -4.8299 H   0  0  0  0  0  0  0  0  0  0  0  0
    0.0889    6.4573   -5.5491 H   0  0  0  0  0  0  0  0  0  0  0  0
  1  3  1  0  0  0  0
  1  7  1  0  0  0  0
  1  2  2  0  0  0  0
 37 38  1  0  0  0  0
 38 46  1  0  0  0  0
 38 39  2  0  0  0  0
  8  9  1  0  0  0  0
  9 17  1  0  0  0  0
  9 10  2  0  0  0  0
 18 19  1  0  0  0  0
 19 36  1  0  0  0  0
 19 20  2  0  0  0  0
 22 24  1  0  0  0  0
 37 40  1  0  0  0  0
  8 11  1  0  0  0  0
 21 23  1  0  0  0  0
 46 47  1  0  0  0  0
 21 22  1  0  0  0  0
 36 37  1  0  0  0  0
  7  8  1  0  0  0  0
 18 21  1  0  0  0  0
 17 18  1  0  0  0  0
  3  4  1  0  0  0  0
  3  5  1  0  0  0  0
  3  6  1  0  0  0  0
 24 33  1  0  0  0  0
 24 34  1  0  0  0  0
 24 35  1  0  0  0  0
 40 43  1  0  0  0  0
 40 44  1  0  0  0  0
 40 45  1  0  0  0  0
 11 14  1  0  0  0  0
 11 15  1  0  0  0  0
 11 16  1  0  0  0  0
 23 30  1  0  0  0  0
 23 31  1  0  0  0  0
 23 32  1  0  0  0  0
 47 49  1  0  0  0  0
 47 50  1  0  0  0  0
 47 51  1  0  0  0  0
 22 28  1  0  0  0  0
 22 29  1  0  0  0  0
 37 42  1  0  0  0  0
  8 13  1  0  0  0  0
 18 26  1  0  0  0  0
 21 27  1  0  0  0  0
 46 48  1  0  0  0  0
  7 12  1  0  0  0  0
 36 41  1  0  0  0  0
 17 25  1  0  0  0  0
M  END
$$$$

  -OEChem-05262214473D

 51 50  0     1  0  0  0  0  0999 V2000
    1.3524   -3.0009    1.4091 C   0  0  0  0  0  0  0  0  0  0  0  0
    1.8758   -1.9880    0.9598 O   0  0  0  0  0  0  0  0  0  0  0  0
    2.2030   -4.1782    1.7536 C   0  0  0  0  0  0  0  0  0  0  0  0
    2.3264   -4.8705    0.9053 H   0  0  0  0  0  0  0  0  0  0  0  0
    3.2257   -3.8876    2.0432 H   0  0  0  0  0  0  0  0  0  0  0  0
    1.8327   -4.8004    2.5839 H   0  0  0  0  0  0  0  0  0  0  0  0
    0.0005   -3.1873    1.6465 N   0  0  0  0  0  0  0  0  0  0  0  0
   -0.9949   -2.1807    1.3864 C   0  0  2  0  0  0  0  0  0  0  0  0
   -0.3083   -0.8216    1.4164 C   0  0  0  0  0  0  0  0  0  0  0  0
    0.7533   -0.6191    2.0022 O   0  0  0  0  0  0  0  0  0  0  0  0
   -2.1232   -2.2423    2.4042 C   0  0  0  0  0  0  0  0  0  0  0  0
   -0.3048   -4.0823    2.0245 H   0  0  0  0  0  0  0  0  0  0  0  0
   -1.3830   -2.3724    0.3801 H   0  0  0  0  0  0  0  0  0  0  0  0
   -1.7534   -2.0527    3.4185 H   0  0  0  0  0  0  0  0  0  0  0  0
   -2.8936   -1.4947    2.1882 H   0  0  0  0  0  0  0  0  0  0  0  0
   -2.5964   -3.2301    2.4022 H   0  0  0  0  0  0  0  0  0  0  0  0
   -1.0412    0.1517    0.7482 N   0  0  0  0  0  0  0  0  0  0  0  0
   -0.6079    1.5223    0.6467 C   0  0  2  0  0  0  0  0  0  0  0  0
    0.2400    1.6614   -0.6169 C   0  0  0  0  0  0  0  0  0  0  0  0
    0.8930    0.7327   -1.0885 O   0  0  0  0  0  0  0  0  0  0  0  0
    0.1310    2.0180    1.9132 C   0  0  2  0  0  0  0  0  0  0  0  0
   -0.7789    2.0097    3.1617 C   0  0  0  0  0  0  0  0  0  0  0  0
    0.7357    3.4059    1.6629 C   0  0  0  0  0  0  0  0  0  0  0  0
   -0.0231    2.2340    4.4651 C   0  0  0  0  0  0  0  0  0  0  0  0
   -1.9022   -0.1128    0.2753 H   0  0  0  0  0  0  0  0  0  0  0  0
   -1.5194    2.1146    0.4953 H   0  0  0  0  0  0  0  0  0  0  0  0
    0.9679    1.3336    2.1063 H   0  0  0  0  0  0  0  0  0  0  0  0
   -1.5309    2.8022    3.0734 H   0  0  0  0  0  0  0  0  0  0  0  0
   -1.3244    1.0611    3.2309 H   0  0  0  0  0  0  0  0  0  0  0  0
   -0.0498    4.1423    1.4621 H   0  0  0  0  0  0  0  0  0  0  0  0
    1.2905    3.7598    2.5372 H   0  0  0  0  0  0  0  0  0  0  0  0
    1.4203    3.3975    0.8084 H   0  0  0  0  0  0  0  0  0  0  0  0
    0.7485    1.4744    4.6193 H   0  0  0  0  0  0  0  0  0  0  0  0
   -0.7140    2.1774    5.3127 H   0  0  0  0  0  0  0  0  0  0  0  0
    0.4504    3.2206    4.4805 H   0  0  0  0  0  0  0  0  0  0  0  0
    0.1527    2.9315   -1.1690 N   0  0  0  0  0  0  0  0  0  0  0  0
    0.8424    3.3196   -2.3783 C   0  0  2  0  0  0  0  0  0  0  0  0
    0.0496    4.4439   -3.0317 C   0  0  0  0  0  0  0  0  0  0  0  0
   -1.1460    4.6336   -2.8180 O   0  0  0  0  0  0  0  0  0  0  0  0
    0.9993    2.1421   -3.3278 C   0  0  0  0  0  0  0  0  0  0  0  0
   -0.4246    3.6230   -0.6997 H   0  0  0  0  0  0  0  0  0  0  0  0
    1.8262    3.6940   -2.0751 H   0  0  0  0  0  0  0  0  0  0  0  0
    0.0240    1.7534   -3.6426 H   0  0  0  0  0  0  0  0  0  0  0  0
    1.5471    2.4310   -4.2309 H   0  0  0  0  0  0  0  0  0  0  0  0
    1.5439    1.3229   -2.8461 H   0  0  0  0  0  0  0  0  0  0  0  0
    0.8238    5.1838   -3.9144 N   0  0  0  0  0  0  0  0  0  0  0  0
    0.2974    6.2975   -4.6684 C   0  0  0  0  0  0  0  0  0  0  0  0
    1.8112    4.9678   -4.0150 H   0  0  0  0  0  0  0  0  0  0  0  0
   -0.0562    5.9434   -5.6480 H   0  0  0  0  0  0  0  0  0  0  0  0
   -0.5408    6.7495   -4.1177 H   0  0  0  0  0  0  0  0  0  0  0  0
    1.0881    7.0483   -4.8136 H   0  0  0  0  0  0  0  0  0  0  0  0
  1  3  1  0  0  0  0
  1  7  1  0  0  0  0
  1  2  2  0  0  0  0
 37 38  1  0  0  0  0
 38 46  1  0  0  0  0
 38 39  2  0  0  0  0
  8  9  1  0  0  0  0
  9 17  1  0  0  0  0
  9 10  2  0  0  0  0
 18 19  1  0  0  0  0
 19 36  1  0  0  0  0
 19 20  2  0  0  0  0
 22 24  1  0  0  0  0
 37 40  1  0  0  0  0
  8 11  1  0  0  0  0
 21 23  1  0  0  0  0
 46 47  1  0  0  0  0
 21 22  1  0  0  0  0
 36 37  1  0  0  0  0
  7  8  1  0  0  0  0
 18 21  1  0  0  0  0
 17 18  1  0  0  0  0
  3  4  1  0  0  0  0
  3  5  1  0  0  0  0
  3  6  1  0  0  0  0
 24 33  1  0  0  0  0
 24 34  1  0  0  0  0
 24 35  1  0  0  0  0
 40 43  1  0  0  0  0
 40 44  1  0  0  0  0
 40 45  1  0  0  0  0
 11 14  1  0  0  0  0
 11 15  1  0  0  0  0
 11 16  1  0  0  0  0
 23 30  1  0  0  0  0
 23 31  1  0  0  0  0
 23 32  1  0  0  0  0
 47 49  1  0  0  0  0
 47 50  1  0  0  0  0
 47 51  1  0  0  0  0
 22 28  1  0  0  0  0
 22 29  1  0  0  0  0
 37 42  1  0  0  0  0
  8 13  1  0  0  0  0
 18 26  1  0  0  0  0
 21 27  1  0  0  0  0
 46 48  1  0  0  0  0
  7 12  1  0  0  0  0
 36 41  1  0  0  0  0
 17 25  1  0  0  0  0
M  END
$$$$

  -OEChem-05262214473D

 51 50  0     1  0  0  0  0  0999 V2000
    1.3524   -3.0009    1.4091 C   0  0  0  0  0  0  0  0  0  0  0  0
    1.8758   -1.9880    0.9598 O   0  0  0  0  0  0  0  0  0  0  0  0
    2.2030   -4.1782    1.7536 C   0  0  0  0  0  0  0  0  0  0  0  0
    2.3264   -4.8705    0.9053 H   0  0  0  0  0  0  0  0  0  0  0  0
    3.2257   -3.8876    2.0432 H   0  0  0  0  0  0  0  0  0  0  0  0
    1.8327   -4.8004    2.5839 H   0  0  0  0  0  0  0  0  0  0  0  0
    0.0005   -3.1873    1.6465 N   0  0  0  0  0  0  0  0  0  0  0  0
   -0.9949   -2.1807    1.3864 C   0  0  2  0  0  0  0  0  0  0  0  0
   -0.3083   -0.8216    1.4164 C   0  0  0  0  0  0  0  0  0  0  0  0
    0.7533   -0.6191    2.0022 O   0  0  0  0  0  0  0  0  0  0  0  0
   -2.1232   -2.2423    2.4042 C   0  0  0  0  0  0  0  0  0  0  0  0
   -0.3048   -4.0823    2.0245 H   0  0  0  0  0  0  0  0  0  0  0  0
   -1.3830   -2.3724    0.3801 H   0  0  0  0  0  0  0  0  0  0  0  0
   -1.7534   -2.0527    3.4185 H   0  0  0  0  0  0  0  0  0  0  0  0
   -2.8936   -1.4947    2.1882 H   0  0  0  0  0  0  0  0  0  0  0  0
   -2.5964   -3.2301    2.4022 H   0  0  0  0  0  0  0  0  0  0  0  0
   -1.0412    0.1517    0.7482 N   0  0  0  0  0  0  0  0  0  0  0  0
   -0.6079    1.5223    0.6467 C   0  0  2  0  0  0  0  0  0  0  0  0
    0.2400    1.6614   -0.6169 C   0  0  0  0  0  0  0  0  0  0  0  0
    0.6735    0.6944   -1.2400 O   0  0  0  0  0  0  0  0  0  0  0  0
    0.1310    2.0180    1.9132 C   0  0  2  0  0  0  0  0  0  0  0  0
   -0.7789    2.0097    3.1617 C   0  0  0  0  0  0  0  0  0  0  0  0
    0.7357    3.4059    1.6629 C   0  0  0  0  0  0  0  0  0  0  0  0
   -0.0231    2.2340    4.4651 C   0  0  0  0  0  0  0  0  0  0  0  0
   -1.9022   -0.1128    0.2753 H   0  0  0  0  0  0  0  0  0  0  0  0
   -1.5194    2.1146    0.4953 H   0  0  0  0  0  0  0  0  0  0  0  0
    0.9679    1.3336    2.1063 H   0  0  0  0  0  0  0  0  0  0  0  0
   -1.5309    2.8022    3.0734 H   0  0  0  0  0  0  0  0  0  0  0  0
   -1.3244    1.0611    3.2309 H   0  0  0  0  0  0  0  0  0  0  0  0
   -0.0498    4.1423    1.4621 H   0  0  0  0  0  0  0  0  0  0  0  0
    1.2905    3.7598    2.5372 H   0  0  0  0  0  0  0  0  0  0  0  0
    1.4203    3.3975    0.8084 H   0  0  0  0  0  0  0  0  0  0  0  0
    0.7485    1.4744    4.6193 H   0  0  0  0  0  0  0  0  0  0  0  0
   -0.7140    2.1774    5.3127 H   0  0  0  0  0  0  0  0  0  0  0  0
    0.4504    3.2206    4.4805 H   0  0  0  0  0  0  0  0  0  0  0  0
    0.4244    2.9878   -0.9805 N   0  0  0  0  0  0  0  0  0  0  0  0
    1.1719    3.3931   -2.1490 C   0  0  2  0  0  0  0  0  0  0  0  0
    0.6352    4.7432   -2.6058 C   0  0  0  0  0  0  0  0  0  0  0  0
   -0.4895    5.1492   -2.3207 O   0  0  0  0  0  0  0  0  0  0  0  0
    1.0636    2.3609   -3.2606 C   0  0  0  0  0  0  0  0  0  0  0  0
    0.0136    3.7099   -0.3961 H   0  0  0  0  0  0  0  0  0  0  0  0
    2.2157    3.5017   -1.8348 H   0  0  0  0  0  0  0  0  0  0  0  0
    0.0249    2.2384   -3.5886 H   0  0  0  0  0  0  0  0  0  0  0  0
    1.6536    2.6558   -4.1347 H   0  0  0  0  0  0  0  0  0  0  0  0
    1.4224    1.3833   -2.9210 H   0  0  0  0  0  0  0  0  0  0  0  0
    1.5438    5.4228   -3.4050 N   0  0  0  0  0  0  0  0  0  0  0  0
    1.2641    6.7209   -3.9731 C   0  0  0  0  0  0  0  0  0  0  0  0
    2.4605    5.0192   -3.5737 H   0  0  0  0  0  0  0  0  0  0  0  0
    0.8347    6.5970   -4.9782 H   0  0  0  0  0  0  0  0  0  0  0  0
    0.5477    7.2550   -3.3317 H   0  0  0  0  0  0  0  0  0  0  0  0
    2.1970    7.2996   -4.0419 H   0  0  0  0  0  0  0  0  0  0  0  0
  1  3  1  0  0  0  0
  1  7  1  0  0  0  0
  1  2  2  0  0  0  0
 37 38  1  0  0  0  0
 38 46  1  0  0  0  0
 38 39  2  0  0  0  0
  8  9  1  0  0  0  0
  9 17  1  0  0  0  0
  9 10  2  0  0  0  0
 18 19  1  0  0  0  0
 19 36  1  0  0  0  0
 19 20  2  0  0  0  0
 22 24  1  0  0  0  0
 37 40  1  0  0  0  0
  8 11  1  0  0  0  0
 21 23  1  0  0  0  0
 46 47  1  0  0  0  0
 21 22  1  0  0  0  0
 36 37  1  0  0  0  0
  7  8  1  0  0  0  0
 18 21  1  0  0  0  0
 17 18  1  0  0  0  0
  3  4  1  0  0  0  0
  3  5  1  0  0  0  0
  3  6  1  0  0  0  0
 24 33  1  0  0  0  0
 24 34  1  0  0  0  0
 24 35  1  0  0  0  0
 40 43  1  0  0  0  0
 40 44  1  0  0  0  0
 40 45  1  0  0  0  0
 11 14  1  0  0  0  0
 11 15  1  0  0  0  0
 11 16  1  0  0  0  0
 23 30  1  0  0  0  0
 23 31  1  0  0  0  0
 23 32  1  0  0  0  0
 47 49  1  0  0  0  0
 47 50  1  0  0  0  0
 47 51  1  0  0  0  0
 22 28  1  0  0  0  0
 22 29  1  0  0  0  0
 37 42  1  0  0  0  0
  8 13  1  0  0  0  0
 18 26  1  0  0  0  0
 21 27  1  0  0  0  0
 46 48  1  0  0  0  0
  7 12  1  0  0  0  0
 36 41  1  0  0  0  0
 17 25  1  0  0  0  0
M  END
$$$$

  -OEChem-05262214473D

 51 50  0     1  0  0  0  0  0999 V2000
    1.3524   -3.0009    1.4091 C   0  0  0  0  0  0  0  0  0  0  0  0
    1.8758   -1.9880    0.9598 O   0  0  0  0  0  0  0  0  0  0  0  0
    2.2030   -4.1782    1.7536 C   0  0  0  0  0  0  0  0  0  0  0  0
    2.3264   -4.8705    0.9053 H   0  0  0  0  0  0  0  0  0  0  0  0
    3.2257   -3.8876    2.0432 H   0  0  0  0  0  0  0  0  0  0  0  0
    1.8327   -4.8004    2.5839 H   0  0  0  0  0  0  0  0  0  0  0  0
    0.0005   -3.1873    1.6465 N   0  0  0  0  0  0  0  0  0  0  0  0
   -0.9949   -2.1807    1.3864 C   0  0  2  0  0  0  0  0  0  0  0  0
   -0.3083   -0.8216    1.4164 C   0  0  0  0  0  0  0  0  0  0  0  0
    0.7533   -0.6191    2.0022 O   0  0  0  0  0  0  0  0  0  0  0  0
   -2.1232   -2.2423    2.4042 C   0  0  0  0  0  0  0  0  0  0  0  0
   -0.3048   -4.0823    2.0245 H   0  0  0  0  0  0  0  0  0  0  0  0
   -1.3830   -2.3724    0.3801 H   0  0  0  0  0  0  0  0  0  0  0  0
   -1.7534   -2.0527    3.4185 H   0  0  0  0  0  0  0  0  0  0  0  0
   -2.8936   -1.4947    2.1882 H   0  0  0  0  0  0  0  0  0  0  0  0
   -2.5964   -3.2301    2.4022 H   0  0  0  0  0  0  0  0  0  0  0  0
   -1.0412    0.1517    0.7482 N   0  0  0  0  0  0  0  0  0  0  0  0
   -0.6079    1.5223    0.6467 C   0  0  2  0  0  0  0  0  0  0  0  0
   -0.0926    1.7550   -0.7729 C   0  0  0  0  0  0  0  0  0  0  0  0
   -0.1044    0.8826   -1.6390 O   0  0  0  0  0  0  0  0  0  0  0  0
    0.4328    1.9087    1.7253 C   0  0  2  0  0  0  0  0  0  0  0  0
   -0.1427    1.8081    3.1554 C   0  0  0  0  0  0  0  0  0  0  0  0
    0.9961    3.3069    1.4390 C   0  0  0  0  0  0  0  0  0  0  0  0
    0.9159    1.9209    4.2450 C   0  0  0  0  0  0  0  0  0  0  0  0
   -1.9022   -0.1128    0.2753 H   0  0  0  0  0  0  0  0  0  0  0  0
   -1.5117    2.1326    0.7702 H   0  0  0  0  0  0  0  0  0  0  0  0
    1.2721    1.2040    1.6535 H   0  0  0  0  0  0  0  0  0  0  0  0
   -0.8709    2.6114    3.3157 H   0  0  0  0  0  0  0  0  0  0  0  0
   -0.6808    0.8616    3.2854 H   0  0  0  0  0  0  0  0  0  0  0  0
    0.2063    4.0638    1.4946 H   0  0  0  0  0  0  0  0  0  0  0  0
    1.7582    3.5850    2.1734 H   0  0  0  0  0  0  0  0  0  0  0  0
    1.4496    3.3613    0.4439 H   0  0  0  0  0  0  0  0  0  0  0  0
    1.6802    1.1449    4.1461 H   0  0  0  0  0  0  0  0  0  0  0  0
    0.4528    1.8024    5.2302 H   0  0  0  0  0  0  0  0  0  0  0  0
    1.4061    2.8990    4.2176 H   0  0  0  0  0  0  0  0  0  0  0  0
    0.3486    3.0568   -0.9631 N   0  0  0  0  0  0  0  0  0  0  0  0
    0.8660    3.5428   -2.2220 C   0  0  2  0  0  0  0  0  0  0  0  0
    0.6194    5.0444   -2.2836 C   0  0  0  0  0  0  0  0  0  0  0  0
   -0.2471    5.6097   -1.6198 O   0  0  0  0  0  0  0  0  0  0  0  0
    0.2119    2.8358   -3.3989 C   0  0  0  0  0  0  0  0  0  0  0  0
    0.3057    3.7003   -0.1785 H   0  0  0  0  0  0  0  0  0  0  0  0
    1.9441    3.3490   -2.2167 H   0  0  0  0  0  0  0  0  0  0  0  0
   -0.8687    3.0184   -3.4208 H   0  0  0  0  0  0  0  0  0  0  0  0
    0.6253    3.1847   -4.3510 H   0  0  0  0  0  0  0  0  0  0  0  0
    0.3648    1.7530   -3.3371 H   0  0  0  0  0  0  0  0  0  0  0  0
    1.4520    5.6728   -3.1990 N   0  0  0  0  0  0  0  0  0  0  0  0
    1.4031    7.0944   -3.4496 C   0  0  0  0  0  0  0  0  0  0  0  0
    2.1543    5.1287   -3.6915 H   0  0  0  0  0  0  0  0  0  0  0  0
    0.7223    7.2959   -4.2898 H   0  0  0  0  0  0  0  0  0  0  0  0
    1.0390    7.6128   -2.5504 H   0  0  0  0  0  0  0  0  0  0  0  0
    2.4110    7.4574   -3.6994 H   0  0  0  0  0  0  0  0  0  0  0  0
  1  3  1  0  0  0  0
  1  7  1  0  0  0  0
  1  2  2  0  0  0  0
 37 38  1  0  0  0  0
 38 46  1  0  0  0  0
 38 39  2  0  0  0  0
  8  9  1  0  0  0  0
  9 17  1  0  0  0  0
  9 10  2  0  0  0  0
 18 19  1  0  0  0  0
 19 36  1  0  0  0  0
 19 20  2  0  0  0  0
 22 24  1  0  0  0  0
 37 40  1  0  0  0  0
  8 11  1  0  0  0  0
 21 23  1  0  0  0  0
 46 47  1  0  0  0  0
 21 22  1  0  0  0  0
 36 37  1  0  0  0  0
  7  8  1  0  0  0  0
 18 21  1  0  0  0  0
 17 18  1  0  0  0  0
  3  4  1  0  0  0  0
  3  5  1  0  0  0  0
  3  6  1  0  0  0  0
 24 33  1  0  0  0  0
 24 34  1  0  0  0  0
 24 35  1  0  0  0  0
 40 43  1  0  0  0  0
 40 44  1  0  0  0  0
 40 45  1  0  0  0  0
 11 14  1  0  0  0  0
 11 15  1  0  0  0  0
 11 16  1  0  0  0  0
 23 30  1  0  0  0  0
 23 31  1  0  0  0  0
 23 32  1  0  0  0  0
 47 49  1  0  0  0  0
 47 50  1  0  0  0  0
 47 51  1  0  0  0  0
 22 28  1  0  0  0  0
 22 29  1  0  0  0  0
 37 42  1  0  0  0  0
  8 13  1  0  0  0  0
 18 26  1  0  0  0  0
 21 27  1  0  0  0  0
 46 48  1  0  0  0  0
  7 12  1  0  0  0  0
 36 41  1  0  0  0  0
 17 25  1  0  0  0  0
M  END
$$$$

  -OEChem-05262214473D

 51 50  0     1  0  0  0  0  0999 V2000
    1.3524   -3.0009    1.4091 C   0  0  0  0  0  0  0  0  0  0  0  0
    1.8758   -1.9880    0.9598 O   0  0  0  0  0  0  0  0  0  0  0  0
    2.2030   -4.1782    1.7536 C   0  0  0  0  0  0  0  0  0  0  0  0
    2.3264   -4.8705    0.9053 H   0  0  0  0  0  0  0  0  0  0  0  0
    3.2257   -3.8876    2.0432 H   0  0  0  0  0  0  0  0  0  0  0  0
    1.8327   -4.8004    2.5839 H   0  0  0  0  0  0  0  0  0  0  0  0
    0.0005   -3.1873    1.6465 N   0  0  0  0  0  0  0  0  0  0  0  0
   -0.9949   -2.1807    1.3864 C   0  0  2  0  0  0  0  0  0  0  0  0
   -0.3083   -0.8216    1.4164 C   0  0  0  0  0  0  0  0  0  0  0  0
    0.7533   -0.6191    2.0022 O   0  0  0  0  0  0  0  0  0  0  0  0
   -2.1232   -2.2423    2.4042 C   0  0  0  0  0  0  0  0  0  0  0  0
   -0.3048   -4.0823    2.0245 H   0  0  0  0  0  0  0  0  0  0  0  0
   -1.3830   -2.3724    0.3801 H   0  0  0  0  0  0  0  0  0  0  0  0
   -1.7534   -2.0527    3.4185 H   0  0  0  0  0  0  0  0  0  0  0  0
   -2.8936   -1.4947    2.1882 H   0  0  0  0  0  0  0  0  0  0  0  0
   -2.5964   -3.2301    2.4022 H   0  0  0  0  0  0  0  0  0  0  0  0
   -1.0412    0.1517    0.7482 N   0  0  0  0  0  0  0  0  0  0  0  0
   -0.6079    1.5223    0.6467 C   0  0  2  0  0  0  0  0  0  0  0  0
   -0.0926    1.7550   -0.7729 C   0  0  0  0  0  0  0  0  0  0  0  0
   -0.3403    0.9942   -1.7063 O   0  0  0  0  0  0  0  0  0  0  0  0
    0.4328    1.9087    1.7253 C   0  0  2  0  0  0  0  0  0  0  0  0
   -0.1427    1.8081    3.1554 C   0  0  0  0  0  0  0  0  0  0  0  0
    0.9961    3.3069    1.4390 C   0  0  0  0  0  0  0  0  0  0  0  0
    0.9159    1.9209    4.2450 C   0  0  0  0  0  0  0  0  0  0  0  0
   -1.9022   -0.1128    0.2753 H   0  0  0  0  0  0  0  0  0  0  0  0
   -1.5117    2.1326    0.7702 H   0  0  0  0  0  0  0  0  0  0  0  0
    1.2721    1.2040    1.6535 H   0  0  0  0  0  0  0  0  0  0  0  0
   -0.8709    2.6114    3.3157 H   0  0  0  0  0  0  0  0  0  0  0  0
   -0.6808    0.8616    3.2854 H   0  0  0  0  0  0  0  0  0  0  0  0
    0.2063    4.0638    1.4946 H   0  0  0  0  0  0  0  0  0  0  0  0
    1.7582    3.5850    2.1734 H   0  0  0  0  0  0  0  0  0  0  0  0
    1.4496    3.3613    0.4439 H   0  0  0  0  0  0  0  0  0  0  0  0
    1.6802    1.1449    4.1461 H   0  0  0  0  0  0  0  0  0  0  0  0
    0.4528    1.8024    5.2302 H   0  0  0  0  0  0  0  0  0  0  0  0
    1.4061    2.8990    4.2176 H   0  0  0  0  0  0  0  0  0  0  0  0
    0.6451    2.9257   -0.8770 N   0  0  0  0  0  0  0  0  0  0  0  0
    1.2283    3.3879   -2.1158 C   0  0  2  0  0  0  0  0  0  0  0  0
    1.3512    4.9041   -2.0410 C   0  0  0  0  0  0  0  0  0  0  0  0
    0.6668    5.5963   -1.2903 O   0  0  0  0  0  0  0  0  0  0  0  0
    0.3890    2.9690   -3.3128 C   0  0  0  0  0  0  0  0  0  0  0  0
    0.7819    3.4858   -0.0408 H   0  0  0  0  0  0  0  0  0  0  0  0
    2.2272    2.9428   -2.1806 H   0  0  0  0  0  0  0  0  0  0  0  0
   -0.6154    3.4055   -3.2654 H   0  0  0  0  0  0  0  0  0  0  0  0
    0.8471    3.2953   -4.2523 H   0  0  0  0  0  0  0  0  0  0  0  0
    0.2768    1.8800   -3.3482 H   0  0  0  0  0  0  0  0  0  0  0  0
    2.2846    5.3972   -2.9420 N   0  0  0  0  0  0  0  0  0  0  0  0
    2.5742    6.8062   -3.0718 C   0  0  0  0  0  0  0  0  0  0  0  0
    2.8196    4.7489   -3.5122 H   0  0  0  0  0  0  0  0  0  0  0  0
    1.9386    7.2409   -3.8573 H   0  0  0  0  0  0  0  0  0  0  0  0
    2.3725    7.3114   -2.1157 H   0  0  0  0  0  0  0  0  0  0  0  0
    3.6324    6.9396   -3.3409 H   0  0  0  0  0  0  0  0  0  0  0  0
  1  3  1  0  0  0  0
  1  7  1  0  0  0  0
  1  2  2  0  0  0  0
 37 38  1  0  0  0  0
 38 46  1  0  0  0  0
 38 39  2  0  0  0  0
  8  9  1  0  0  0  0
  9 17  1  0  0  0  0
  9 10  2  0  0  0  0
 18 19  1  0  0  0  0
 19 36  1  0  0  0  0
 19 20  2  0  0  0  0
 22 24  1  0  0  0  0
 37 40  1  0  0  0  0
  8 11  1  0  0  0  0
 21 23  1  0  0  0  0
 46 47  1  0  0  0  0
 21 22  1  0  0  0  0
 36 37  1  0  0  0  0
  7  8  1  0  0  0  0
 18 21  1  0  0  0  0
 17 18  1  0  0  0  0
  3  4  1  0  0  0  0
  3  5  1  0  0  0  0
  3  6  1  0  0  0  0
 24 33  1  0  0  0  0
 24 34  1  0  0  0  0
 24 35  1  0  0  0  0
 40 43  1  0  0  0  0
 40 44  1  0  0  0  0
 40 45  1  0  0  0  0
 11 14  1  0  0  0  0
 11 15  1  0  0  0  0
 11 16  1  0  0  0  0
 23 30  1  0  0  0  0
 23 31  1  0  0  0  0
 23 32  1  0  0  0  0
 47 49  1  0  0  0  0
 47 50  1  0  0  0  0
 47 51  1  0  0  0  0
 22 28  1  0  0  0  0
 22 29  1  0  0  0  0
 37 42  1  0  0  0  0
  8 13  1  0  0  0  0
 18 26  1  0  0  0  0
 21 27  1  0  0  0  0
 46 48  1  0  0  0  0
  7 12  1  0  0  0  0
 36 41  1  0  0  0  0
 17 25  1  0  0  0  0
M  END
$$$$

  -OEChem-05262214473D

 51 50  0     1  0  0  0  0  0999 V2000
    1.3524   -3.0009    1.4091 C   0  0  0  0  0  0  0  0  0  0  0  0
    1.8758   -1.9880    0.9598 O   0  0  0  0  0  0  0  0  0  0  0  0
    2.2030   -4.1782    1.7536 C   0  0  0  0  0  0  0  0  0  0  0  0
    2.3264   -4.8705    0.9053 H   0  0  0  0  0  0  0  0  0  0  0  0
    3.2257   -3.8876    2.0432 H   0  0  0  0  0  0  0  0  0  0  0  0
    1.8327   -4.8004    2.5839 H   0  0  0  0  0  0  0  0  0  0  0  0
    0.0005   -3.1873    1.6465 N   0  0  0  0  0  0  0  0  0  0  0  0
   -0.9949   -2.1807    1.3864 C   0  0  2  0  0  0  0  0  0  0  0  0
   -0.3083   -0.8216    1.4164 C   0  0  0  0  0  0  0  0  0  0  0  0
    0.7533   -0.6191    2.0022 O   0  0  0  0  0  0  0  0  0  0  0  0
   -2.1232   -2.2423    2.4042 C   0  0  0  0  0  0  0  0  0  0  0  0
   -0.3048   -4.0823    2.0245 H   0  0  0  0  0  0  0  0  0  0  0  0
   -1.3830   -2.3724    0.3801 H   0  0  0  0  0  0  0  0  0  0  0  0
   -1.7534   -2.0527    3.4185 H   0  0  0  0  0  0  0  0  0  0  0  0
   -2.8936   -1.4947    2.1882 H   0  0  0  0  0  0  0  0  0  0  0  0
   -2.5964   -3.2301    2.4022 H   0  0  0  0  0  0  0  0  0  0  0  0
   -1.0412    0.1517    0.7482 N   0  0  0  0  0  0  0  0  0  0  0  0
   -0.6079    1.5223    0.6467 C   0  0  2  0  0  0  0  0  0  0  0  0
   -0.0926    1.7550   -0.7729 C   0  0  0  0  0  0  0  0  0  0  0  0
   -0.5439    1.1646   -1.7523 O   0  0  0  0  0  0  0  0  0  0  0  0
    0.4328    1.9087    1.7253 C   0  0  2  0  0  0  0  0  0  0  0  0
   -0.1427    1.8081    3.1554 C   0  0  0  0  0  0  0  0  0  0  0  0
    0.9961    3.3069    1.4390 C   0  0  0  0  0  0  0  0  0  0  0  0
    0.9159    1.9209    4.2450 C   0  0  0  0  0  0  0  0  0  0  0  0
   -1.9022   -0.1128    0.2753 H   0  0  0  0  0  0  0  0  0  0  0  0
   -1.5117    2.1326    0.7702 H   0  0  0  0  0  0  0  0  0  0  0  0
    1.2721    1.2040    1.6535 H   0  0  0  0  0  0  0  0  0  0  0  0
   -0.8709    2.6114    3.3157 H   0  0  0  0  0  0  0  0  0  0  0  0
   -0.6808    0.8616    3.2854 H   0  0  0  0  0  0  0  0  0  0  0  0
    0.2063    4.0638    1.4946 H   0  0  0  0  0  0  0  0  0  0  0  0
    1.7582    3.5850    2.1734 H   0  0  0  0  0  0  0  0  0  0  0  0
    1.4496    3.3613    0.4439 H   0  0  0  0  0  0  0  0  0  0  0  0
    1.6802    1.1449    4.1461 H   0  0  0  0  0  0  0  0  0  0  0  0
    0.4528    1.8024    5.2302 H   0  0  0  0  0  0  0  0  0  0  0  0
    1.4061    2.8990    4.2176 H   0  0  0  0  0  0  0  0  0  0  0  0
    0.9033    2.7203   -0.8169 N   0  0  0  0  0  0  0  0  0  0  0  0
    1.5453    3.1420   -2.0411 C   0  0  2  0  0  0  0  0  0  0  0  0
    2.0339    4.5715   -1.8477 C   0  0  0  0  0  0  0  0  0  0  0  0
    1.5593    5.3348   -1.0091 O   0  0  0  0  0  0  0  0  0  0  0  0
    0.5955    3.0476   -3.2250 C   0  0  0  0  0  0  0  0  0  0  0  0
    1.1957    3.1520    0.0547 H   0  0  0  0  0  0  0  0  0  0  0  0
    2.4043    2.4792   -2.1923 H   0  0  0  0  0  0  0  0  0  0  0  0
   -0.2715    3.7049   -3.0915 H   0  0  0  0  0  0  0  0  0  0  0  0
    1.0918    3.3402   -4.1561 H   0  0  0  0  0  0  0  0  0  0  0  0
    0.2219    2.0249   -3.3444 H   0  0  0  0  0  0  0  0  0  0  0  0
    3.0326    4.9083   -2.7506 N   0  0  0  0  0  0  0  0  0  0  0  0
    3.6510    6.2132   -2.7781 C   0  0  0  0  0  0  0  0  0  0  0  0
    3.3781    4.2064   -3.3984 H   0  0  0  0  0  0  0  0  0  0  0  0
    3.1173    6.8576   -3.4923 H   0  0  0  0  0  0  0  0  0  0  0  0
    3.6052    6.6618   -1.7747 H   0  0  0  0  0  0  0  0  0  0  0  0
    4.7018    6.1144   -3.0879 H   0  0  0  0  0  0  0  0  0  0  0  0
  1  3  1  0  0  0  0
  1  7  1  0  0  0  0
  1  2  2  0  0  0  0
 37 38  1  0  0  0  0
 38 46  1  0  0  0  0
 38 39  2  0  0  0  0
  8  9  1  0  0  0  0
  9 17  1  0  0  0  0
  9 10  2  0  0  0  0
 18 19  1  0  0  0  0
 19 36  1  0  0  0  0
 19 20  2  0  0  0  0
 22 24  1  0  0  0  0
 37 40  1  0  0  0  0
  8 11  1  0  0  0  0
 21 23  1  0  0  0  0
 46 47  1  0  0  0  0
 21 22  1  0  0  0  0
 36 37  1  0  0  0  0
  7  8  1  0  0  0  0
 18 21  1  0  0  0  0
 17 18  1  0  0  0  0
  3  4  1  0  0  0  0
  3  5  1  0  0  0  0
  3  6  1  0  0  0  0
 24 33  1  0  0  0  0
 24 34  1  0  0  0  0
 24 35  1  0  0  0  0
 40 43  1  0  0  0  0
 40 44  1  0  0  0  0
 40 45  1  0  0  0  0
 11 14  1  0  0  0  0
 11 15  1  0  0  0  0
 11 16  1  0  0  0  0
 23 30  1  0  0  0  0
 23 31  1  0  0  0  0
 23 32  1  0  0  0  0
 47 49  1  0  0  0  0
 47 50  1  0  0  0  0
 47 51  1  0  0  0  0
 22 28  1  0  0  0  0
 22 29  1  0  0  0  0
 37 42  1  0  0  0  0
  8 13  1  0  0  0  0
 18 26  1  0  0  0  0
 21 27  1  0  0  0  0
 46 48  1  0  0  0  0
  7 12  1  0  0  0  0
 36 41  1  0  0  0  0
 17 25  1  0  0  0  0
M  END
$$$$

  -OEChem-05262214473D

 51 50  0     1  0  0  0  0  0999 V2000
    1.3524   -3.0009    1.4091 C   0  0  0  0  0  0  0  0  0  0  0  0
    1.8758   -1.9880    0.9598 O   0  0  0  0  0  0  0  0  0  0  0  0
    2.2030   -4.1782    1.7536 C   0  0  0  0  0  0  0  0  0  0  0  0
    2.3264   -4.8705    0.9053 H   0  0  0  0  0  0  0  0  0  0  0  0
    3.2257   -3.8876    2.0432 H   0  0  0  0  0  0  0  0  0  0  0  0
    1.8327   -4.8004    2.5839 H   0  0  0  0  0  0  0  0  0  0  0  0
    0.0005   -3.1873    1.6465 N   0  0  0  0  0  0  0  0  0  0  0  0
   -0.9949   -2.1807    1.3864 C   0  0  2  0  0  0  0  0  0  0  0  0
   -0.3083   -0.8216    1.4164 C   0  0  0  0  0  0  0  0  0  0  0  0
    0.7533   -0.6191    2.0022 O   0  0  0  0  0  0  0  0  0  0  0  0
   -2.1232   -2.2423    2.4042 C   0  0  0  0  0  0  0  0  0  0  0  0
   -0.3048   -4.0823    2.0245 H   0  0  0  0  0  0  0  0  0  0  0  0
   -1.3830   -2.3724    0.3801 H   0  0  0  0  0  0  0  0  0  0  0  0
   -1.7534   -2.0527    3.4185 H   0  0  0  0  0  0  0  0  0  0  0  0
   -2.8936   -1.4947    2.1882 H   0  0  0  0  0  0  0  0  0  0  0  0
   -2.5964   -3.2301    2.4022 H   0  0  0  0  0  0  0  0  0  0  0  0
   -1.0412    0.1517    0.7482 N   0  0  0  0  0  0  0  0  0  0  0  0
   -0.6079    1.5223    0.6467 C   0  0  2  0  0  0  0  0  0  0  0  0
   -0.0926    1.7550   -0.7729 C   0  0  0  0  0  0  0  0  0  0  0  0
   -0.7014    1.3822   -1.7738 O   0  0  0  0  0  0  0  0  0  0  0  0
    0.4328    1.9087    1.7253 C   0  0  2  0  0  0  0  0  0  0  0  0
   -0.1427    1.8081    3.1554 C   0  0  0  0  0  0  0  0  0  0  0  0
    0.9961    3.3069    1.4390 C   0  0  0  0  0  0  0  0  0  0  0  0
    0.9159    1.9209    4.2450 C   0  0  0  0  0  0  0  0  0  0  0  0
   -1.9022   -0.1128    0.2753 H   0  0  0  0  0  0  0  0  0  0  0  0
   -1.5117    2.1326    0.7702 H   0  0  0  0  0  0  0  0  0  0  0  0
    1.2721    1.2040    1.6535 H   0  0  0  0  0  0  0  0  0  0  0  0
   -0.8709    2.6114    3.3157 H   0  0  0  0  0  0  0  0  0  0  0  0
   -0.6808    0.8616    3.2854 H   0  0  0  0  0  0  0  0  0  0  0  0
    0.2063    4.0638    1.4946 H   0  0  0  0  0  0  0  0  0  0  0  0
    1.7582    3.5850    2.1734 H   0  0  0  0  0  0  0  0  0  0  0  0
    1.4496    3.3613    0.4439 H   0  0  0  0  0  0  0  0  0  0  0  0
    1.6802    1.1449    4.1461 H   0  0  0  0  0  0  0  0  0  0  0  0
    0.4528    1.8024    5.2302 H   0  0  0  0  0  0  0  0  0  0  0  0
    1.4061    2.8990    4.2176 H   0  0  0  0  0  0  0  0  0  0  0  0
    1.1058    2.4545   -0.7870 N   0  0  0  0  0  0  0  0  0  0  0  0
    1.7953    2.8216   -2.0028 C   0  0  2  0  0  0  0  0  0  0  0  0
    2.6209    4.0691   -1.7169 C   0  0  0  0  0  0  0  0  0  0  0  0
    2.3697    4.8431   -0.7956 O   0  0  0  0  0  0  0  0  0  0  0  0
    0.8173    3.0662   -3.1414 C   0  0  0  0  0  0  0  0  0  0  0  0
    1.5189    2.7218    0.1016 H   0  0  0  0  0  0  0  0  0  0  0  0
    2.4635    1.9898   -2.2510 H   0  0  0  0  0  0  0  0  0  0  0  0
    0.1395    3.8963   -2.9109 H   0  0  0  0  0  0  0  0  0  0  0  0
    1.3427    3.3164   -4.0690 H   0  0  0  0  0  0  0  0  0  0  0  0
    0.2039    2.1777   -3.3259 H   0  0  0  0  0  0  0  0  0  0  0  0
    3.6451    4.2396   -2.6379 N   0  0  0  0  0  0  0  0  0  0  0  0
    4.5601    5.3560   -2.5886 C   0  0  0  0  0  0  0  0  0  0  0  0
    3.7915    3.5382   -3.3578 H   0  0  0  0  0  0  0  0  0  0  0  0
    4.1781    6.1720   -3.2196 H   0  0  0  0  0  0  0  0  0  0  0  0
    4.6532    5.7081   -1.5506 H   0  0  0  0  0  0  0  0  0  0  0  0
    5.5463    5.0381   -2.9578 H   0  0  0  0  0  0  0  0  0  0  0  0
  1  3  1  0  0  0  0
  1  7  1  0  0  0  0
  1  2  2  0  0  0  0
 37 38  1  0  0  0  0
 38 46  1  0  0  0  0
 38 39  2  0  0  0  0
  8  9  1  0  0  0  0
  9 17  1  0  0  0  0
  9 10  2  0  0  0  0
 18 19  1  0  0  0  0
 19 36  1  0  0  0  0
 19 20  2  0  0  0  0
 22 24  1  0  0  0  0
 37 40  1  0  0  0  0
  8 11  1  0  0  0  0
 21 23  1  0  0  0  0
 46 47  1  0  0  0  0
 21 22  1  0  0  0  0
 36 37  1  0  0  0  0
  7  8  1  0  0  0  0
 18 21  1  0  0  0  0
 17 18  1  0  0  0  0
  3  4  1  0  0  0  0
  3  5  1  0  0  0  0
  3  6  1  0  0  0  0
 24 33  1  0  0  0  0
 24 34  1  0  0  0  0
 24 35  1  0  0  0  0
 40 43  1  0  0  0  0
 40 44  1  0  0  0  0
 40 45  1  0  0  0  0
 11 14  1  0  0  0  0
 11 15  1  0  0  0  0
 11 16  1  0  0  0  0
 23 30  1  0  0  0  0
 23 31  1  0  0  0  0
 23 32  1  0  0  0  0
 47 49  1  0  0  0  0
 47 50  1  0  0  0  0
 47 51  1  0  0  0  0
 22 28  1  0  0  0  0
 22 29  1  0  0  0  0
 37 42  1  0  0  0  0
  8 13  1  0  0  0  0
 18 26  1  0  0  0  0
 21 27  1  0  0  0  0
 46 48  1  0  0  0  0
  7 12  1  0  0  0  0
 36 41  1  0  0  0  0
 17 25  1  0  0  0  0
M  END
$$$$

  -OEChem-05262214473D

 51 50  0     1  0  0  0  0  0999 V2000
    1.3524   -3.0009    1.4091 C   0  0  0  0  0  0  0  0  0  0  0  0
    1.8758   -1.9880    0.9598 O   0  0  0  0  0  0  0  0  0  0  0  0
    2.2030   -4.1782    1.7536 C   0  0  0  0  0  0  0  0  0  0  0  0
    2.3264   -4.8705    0.9053 H   0  0  0  0  0  0  0  0  0  0  0  0
    3.2257   -3.8876    2.0432 H   0  0  0  0  0  0  0  0  0  0  0  0
    1.8327   -4.8004    2.5839 H   0  0  0  0  0  0  0  0  0  0  0  0
    0.0005   -3.1873    1.6465 N   0  0  0  0  0  0  0  0  0  0  0  0
   -0.9949   -2.1807    1.3864 C   0  0  2  0  0  0  0  0  0  0  0  0
   -0.3083   -0.8216    1.4164 C   0  0  0  0  0  0  0  0  0  0  0  0
    0.7533   -0.6191    2.0022 O   0  0  0  0  0  0  0  0  0  0  0  0
   -2.1232   -2.2423    2.4042 C   0  0  0  0  0  0  0  0  0  0  0  0
   -0.3048   -4.0823    2.0245 H   0  0  0  0  0  0  0  0  0  0  0  0
   -1.3830   -2.3724    0.3801 H   0  0  0  0  0  0  0  0  0  0  0  0
   -1.7534   -2.0527    3.4185 H   0  0  0  0  0  0  0  0  0  0  0  0
   -2.8936   -1.4947    2.1882 H   0  0  0  0  0  0  0  0  0  0  0  0
   -2.5964   -3.2301    2.4022 H   0  0  0  0  0  0  0  0  0  0  0  0
   -1.0412    0.1517    0.7482 N   0  0  0  0  0  0  0  0  0  0  0  0
   -0.6079    1.5223    0.6467 C   0  0  2  0  0  0  0  0  0  0  0  0
   -0.0926    1.7550   -0.7729 C   0  0  0  0  0  0  0  0  0  0  0  0
   -0.8021    1.6322   -1.7694 O   0  0  0  0  0  0  0  0  0  0  0  0
    0.4328    1.9087    1.7253 C   0  0  2  0  0  0  0  0  0  0  0  0
   -0.1427    1.8081    3.1554 C   0  0  0  0  0  0  0  0  0  0  0  0
    0.9961    3.3069    1.4390 C   0  0  0  0  0  0  0  0  0  0  0  0
    0.9159    1.9209    4.2450 C   0  0  0  0  0  0  0  0  0  0  0  0
   -1.9022   -0.1128    0.2753 H   0  0  0  0  0  0  0  0  0  0  0  0
   -1.5117    2.1326    0.7702 H   0  0  0  0  0  0  0  0  0  0  0  0
    1.2721    1.2040    1.6535 H   0  0  0  0  0  0  0  0  0  0  0  0
   -0.8709    2.6114    3.3157 H   0  0  0  0  0  0  0  0  0  0  0  0
   -0.6808    0.8616    3.2854 H   0  0  0  0  0  0  0  0  0  0  0  0
    0.2063    4.0638    1.4946 H   0  0  0  0  0  0  0  0  0  0  0  0
    1.7582    3.5850    2.1734 H   0  0  0  0  0  0  0  0  0  0  0  0
    1.4496    3.3613    0.4439 H   0  0  0  0  0  0  0  0  0  0  0  0
    1.6802    1.1449    4.1461 H   0  0  0  0  0  0  0  0  0  0  0  0
    0.4528    1.8024    5.2302 H   0  0  0  0  0  0  0  0  0  0  0  0
    1.4061    2.8990    4.2176 H   0  0  0  0  0  0  0  0  0  0  0  0
    1.2386    2.1465   -0.7893 N   0  0  0  0  0  0  0  0  0  0  0  0
    1.9613    2.4488   -2.0037 C   0  0  2  0  0  0  0  0  0  0  0  0
    3.0723    3.4314   -1.6576 C   0  0  0  0  0  0  0  0  0  0  0  0
    3.0426    4.1547   -0.6641 O   0  0  0  0  0  0  0  0  0  0  0  0
    1.0393    3.0235   -3.0678 C   0  0  0  0  0  0  0  0  0  0  0  0
    1.7295    2.2244    0.0965 H   0  0  0  0  0  0  0  0  0  0  0  0
    2.4007    1.5080   -2.3528 H   0  0  0  0  0  0  0  0  0  0  0  0
    0.5897    3.9665   -2.7360 H   0  0  0  0  0  0  0  0  0  0  0  0
    1.5828    3.2254   -3.9967 H   0  0  0  0  0  0  0  0  0  0  0  0
    0.2239    2.3280   -3.2940 H   0  0  0  0  0  0  0  0  0  0  0  0
    4.0804    3.4365   -2.6115 N   0  0  0  0  0  0  0  0  0  0  0  0
    5.2395    4.2928   -2.5162 C   0  0  0  0  0  0  0  0  0  0  0  0
    4.0318    2.7898   -3.3933 H   0  0  0  0  0  0  0  0  0  0  0  0
    5.0485    5.2309   -3.0578 H   0  0  0  0  0  0  0  0  0  0  0  0
    5.4449    4.5153   -1.4587 H   0  0  0  0  0  0  0  0  0  0  0  0
    6.1084    3.7841   -2.9593 H   0  0  0  0  0  0  0  0  0  0  0  0
  1  3  1  0  0  0  0
  1  7  1  0  0  0  0
  1  2  2  0  0  0  0
 37 38  1  0  0  0  0
 38 46  1  0  0  0  0
 38 39  2  0  0  0  0
  8  9  1  0  0  0  0
  9 17  1  0  0  0  0
  9 10  2  0  0  0  0
 18 19  1  0  0  0  0
 19 36  1  0  0  0  0
 19 20  2  0  0  0  0
 22 24  1  0  0  0  0
 37 40  1  0  0  0  0
  8 11  1  0  0  0  0
 21 23  1  0  0  0  0
 46 47  1  0  0  0  0
 21 22  1  0  0  0  0
 36 37  1  0  0  0  0
  7  8  1  0  0  0  0
 18 21  1  0  0  0  0
 17 18  1  0  0  0  0
  3  4  1  0  0  0  0
  3  5  1  0  0  0  0
  3  6  1  0  0  0  0
 24 33  1  0  0  0  0
 24 34  1  0  0  0  0
 24 35  1  0  0  0  0
 40 43  1  0  0  0  0
 40 44  1  0  0  0  0
 40 45  1  0  0  0  0
 11 14  1  0  0  0  0
 11 15  1  0  0  0  0
 11 16  1  0  0  0  0
 23 30  1  0  0  0  0
 23 31  1  0  0  0  0
 23 32  1  0  0  0  0
 47 49  1  0  0  0  0
 47 50  1  0  0  0  0
 47 51  1  0  0  0  0
 22 28  1  0  0  0  0
 22 29  1  0  0  0  0
 37 42  1  0  0  0  0
  8 13  1  0  0  0  0
 18 26  1  0  0  0  0
 21 27  1  0  0  0  0
 46 48  1  0  0  0  0
  7 12  1  0  0  0  0
 36 41  1  0  0  0  0
 17 25  1  0  0  0  0
M  END
$$$$

  -OEChem-05262214473D

 51 50  0     1  0  0  0  0  0999 V2000
    1.3524   -3.0009    1.4091 C   0  0  0  0  0  0  0  0  0  0  0  0
    1.8758   -1.9880    0.9598 O   0  0  0  0  0  0  0  0  0  0  0  0
    2.2030   -4.1782    1.7536 C   0  0  0  0  0  0  0  0  0  0  0  0
    2.3264   -4.8705    0.9053 H   0  0  0  0  0  0  0  0  0  0  0  0
    3.2257   -3.8876    2.0432 H   0  0  0  0  0  0  0  0  0  0  0  0
    1.8327   -4.8004    2.5839 H   0  0  0  0  0  0  0  0  0  0  0  0
    0.0005   -3.1873    1.6465 N   0  0  0  0  0  0  0  0  0  0  0  0
   -0.9949   -2.1807    1.3864 C   0  0  2  0  0  0  0  0  0  0  0  0
   -0.3083   -0.8216    1.4164 C   0  0  0  0  0  0  0  0  0  0  0  0
    0.7533   -0.6191    2.0022 O   0  0  0  0  0  0  0  0  0  0  0  0
   -2.1232   -2.2423    2.4042 C   0  0  0  0  0  0  0  0  0  0  0  0
   -0.3048   -4.0823    2.0245 H   0  0  0  0  0  0  0  0  0  0  0  0
   -1.3830   -2.3724    0.3801 H   0  0  0  0  0  0  0  0  0  0  0  0
   -1.7534   -2.0527    3.4185 H   0  0  0  0  0  0  0  0  0  0  0  0
   -2.8936   -1.4947    2.1882 H   0  0  0  0  0  0  0  0  0  0  0  0
   -2.5964   -3.2301    2.4022 H   0  0  0  0  0  0  0  0  0  0  0  0
   -1.0412    0.1517    0.7482 N   0  0  0  0  0  0  0  0  0  0  0  0
   -0.6079    1.5223    0.6467 C   0  0  2  0  0  0  0  0  0  0  0  0
   -0.0926    1.7550   -0.7729 C   0  0  0  0  0  0  0  0  0  0  0  0
   -0.8390    1.8974   -1.7393 O   0  0  0  0  0  0  0  0  0  0  0  0
    0.4328    1.9087    1.7253 C   0  0  2  0  0  0  0  0  0  0  0  0
   -0.1427    1.8081    3.1554 C   0  0  0  0  0  0  0  0  0  0  0  0
    0.9961    3.3069    1.4390 C   0  0  0  0  0  0  0  0  0  0  0  0
    0.9159    1.9209    4.2450 C   0  0  0  0  0  0  0  0  0  0  0  0
   -1.9022   -0.1128    0.2753 H   0  0  0  0  0  0  0  0  0  0  0  0
   -1.5117    2.1326    0.7702 H   0  0  0  0  0  0  0  0  0  0  0  0
    1.2721    1.2040    1.6535 H   0  0  0  0  0  0  0  0  0  0  0  0
   -0.8709    2.6114    3.3157 H   0  0  0  0  0  0  0  0  0  0  0  0
   -0.6808    0.8616    3.2854 H   0  0  0  0  0  0  0  0  0  0  0  0
    0.2063    4.0638    1.4946 H   0  0  0  0  0  0  0  0  0  0  0  0
    1.7582    3.5850    2.1734 H   0  0  0  0  0  0  0  0  0  0  0  0
    1.4496    3.3613    0.4439 H   0  0  0  0  0  0  0  0  0  0  0  0
    1.6802    1.1449    4.1461 H   0  0  0  0  0  0  0  0  0  0  0  0
    0.4528    1.8024    5.2302 H   0  0  0  0  0  0  0  0  0  0  0  0
    1.4061    2.8990    4.2176 H   0  0  0  0  0  0  0  0  0  0  0  0
    1.2927    1.8172   -0.8236 N   0  0  0  0  0  0  0  0  0  0  0  0
    2.0319    2.0488   -2.0436 C   0  0  2  0  0  0  0  0  0  0  0  0
    3.3573    2.7016   -1.6738 C   0  0  0  0  0  0  0  0  0  0  0  0
    3.5322    3.3165   -0.6238 O   0  0  0  0  0  0  0  0  0  0  0  0
    1.2464    2.9225   -3.0092 C   0  0  0  0  0  0  0  0  0  0  0  0
    1.8132    1.6938    0.0399 H   0  0  0  0  0  0  0  0  0  0  0  0
    2.2202    1.0666   -2.4907 H   0  0  0  0  0  0  0  0  0  0  0  0
    1.0483    3.9109   -2.5786 H   0  0  0  0  0  0  0  0  0  0  0  0
    1.7957    3.0735   -3.9443 H   0  0  0  0  0  0  0  0  0  0  0  0
    0.2807    2.4656   -3.2508 H   0  0  0  0  0  0  0  0  0  0  0  0
    4.3087    2.5538   -2.6733 N   0  0  0  0  0  0  0  0  0  0  0  0
    5.6430    3.0961   -2.5659 C   0  0  0  0  0  0  0  0  0  0  0  0
    4.0826    2.0122   -3.5023 H   0  0  0  0  0  0  0  0  0  0  0  0
    5.6695    4.0985   -3.0181 H   0  0  0  0  0  0  0  0  0  0  0  0
    5.9265    3.1648   -1.5053 H   0  0  0  0  0  0  0  0  0  0  0  0
    6.3497    2.4378   -3.0924 H   0  0  0  0  0  0  0  0  0  0  0  0
  1  3  1  0  0  0  0
  1  7  1  0  0  0  0
  1  2  2  0  0  0  0
 37 38  1  0  0  0  0
 38 46  1  0  0  0  0
 38 39  2  0  0  0  0
  8  9  1  0  0  0  0
  9 17  1  0  0  0  0
  9 10  2  0  0  0  0
 18 19  1  0  0  0  0
 19 36  1  0  0  0  0
 19 20  2  0  0  0  0
 22 24  1  0  0  0  0
 37 40  1  0  0  0  0
  8 11  1  0  0  0  0
 21 23  1  0  0  0  0
 46 47  1  0  0  0  0
 21 22  1  0  0  0  0
 36 37  1  0  0  0  0
  7  8  1  0  0  0  0
 18 21  1  0  0  0  0
 17 18  1  0  0  0  0
  3  4  1  0  0  0  0
  3  5  1  0  0  0  0
  3  6  1  0  0  0  0
 24 33  1  0  0  0  0
 24 34  1  0  0  0  0
 24 35  1  0  0  0  0
 40 43  1  0  0  0  0
 40 44  1  0  0  0  0
 40 45  1  0  0  0  0
 11 14  1  0  0  0  0
 11 15  1  0  0  0  0
 11 16  1  0  0  0  0
 23 30  1  0  0  0  0
 23 31  1  0  0  0  0
 23 32  1  0  0  0  0
 47 49  1  0  0  0  0
 47 50  1  0  0  0  0
 47 51  1  0  0  0  0
 22 28  1  0  0  0  0
 22 29  1  0  0  0  0
 37 42  1  0  0  0  0
  8 13  1  0  0  0  0
 18 26  1  0  0  0  0
 21 27  1  0  0  0  0
 46 48  1  0  0  0  0
  7 12  1  0  0  0  0
 36 41  1  0  0  0  0
 17 25  1  0  0  0  0
M  END
$$$$

  -OEChem-05262214473D

 51 50  0     1  0  0  0  0  0999 V2000
    1.3524   -3.0009    1.4091 C   0  0  0  0  0  0  0  0  0  0  0  0
    1.8758   -1.9880    0.9598 O   0  0  0  0  0  0  0  0  0  0  0  0
    2.2030   -4.1782    1.7536 C   0  0  0  0  0  0  0  0  0  0  0  0
    2.3264   -4.8705    0.9053 H   0  0  0  0  0  0  0  0  0  0  0  0
    3.2257   -3.8876    2.0432 H   0  0  0  0  0  0  0  0  0  0  0  0
    1.8327   -4.8004    2.5839 H   0  0  0  0  0  0  0  0  0  0  0  0
    0.0005   -3.1873    1.6465 N   0  0  0  0  0  0  0  0  0  0  0  0
   -0.9949   -2.1807    1.3864 C   0  0  2  0  0  0  0  0  0  0  0  0
   -0.3083   -0.8216    1.4164 C   0  0  0  0  0  0  0  0  0  0  0  0
    0.7533   -0.6191    2.0022 O   0  0  0  0  0  0  0  0  0  0  0  0
   -2.1232   -2.2423    2.4042 C   0  0  0  0  0  0  0  0  0  0  0  0
   -0.3048   -4.0823    2.0245 H   0  0  0  0  0  0  0  0  0  0  0  0
   -1.3830   -2.3724    0.3801 H   0  0  0  0  0  0  0  0  0  0  0  0
   -1.7534   -2.0527    3.4185 H   0  0  0  0  0  0  0  0  0  0  0  0
   -2.8936   -1.4947    2.1882 H   0  0  0  0  0  0  0  0  0  0  0  0
   -2.5964   -3.2301    2.4022 H   0  0  0  0  0  0  0  0  0  0  0  0
   -1.0412    0.1517    0.7482 N   0  0  0  0  0  0  0  0  0  0  0  0
   -0.6079    1.5223    0.6467 C   0  0  2  0  0  0  0  0  0  0  0  0
   -0.0926    1.7550   -0.7729 C   0  0  0  0  0  0  0  0  0  0  0  0
   -0.8098    2.1598   -1.6857 O   0  0  0  0  0  0  0  0  0  0  0  0
    0.4328    1.9087    1.7253 C   0  0  2  0  0  0  0  0  0  0  0  0
   -0.1427    1.8081    3.1554 C   0  0  0  0  0  0  0  0  0  0  0  0
    0.9961    3.3069    1.4390 C   0  0  0  0  0  0  0  0  0  0  0  0
    0.9159    1.9209    4.2450 C   0  0  0  0  0  0  0  0  0  0  0  0
   -1.9022   -0.1128    0.2753 H   0  0  0  0  0  0  0  0  0  0  0  0
   -1.5117    2.1326    0.7702 H   0  0  0  0  0  0  0  0  0  0  0  0
    1.2721    1.2040    1.6535 H   0  0  0  0  0  0  0  0  0  0  0  0
   -0.8709    2.6114    3.3157 H   0  0  0  0  0  0  0  0  0  0  0  0
   -0.6808    0.8616    3.2854 H   0  0  0  0  0  0  0  0  0  0  0  0
    0.2063    4.0638    1.4946 H   0  0  0  0  0  0  0  0  0  0  0  0
    1.7582    3.5850    2.1734 H   0  0  0  0  0  0  0  0  0  0  0  0
    1.4496    3.3613    0.4439 H   0  0  0  0  0  0  0  0  0  0  0  0
    1.6802    1.1449    4.1461 H   0  0  0  0  0  0  0  0  0  0  0  0
    0.4528    1.8024    5.2302 H   0  0  0  0  0  0  0  0  0  0  0  0
    1.4061    2.8990    4.2176 H   0  0  0  0  0  0  0  0  0  0  0  0
    1.2645    1.4891   -0.8876 N   0  0  0  0  0  0  0  0  0  0  0  0
    2.0024    1.6489   -2.1199 C   0  0  2  0  0  0  0  0  0  0  0  0
    3.4565    1.9296   -1.7643 C   0  0  0  0  0  0  0  0  0  0  0  0
    3.8052    2.3855   -0.6773 O   0  0  0  0  0  0  0  0  0  0  0  0
    1.4245    2.7700   -2.9695 C   0  0  0  0  0  0  0  0  0  0  0  0
    1.7641    1.1661   -0.0644 H   0  0  0  0  0  0  0  0  0  0  0  0
    1.9342    0.6957   -2.6553 H   0  0  0  0  0  0  0  0  0  0  0  0
    1.4841    3.7331   -2.4496 H   0  0  0  0  0  0  0  0  0  0  0  0
    1.9668    2.8710   -3.9154 H   0  0  0  0  0  0  0  0  0  0  0  0
    0.3703    2.5811   -3.1994 H   0  0  0  0  0  0  0  0  0  0  0  0
    4.3147    1.6517   -2.8190 N   0  0  0  0  0  0  0  0  0  0  0  0
    5.7431    1.8475   -2.7342 C   0  0  0  0  0  0  0  0  0  0  0  0
    3.9403    1.2585   -3.6775 H   0  0  0  0  0  0  0  0  0  0  0  0
    5.9985    2.8519   -3.1029 H   0  0  0  0  0  0  0  0  0  0  0  0
    6.0651    1.7486   -1.6871 H   0  0  0  0  0  0  0  0  0  0  0  0
    6.2539    1.0909   -3.3480 H   0  0  0  0  0  0  0  0  0  0  0  0
  1  3  1  0  0  0  0
  1  7  1  0  0  0  0
  1  2  2  0  0  0  0
 37 38  1  0  0  0  0
 38 46  1  0  0  0  0
 38 39  2  0  0  0  0
  8  9  1  0  0  0  0
  9 17  1  0  0  0  0
  9 10  2  0  0  0  0
 18 19  1  0  0  0  0
 19 36  1  0  0  0  0
 19 20  2  0  0  0  0
 22 24  1  0  0  0  0
 37 40  1  0  0  0  0
  8 11  1  0  0  0  0
 21 23  1  0  0  0  0
 46 47  1  0  0  0  0
 21 22  1  0  0  0  0
 36 37  1  0  0  0  0
  7  8  1  0  0  0  0
 18 21  1  0  0  0  0
 17 18  1  0  0  0  0
  3  4  1  0  0  0  0
  3  5  1  0  0  0  0
  3  6  1  0  0  0  0
 24 33  1  0  0  0  0
 24 34  1  0  0  0  0
 24 35  1  0  0  0  0
 40 43  1  0  0  0  0
 40 44  1  0  0  0  0
 40 45  1  0  0  0  0
 11 14  1  0  0  0  0
 11 15  1  0  0  0  0
 11 16  1  0  0  0  0
 23 30  1  0  0  0  0
 23 31  1  0  0  0  0
 23 32  1  0  0  0  0
 47 49  1  0  0  0  0
 47 50  1  0  0  0  0
 47 51  1  0  0  0  0
 22 28  1  0  0  0  0
 22 29  1  0  0  0  0
 37 42  1  0  0  0  0
  8 13  1  0  0  0  0
 18 26  1  0  0  0  0
 21 27  1  0  0  0  0
 46 48  1  0  0  0  0
  7 12  1  0  0  0  0
 36 41  1  0  0  0  0
 17 25  1  0  0  0  0
M  END
$$$$

  -OEChem-05262214473D

 51 50  0     1  0  0  0  0  0999 V2000
    1.3524   -3.0009    1.4091 C   0  0  0  0  0  0  0  0  0  0  0  0
    1.8758   -1.9880    0.9598 O   0  0  0  0  0  0  0  0  0  0  0  0
    2.2030   -4.1782    1.7536 C   0  0  0  0  0  0  0  0  0  0  0  0
    2.3264   -4.8705    0.9053 H   0  0  0  0  0  0  0  0  0  0  0  0
    3.2257   -3.8876    2.0432 H   0  0  0  0  0  0  0  0  0  0  0  0
    1.8327   -4.8004    2.5839 H   0  0  0  0  0  0  0  0  0  0  0  0
    0.0005   -3.1873    1.6465 N   0  0  0  0  0  0  0  0  0  0  0  0
   -0.9949   -2.1807    1.3864 C   0  0  2  0  0  0  0  0  0  0  0  0
   -0.3083   -0.8216    1.4164 C   0  0  0  0  0  0  0  0  0  0  0  0
    0.7533   -0.6191    2.0022 O   0  0  0  0  0  0  0  0  0  0  0  0
   -2.1232   -2.2423    2.4042 C   0  0  0  0  0  0  0  0  0  0  0  0
   -0.3048   -4.0823    2.0245 H   0  0  0  0  0  0  0  0  0  0  0  0
   -1.3830   -2.3724    0.3801 H   0  0  0  0  0  0  0  0  0  0  0  0
   -1.7534   -2.0527    3.4185 H   0  0  0  0  0  0  0  0  0  0  0  0
   -2.8936   -1.4947    2.1882 H   0  0  0  0  0  0  0  0  0  0  0  0
   -2.5964   -3.2301    2.4022 H   0  0  0  0  0  0  0  0  0  0  0  0
   -1.0412    0.1517    0.7482 N   0  0  0  0  0  0  0  0  0  0  0  0
   -0.6079    1.5223    0.6467 C   0  0  2  0  0  0  0  0  0  0  0  0
   -0.0926    1.7550   -0.7729 C   0  0  0  0  0  0  0  0  0  0  0  0
   -0.7163    2.4016   -1.6121 O   0  0  0  0  0  0  0  0  0  0  0  0
    0.4328    1.9087    1.7253 C   0  0  2  0  0  0  0  0  0  0  0  0
   -0.1427    1.8081    3.1554 C   0  0  0  0  0  0  0  0  0  0  0  0
    0.9961    3.3069    1.4390 C   0  0  0  0  0  0  0  0  0  0  0  0
    0.9159    1.9209    4.2450 C   0  0  0  0  0  0  0  0  0  0  0  0
   -1.9022   -0.1128    0.2753 H   0  0  0  0  0  0  0  0  0  0  0  0
   -1.5117    2.1326    0.7702 H   0  0  0  0  0  0  0  0  0  0  0  0
    1.2721    1.2040    1.6535 H   0  0  0  0  0  0  0  0  0  0  0  0
   -0.8709    2.6114    3.3157 H   0  0  0  0  0  0  0  0  0  0  0  0
   -0.6808    0.8616    3.2854 H   0  0  0  0  0  0  0  0  0  0  0  0
    0.2063    4.0638    1.4946 H   0  0  0  0  0  0  0  0  0  0  0  0
    1.7582    3.5850    2.1734 H   0  0  0  0  0  0  0  0  0  0  0  0
    1.4496    3.3613    0.4439 H   0  0  0  0  0  0  0  0  0  0  0  0
    1.6802    1.1449    4.1461 H   0  0  0  0  0  0  0  0  0  0  0  0
    0.4528    1.8024    5.2302 H   0  0  0  0  0  0  0  0  0  0  0  0
    1.4061    2.8990    4.2176 H   0  0  0  0  0  0  0  0  0  0  0  0
    1.1558    1.1846   -0.9770 N   0  0  0  0  0  0  0  0  0  0  0  0
    1.8747    1.2765   -2.2273 C   0  0  2  0  0  0  0  0  0  0  0  0
    3.3631    1.1680   -1.9231 C   0  0  0  0  0  0  0  0  0  0  0  0
    3.8430    1.4253   -0.8210 O   0  0  0  0  0  0  0  0  0  0  0  0
    1.5614    2.5764   -2.9516 C   0  0  0  0  0  0  0  0  0  0  0  0
    1.5858    0.6772   -0.2093 H   0  0  0  0  0  0  0  0  0  0  0  0
    1.5623    0.4205   -2.8354 H   0  0  0  0  0  0  0  0  0  0  0  0
    1.8673    3.4454   -2.3576 H   0  0  0  0  0  0  0  0  0  0  0  0
    2.0846    2.6317   -3.9119 H   0  0  0  0  0  0  0  0  0  0  0  0
    0.4867    2.6666   -3.1431 H   0  0  0  0  0  0  0  0  0  0  0  0
    4.0977    0.7916   -3.0388 N   0  0  0  0  0  0  0  0  0  0  0  0
    5.5329    0.6321   -3.0098 C   0  0  0  0  0  0  0  0  0  0  0  0
    3.6148    0.5799   -3.9069 H   0  0  0  0  0  0  0  0  0  0  0  0
    6.0133    1.5761   -3.3067 H   0  0  0  0  0  0  0  0  0  0  0  0
    5.8514    0.3632   -1.9918 H   0  0  0  0  0  0  0  0  0  0  0  0
    5.8274   -0.1647   -3.7086 H   0  0  0  0  0  0  0  0  0  0  0  0
  1  3  1  0  0  0  0
  1  7  1  0  0  0  0
  1  2  2  0  0  0  0
 37 38  1  0  0  0  0
 38 46  1  0  0  0  0
 38 39  2  0  0  0  0
  8  9  1  0  0  0  0
  9 17  1  0  0  0  0
  9 10  2  0  0  0  0
 18 19  1  0  0  0  0
 19 36  1  0  0  0  0
 19 20  2  0  0  0  0
 22 24  1  0  0  0  0
 37 40  1  0  0  0  0
  8 11  1  0  0  0  0
 21 23  1  0  0  0  0
 46 47  1  0  0  0  0
 21 22  1  0  0  0  0
 36 37  1  0  0  0  0
  7  8  1  0  0  0  0
 18 21  1  0  0  0  0
 17 18  1  0  0  0  0
  3  4  1  0  0  0  0
  3  5  1  0  0  0  0
  3  6  1  0  0  0  0
 24 33  1  0  0  0  0
 24 34  1  0  0  0  0
 24 35  1  0  0  0  0
 40 43  1  0  0  0  0
 40 44  1  0  0  0  0
 40 45  1  0  0  0  0
 11 14  1  0  0  0  0
 11 15  1  0  0  0  0
 11 16  1  0  0  0  0
 23 30  1  0  0  0  0
 23 31  1  0  0  0  0
 23 32  1  0  0  0  0
 47 49  1  0  0  0  0
 47 50  1  0  0  0  0
 47 51  1  0  0  0  0
 22 28  1  0  0  0  0
 22 29  1  0  0  0  0
 37 42  1  0  0  0  0
  8 13  1  0  0  0  0
 18 26  1  0  0  0  0
 21 27  1  0  0  0  0
 46 48  1  0  0  0  0
  7 12  1  0  0  0  0
 36 41  1  0  0  0  0
 17 25  1  0  0  0  0
M  END
$$$$

  -OEChem-05262214473D

 51 50  0     1  0  0  0  0  0999 V2000
    1.3524   -3.0009    1.4091 C   0  0  0  0  0  0  0  0  0  0  0  0
    1.8758   -1.9880    0.9598 O   0  0  0  0  0  0  0  0  0  0  0  0
    2.2030   -4.1782    1.7536 C   0  0  0  0  0  0  0  0  0  0  0  0
    2.3264   -4.8705    0.9053 H   0  0  0  0  0  0  0  0  0  0  0  0
    3.2257   -3.8876    2.0432 H   0  0  0  0  0  0  0  0  0  0  0  0
    1.8327   -4.8004    2.5839 H   0  0  0  0  0  0  0  0  0  0  0  0
    0.0005   -3.1873    1.6465 N   0  0  0  0  0  0  0  0  0  0  0  0
   -0.9949   -2.1807    1.3864 C   0  0  2  0  0  0  0  0  0  0  0  0
   -0.3083   -0.8216    1.4164 C   0  0  0  0  0  0  0  0  0  0  0  0
    0.7533   -0.6191    2.0022 O   0  0  0  0  0  0  0  0  0  0  0  0
   -2.1232   -2.2423    2.4042 C   0  0  0  0  0  0  0  0  0  0  0  0
   -0.3048   -4.0823    2.0245 H   0  0  0  0  0  0  0  0  0  0  0  0
   -1.3830   -2.3724    0.3801 H   0  0  0  0  0  0  0  0  0  0  0  0
   -1.7534   -2.0527    3.4185 H   0  0  0  0  0  0  0  0  0  0  0  0
   -2.8936   -1.4947    2.1882 H   0  0  0  0  0  0  0  0  0  0  0  0
   -2.5964   -3.2301    2.4022 H   0  0  0  0  0  0  0  0  0  0  0  0
   -1.0412    0.1517    0.7482 N   0  0  0  0  0  0  0  0  0  0  0  0
   -0.6079    1.5223    0.6467 C   0  0  2  0  0  0  0  0  0  0  0  0
   -0.0926    1.7550   -0.7729 C   0  0  0  0  0  0  0  0  0  0  0  0
   -0.5650    2.6063   -1.5237 O   0  0  0  0  0  0  0  0  0  0  0  0
    0.4328    1.9087    1.7253 C   0  0  2  0  0  0  0  0  0  0  0  0
   -0.1427    1.8081    3.1554 C   0  0  0  0  0  0  0  0  0  0  0  0
    0.9961    3.3069    1.4390 C   0  0  0  0  0  0  0  0  0  0  0  0
    0.9159    1.9209    4.2450 C   0  0  0  0  0  0  0  0  0  0  0  0
   -1.9022   -0.1128    0.2753 H   0  0  0  0  0  0  0  0  0  0  0  0
   -1.5117    2.1326    0.7702 H   0  0  0  0  0  0  0  0  0  0  0  0
    1.2721    1.2040    1.6535 H   0  0  0  0  0  0  0  0  0  0  0  0
   -0.8709    2.6114    3.3157 H   0  0  0  0  0  0  0  0  0  0  0  0
   -0.6808    0.8616    3.2854 H   0  0  0  0  0  0  0  0  0  0  0  0
    0.2063    4.0638    1.4946 H   0  0  0  0  0  0  0  0  0  0  0  0
    1.7582    3.5850    2.1734 H   0  0  0  0  0  0  0  0  0  0  0  0
    1.4496    3.3613    0.4439 H   0  0  0  0  0  0  0  0  0  0  0  0
    1.6802    1.1449    4.1461 H   0  0  0  0  0  0  0  0  0  0  0  0
    0.4528    1.8024    5.2302 H   0  0  0  0  0  0  0  0  0  0  0  0
    1.4061    2.8990    4.2176 H   0  0  0  0  0  0  0  0  0  0  0  0
    0.9741    0.9244   -1.0856 N   0  0  0  0  0  0  0  0  0  0  0  0
    1.6576    0.9568   -2.3585 C   0  0  2  0  0  0  0  0  0  0  0  0
    3.0835    0.4686   -2.1392 C   0  0  0  0  0  0  0  0  0  0  0  0
    3.6429    0.5013   -1.0451 O   0  0  0  0  0  0  0  0  0  0  0  0
    1.6477    2.3550   -2.9565 C   0  0  0  0  0  0  0  0  0  0  0  0
    1.2902    0.2606   -0.3849 H   0  0  0  0  0  0  0  0  0  0  0  0
    1.1299    0.2599   -3.0187 H   0  0  0  0  0  0  0  0  0  0  0  0
    2.1720    3.0672   -2.3090 H   0  0  0  0  0  0  0  0  0  0  0  0
    2.1410    2.3720   -3.9340 H   0  0  0  0  0  0  0  0  0  0  0  0
    0.6218    2.7163   -3.0859 H   0  0  0  0  0  0  0  0  0  0  0  0
    3.6727    0.0321   -3.3175 N   0  0  0  0  0  0  0  0  0  0  0  0
    5.0268   -0.4673   -3.3737 C   0  0  0  0  0  0  0  0  0  0  0  0
    3.1282    0.0227   -4.1749 H   0  0  0  0  0  0  0  0  0  0  0  0
    5.7128    0.3580   -3.6155 H   0  0  0  0  0  0  0  0  0  0  0  0
    5.2997   -0.8970   -2.3986 H   0  0  0  0  0  0  0  0  0  0  0  0
    5.0993   -1.2435   -4.1497 H   0  0  0  0  0  0  0  0  0  0  0  0
  1  3  1  0  0  0  0
  1  7  1  0  0  0  0
  1  2  2  0  0  0  0
 37 38  1  0  0  0  0
 38 46  1  0  0  0  0
 38 39  2  0  0  0  0
  8  9  1  0  0  0  0
  9 17  1  0  0  0  0
  9 10  2  0  0  0  0
 18 19  1  0  0  0  0
 19 36  1  0  0  0  0
 19 20  2  0  0  0  0
 22 24  1  0  0  0  0
 37 40  1  0  0  0  0
  8 11  1  0  0  0  0
 21 23  1  0  0  0  0
 46 47  1  0  0  0  0
 21 22  1  0  0  0  0
 36 37  1  0  0  0  0
  7  8  1  0  0  0  0
 18 21  1  0  0  0  0
 17 18  1  0  0  0  0
  3  4  1  0  0  0  0
  3  5  1  0  0  0  0
  3  6  1  0  0  0  0
 24 33  1  0  0  0  0
 24 34  1  0  0  0  0
 24 35  1  0  0  0  0
 40 43  1  0  0  0  0
 40 44  1  0  0  0  0
 40 45  1  0  0  0  0
 11 14  1  0  0  0  0
 11 15  1  0  0  0  0
 11 16  1  0  0  0  0
 23 30  1  0  0  0  0
 23 31  1  0  0  0  0
 23 32  1  0  0  0  0
 47 49  1  0  0  0  0
 47 50  1  0  0  0  0
 47 51  1  0  0  0  0
 22 28  1  0  0  0  0
 22 29  1  0  0  0  0
 37 42  1  0  0  0  0
  8 13  1  0  0  0  0
 18 26  1  0  0  0  0
 21 27  1  0  0  0  0
 46 48  1  0  0  0  0
  7 12  1  0  0  0  0
 36 41  1  0  0  0  0
 17 25  1  0  0  0  0
M  END
$$$$

  -OEChem-05262214473D

 51 50  0     1  0  0  0  0  0999 V2000
    1.3524   -3.0009    1.4091 C   0  0  0  0  0  0  0  0  0  0  0  0
    1.8758   -1.9880    0.9598 O   0  0  0  0  0  0  0  0  0  0  0  0
    2.2030   -4.1782    1.7536 C   0  0  0  0  0  0  0  0  0  0  0  0
    2.3264   -4.8705    0.9053 H   0  0  0  0  0  0  0  0  0  0  0  0
    3.2257   -3.8876    2.0432 H   0  0  0  0  0  0  0  0  0  0  0  0
    1.8327   -4.8004    2.5839 H   0  0  0  0  0  0  0  0  0  0  0  0
    0.0005   -3.1873    1.6465 N   0  0  0  0  0  0  0  0  0  0  0  0
   -0.9949   -2.1807    1.3864 C   0  0  2  0  0  0  0  0  0  0  0  0
   -0.3083   -0.8216    1.4164 C   0  0  0  0  0  0  0  0  0  0  0  0
    0.7533   -0.6191    2.0022 O   0  0  0  0  0  0  0  0  0  0  0  0
   -2.1232   -2.2423    2.4042 C   0  0  0  0  0  0  0  0  0  0  0  0
   -0.3048   -4.0823    2.0245 H   0  0  0  0  0  0  0  0  0  0  0  0
   -1.3830   -2.3724    0.3801 H   0  0  0  0  0  0  0  0  0  0  0  0
   -1.7534   -2.0527    3.4185 H   0  0  0  0  0  0  0  0  0  0  0  0
   -2.8936   -1.4947    2.1882 H   0  0  0  0  0  0  0  0  0  0  0  0
   -2.5964   -3.2301    2.4022 H   0  0  0  0  0  0  0  0  0  0  0  0
   -1.0412    0.1517    0.7482 N   0  0  0  0  0  0  0  0  0  0  0  0
   -0.6079    1.5223    0.6467 C   0  0  2  0  0  0  0  0  0  0  0  0
   -0.0926    1.7550   -0.7729 C   0  0  0  0  0  0  0  0  0  0  0  0
   -0.3661    2.7599   -1.4263 O   0  0  0  0  0  0  0  0  0  0  0  0
    0.4328    1.9087    1.7253 C   0  0  2  0  0  0  0  0  0  0  0  0
   -0.1427    1.8081    3.1554 C   0  0  0  0  0  0  0  0  0  0  0  0
    0.9961    3.3069    1.4390 C   0  0  0  0  0  0  0  0  0  0  0  0
    0.9159    1.9209    4.2450 C   0  0  0  0  0  0  0  0  0  0  0  0
   -1.9022   -0.1128    0.2753 H   0  0  0  0  0  0  0  0  0  0  0  0
   -1.5117    2.1326    0.7702 H   0  0  0  0  0  0  0  0  0  0  0  0
    1.2721    1.2040    1.6535 H   0  0  0  0  0  0  0  0  0  0  0  0
   -0.8709    2.6114    3.3157 H   0  0  0  0  0  0  0  0  0  0  0  0
   -0.6808    0.8616    3.2854 H   0  0  0  0  0  0  0  0  0  0  0  0
    0.2063    4.0638    1.4946 H   0  0  0  0  0  0  0  0  0  0  0  0
    1.7582    3.5850    2.1734 H   0  0  0  0  0  0  0  0  0  0  0  0
    1.4496    3.3613    0.4439 H   0  0  0  0  0  0  0  0  0  0  0  0
    1.6802    1.1449    4.1461 H   0  0  0  0  0  0  0  0  0  0  0  0
    0.4528    1.8024    5.2302 H   0  0  0  0  0  0  0  0  0  0  0  0
    1.4061    2.8990    4.2176 H   0  0  0  0  0  0  0  0  0  0  0  0
    0.7317    0.7262   -1.2061 N   0  0  0  0  0  0  0  0  0  0  0  0
    1.3659    0.7116   -2.5046 C   0  0  2  0  0  0  0  0  0  0  0  0
    2.6367   -0.1209   -2.3980 C   0  0  0  0  0  0  0  0  0  0  0  0
    3.2186   -0.3235   -1.3343 O   0  0  0  0  0  0  0  0  0  0  0  0
    1.6777    2.1207   -2.9840 C   0  0  0  0  0  0  0  0  0  0  0  0
    0.8977   -0.0555   -0.5792 H   0  0  0  0  0  0  0  0  0  0  0  0
    0.6663    0.2247   -3.1927 H   0  0  0  0  0  0  0  0  0  0  0  0
    2.3773    2.6245   -2.3071 H   0  0  0  0  0  0  0  0  0  0  0  0
    2.1321    2.1094   -3.9802 H   0  0  0  0  0  0  0  0  0  0  0  0
    0.7666    2.7268   -3.0316 H   0  0  0  0  0  0  0  0  0  0  0  0
    3.0686   -0.5749   -3.6363 N   0  0  0  0  0  0  0  0  0  0  0  0
    4.2592   -1.3757   -3.8013 C   0  0  0  0  0  0  0  0  0  0  0  0
    2.5136   -0.3751   -4.4632 H   0  0  0  0  0  0  0  0  0  0  0  0
    5.1174   -0.7194   -4.0082 H   0  0  0  0  0  0  0  0  0  0  0  0
    4.4478   -1.9461   -2.8798 H   0  0  0  0  0  0  0  0  0  0  0  0
    4.1192   -2.0719   -4.6413 H   0  0  0  0  0  0  0  0  0  0  0  0
  1  3  1  0  0  0  0
  1  7  1  0  0  0  0
  1  2  2  0  0  0  0
 37 38  1  0  0  0  0
 38 46  1  0  0  0  0
 38 39  2  0  0  0  0
  8  9  1  0  0  0  0
  9 17  1  0  0  0  0
  9 10  2  0  0  0  0
 18 19  1  0  0  0  0
 19 36  1  0  0  0  0
 19 20  2  0  0  0  0
 22 24  1  0  0  0  0
 37 40  1  0  0  0  0
  8 11  1  0  0  0  0
 21 23  1  0  0  0  0
 46 47  1  0  0  0  0
 21 22  1  0  0  0  0
 36 37  1  0  0  0  0
  7  8  1  0  0  0  0
 18 21  1  0  0  0  0
 17 18  1  0  0  0  0
  3  4  1  0  0  0  0
  3  5  1  0  0  0  0
  3  6  1  0  0  0  0
 24 33  1  0  0  0  0
 24 34  1  0  0  0  0
 24 35  1  0  0  0  0
 40 43  1  0  0  0  0
 40 44  1  0  0  0  0
 40 45  1  0  0  0  0
 11 14  1  0  0  0  0
 11 15  1  0  0  0  0
 11 16  1  0  0  0  0
 23 30  1  0  0  0  0
 23 31  1  0  0  0  0
 23 32  1  0  0  0  0
 47 49  1  0  0  0  0
 47 50  1  0  0  0  0
 47 51  1  0  0  0  0
 22 28  1  0  0  0  0
 22 29  1  0  0  0  0
 37 42  1  0  0  0  0
  8 13  1  0  0  0  0
 18 26  1  0  0  0  0
 21 27  1  0  0  0  0
 46 48  1  0  0  0  0
  7 12  1  0  0  0  0
 36 41  1  0  0  0  0
 17 25  1  0  0  0  0
M  END
$$$$

  -OEChem-05262214473D

 51 50  0     1  0  0  0  0  0999 V2000
    1.3524   -3.0009    1.4091 C   0  0  0  0  0  0  0  0  0  0  0  0
    1.8758   -1.9880    0.9598 O   0  0  0  0  0  0  0  0  0  0  0  0
    2.2030   -4.1782    1.7536 C   0  0  0  0  0  0  0  0  0  0  0  0
    2.3264   -4.8705    0.9053 H   0  0  0  0  0  0  0  0  0  0  0  0
    3.2257   -3.8876    2.0432 H   0  0  0  0  0  0  0  0  0  0  0  0
    1.8327   -4.8004    2.5839 H   0  0  0  0  0  0  0  0  0  0  0  0
    0.0005   -3.1873    1.6465 N   0  0  0  0  0  0  0  0  0  0  0  0
   -0.9949   -2.1807    1.3864 C   0  0  2  0  0  0  0  0  0  0  0  0
   -0.3083   -0.8216    1.4164 C   0  0  0  0  0  0  0  0  0  0  0  0
    0.7533   -0.6191    2.0022 O   0  0  0  0  0  0  0  0  0  0  0  0
   -2.1232   -2.2423    2.4042 C   0  0  0  0  0  0  0  0  0  0  0  0
   -0.3048   -4.0823    2.0245 H   0  0  0  0  0  0  0  0  0  0  0  0
   -1.3830   -2.3724    0.3801 H   0  0  0  0  0  0  0  0  0  0  0  0
   -1.7534   -2.0527    3.4185 H   0  0  0  0  0  0  0  0  0  0  0  0
   -2.8936   -1.4947    2.1882 H   0  0  0  0  0  0  0  0  0  0  0  0
   -2.5964   -3.2301    2.4022 H   0  0  0  0  0  0  0  0  0  0  0  0
   -1.0412    0.1517    0.7482 N   0  0  0  0  0  0  0  0  0  0  0  0
   -0.6079    1.5223    0.6467 C   0  0  2  0  0  0  0  0  0  0  0  0
   -0.0926    1.7550   -0.7729 C   0  0  0  0  0  0  0  0  0  0  0  0
   -0.1333    2.8519   -1.3267 O   0  0  0  0  0  0  0  0  0  0  0  0
    0.4328    1.9087    1.7253 C   0  0  2  0  0  0  0  0  0  0  0  0
   -0.1427    1.8081    3.1554 C   0  0  0  0  0  0  0  0  0  0  0  0
    0.9961    3.3069    1.4390 C   0  0  0  0  0  0  0  0  0  0  0  0
    0.9159    1.9209    4.2450 C   0  0  0  0  0  0  0  0  0  0  0  0
   -1.9022   -0.1128    0.2753 H   0  0  0  0  0  0  0  0  0  0  0  0
   -1.5117    2.1326    0.7702 H   0  0  0  0  0  0  0  0  0  0  0  0
    1.2721    1.2040    1.6535 H   0  0  0  0  0  0  0  0  0  0  0  0
   -0.8709    2.6114    3.3157 H   0  0  0  0  0  0  0  0  0  0  0  0
   -0.6808    0.8616    3.2854 H   0  0  0  0  0  0  0  0  0  0  0  0
    0.2063    4.0638    1.4946 H   0  0  0  0  0  0  0  0  0  0  0  0
    1.7582    3.5850    2.1734 H   0  0  0  0  0  0  0  0  0  0  0  0
    1.4496    3.3613    0.4439 H   0  0  0  0  0  0  0  0  0  0  0  0
    1.6802    1.1449    4.1461 H   0  0  0  0  0  0  0  0  0  0  0  0
    0.4528    1.8024    5.2302 H   0  0  0  0  0  0  0  0  0  0  0  0
    1.4061    2.8990    4.2176 H   0  0  0  0  0  0  0  0  0  0  0  0
    0.4452    0.6036   -1.3302 N   0  0  0  0  0  0  0  0  0  0  0  0
    1.0193    0.5577   -2.6556 C   0  0  2  0  0  0  0  0  0  0  0  0
    2.0533   -0.5602   -2.6818 C   0  0  0  0  0  0  0  0  0  0  0  0
    2.5991   -0.9930   -1.6690 O   0  0  0  0  0  0  0  0  0  0  0  0
    1.6493    1.8896   -3.0322 C   0  0  0  0  0  0  0  0  0  0  0  0
    0.4348   -0.2495   -0.7790 H   0  0  0  0  0  0  0  0  0  0  0  0
    0.2032    0.3174   -3.3457 H   0  0  0  0  0  0  0  0  0  0  0  0
    2.4692    2.1473   -2.3519 H   0  0  0  0  0  0  0  0  0  0  0  0
    2.0586    1.8620   -4.0475 H   0  0  0  0  0  0  0  0  0  0  0  0
    0.9111    2.6974   -2.9840 H   0  0  0  0  0  0  0  0  0  0  0  0
    2.3265   -0.9882   -3.9735 N   0  0  0  0  0  0  0  0  0  0  0  0
    3.2825   -2.0314   -4.2633 C   0  0  0  0  0  0  0  0  0  0  0  0
    1.8129   -0.5864   -4.7522 H   0  0  0  0  0  0  0  0  0  0  0  0
    4.2678   -1.5827   -4.4582 H   0  0  0  0  0  0  0  0  0  0  0  0
    3.3538   -2.7127   -3.4026 H   0  0  0  0  0  0  0  0  0  0  0  0
    2.9540   -2.5936   -5.1498 H   0  0  0  0  0  0  0  0  0  0  0  0
  1  3  1  0  0  0  0
  1  7  1  0  0  0  0
  1  2  2  0  0  0  0
 37 38  1  0  0  0  0
 38 46  1  0  0  0  0
 38 39  2  0  0  0  0
  8  9  1  0  0  0  0
  9 17  1  0  0  0  0
  9 10  2  0  0  0  0
 18 19  1  0  0  0  0
 19 36  1  0  0  0  0
 19 20  2  0  0  0  0
 22 24  1  0  0  0  0
 37 40  1  0  0  0  0
  8 11  1  0  0  0  0
 21 23  1  0  0  0  0
 46 47  1  0  0  0  0
 21 22  1  0  0  0  0
 36 37  1  0  0  0  0
  7  8  1  0  0  0  0
 18 21  1  0  0  0  0
 17 18  1  0  0  0  0
  3  4  1  0  0  0  0
  3  5  1  0  0  0  0
  3  6  1  0  0  0  0
 24 33  1  0  0  0  0
 24 34  1  0  0  0  0
 24 35  1  0  0  0  0
 40 43  1  0  0  0  0
 40 44  1  0  0  0  0
 40 45  1  0  0  0  0
 11 14  1  0  0  0  0
 11 15  1  0  0  0  0
 11 16  1  0  0  0  0
 23 30  1  0  0  0  0
 23 31  1  0  0  0  0
 23 32  1  0  0  0  0
 47 49  1  0  0  0  0
 47 50  1  0  0  0  0
 47 51  1  0  0  0  0
 22 28  1  0  0  0  0
 22 29  1  0  0  0  0
 37 42  1  0  0  0  0
  8 13  1  0  0  0  0
 18 26  1  0  0  0  0
 21 27  1  0  0  0  0
 46 48  1  0  0  0  0
  7 12  1  0  0  0  0
 36 41  1  0  0  0  0
 17 25  1  0  0  0  0
M  END
$$$$

  -OEChem-05262214473D

 51 50  0     1  0  0  0  0  0999 V2000
    1.3524   -3.0009    1.4091 C   0  0  0  0  0  0  0  0  0  0  0  0
    1.8758   -1.9880    0.9598 O   0  0  0  0  0  0  0  0  0  0  0  0
    2.2030   -4.1782    1.7536 C   0  0  0  0  0  0  0  0  0  0  0  0
    2.3264   -4.8705    0.9053 H   0  0  0  0  0  0  0  0  0  0  0  0
    3.2257   -3.8876    2.0432 H   0  0  0  0  0  0  0  0  0  0  0  0
    1.8327   -4.8004    2.5839 H   0  0  0  0  0  0  0  0  0  0  0  0
    0.0005   -3.1873    1.6465 N   0  0  0  0  0  0  0  0  0  0  0  0
   -0.9949   -2.1807    1.3864 C   0  0  2  0  0  0  0  0  0  0  0  0
   -0.3083   -0.8216    1.4164 C   0  0  0  0  0  0  0  0  0  0  0  0
    0.7533   -0.6191    2.0022 O   0  0  0  0  0  0  0  0  0  0  0  0
   -2.1232   -2.2423    2.4042 C   0  0  0  0  0  0  0  0  0  0  0  0
   -0.3048   -4.0823    2.0245 H   0  0  0  0  0  0  0  0  0  0  0  0
   -1.3830   -2.3724    0.3801 H   0  0  0  0  0  0  0  0  0  0  0  0
   -1.7534   -2.0527    3.4185 H   0  0  0  0  0  0  0  0  0  0  0  0
   -2.8936   -1.4947    2.1882 H   0  0  0  0  0  0  0  0  0  0  0  0
   -2.5964   -3.2301    2.4022 H   0  0  0  0  0  0  0  0  0  0  0  0
   -1.0412    0.1517    0.7482 N   0  0  0  0  0  0  0  0  0  0  0  0
   -0.6079    1.5223    0.6467 C   0  0  2  0  0  0  0  0  0  0  0  0
   -0.0926    1.7550   -0.7729 C   0  0  0  0  0  0  0  0  0  0  0  0
    0.1177    2.8761   -1.2316 O   0  0  0  0  0  0  0  0  0  0  0  0
    0.4328    1.9087    1.7253 C   0  0  2  0  0  0  0  0  0  0  0  0
   -0.1427    1.8081    3.1554 C   0  0  0  0  0  0  0  0  0  0  0  0
    0.9961    3.3069    1.4390 C   0  0  0  0  0  0  0  0  0  0  0  0
    0.9159    1.9209    4.2450 C   0  0  0  0  0  0  0  0  0  0  0  0
   -1.9022   -0.1128    0.2753 H   0  0  0  0  0  0  0  0  0  0  0  0
   -1.5117    2.1326    0.7702 H   0  0  0  0  0  0  0  0  0  0  0  0
    1.2721    1.2040    1.6535 H   0  0  0  0  0  0  0  0  0  0  0  0
   -0.8709    2.6114    3.3157 H   0  0  0  0  0  0  0  0  0  0  0  0
   -0.6808    0.8616    3.2854 H   0  0  0  0  0  0  0  0  0  0  0  0
    0.2063    4.0638    1.4946 H   0  0  0  0  0  0  0  0  0  0  0  0
    1.7582    3.5850    2.1734 H   0  0  0  0  0  0  0  0  0  0  0  0
    1.4496    3.3613    0.4439 H   0  0  0  0  0  0  0  0  0  0  0  0
    1.6802    1.1449    4.1461 H   0  0  0  0  0  0  0  0  0  0  0  0
    0.4528    1.8024    5.2302 H   0  0  0  0  0  0  0  0  0  0  0  0
    1.4061    2.8990    4.2176 H   0  0  0  0  0  0  0  0  0  0  0  0
    0.1341    0.5649   -1.4495 N   0  0  0  0  0  0  0  0  0  0  0  0
    0.6417    0.5056   -2.8013 C   0  0  2  0  0  0  0  0  0  0  0  0
    1.3729   -0.8196   -2.9713 C   0  0  0  0  0  0  0  0  0  0  0  0
    1.8265   -1.4615   -2.0262 O   0  0  0  0  0  0  0  0  0  0  0  0
    1.5644    1.6775   -3.0978 C   0  0  0  0  0  0  0  0  0  0  0  0
   -0.0668   -0.3081   -0.9707 H   0  0  0  0  0  0  0  0  0  0  0  0
   -0.2279    0.5316   -3.4670 H   0  0  0  0  0  0  0  0  0  0  0  0
    2.4415    1.6682   -2.4405 H   0  0  0  0  0  0  0  0  0  0  0  0
    1.9254    1.6466   -4.1311 H   0  0  0  0  0  0  0  0  0  0  0  0
    1.0455    2.6301   -2.9462 H   0  0  0  0  0  0  0  0  0  0  0  0
    1.4971   -1.1796   -4.3059 N   0  0  0  0  0  0  0  0  0  0  0  0
    2.1632   -2.3895   -4.7283 C   0  0  0  0  0  0  0  0  0  0  0  0
    1.0739   -0.5968   -5.0222 H   0  0  0  0  0  0  0  0  0  0  0  0
    3.2218   -2.1730   -4.9346 H   0  0  0  0  0  0  0  0  0  0  0  0
    2.0920   -3.1444   -3.9314 H   0  0  0  0  0  0  0  0  0  0  0  0
    1.6829   -2.7729   -5.6406 H   0  0  0  0  0  0  0  0  0  0  0  0
  1  3  1  0  0  0  0
  1  7  1  0  0  0  0
  1  2  2  0  0  0  0
 37 38  1  0  0  0  0
 38 46  1  0  0  0  0
 38 39  2  0  0  0  0
  8  9  1  0  0  0  0
  9 17  1  0  0  0  0
  9 10  2  0  0  0  0
 18 19  1  0  0  0  0
 19 36  1  0  0  0  0
 19 20  2  0  0  0  0
 22 24  1  0  0  0  0
 37 40  1  0  0  0  0
  8 11  1  0  0  0  0
 21 23  1  0  0  0  0
 46 47  1  0  0  0  0
 21 22  1  0  0  0  0
 36 37  1  0  0  0  0
  7  8  1  0  0  0  0
 18 21  1  0  0  0  0
 17 18  1  0  0  0  0
  3  4  1  0  0  0  0
  3  5  1  0  0  0  0
  3  6  1  0  0  0  0
 24 33  1  0  0  0  0
 24 34  1  0  0  0  0
 24 35  1  0  0  0  0
 40 43  1  0  0  0  0
 40 44  1  0  0  0  0
 40 45  1  0  0  0  0
 11 14  1  0  0  0  0
 11 15  1  0  0  0  0
 11 16  1  0  0  0  0
 23 30  1  0  0  0  0
 23 31  1  0  0  0  0
 23 32  1  0  0  0  0
 47 49  1  0  0  0  0
 47 50  1  0  0  0  0
 47 51  1  0  0  0  0
 22 28  1  0  0  0  0
 22 29  1  0  0  0  0
 37 42  1  0  0  0  0
  8 13  1  0  0  0  0
 18 26  1  0  0  0  0
 21 27  1  0  0  0  0
 46 48  1  0  0  0  0
  7 12  1  0  0  0  0
 36 41  1  0  0  0  0
 17 25  1  0  0  0  0
M  END
$$$$

  -OEChem-05262214473D

 51 50  0     1  0  0  0  0  0999 V2000
    1.3524   -3.0009    1.4091 C   0  0  0  0  0  0  0  0  0  0  0  0
    1.8758   -1.9880    0.9598 O   0  0  0  0  0  0  0  0  0  0  0  0
    2.2030   -4.1782    1.7536 C   0  0  0  0  0  0  0  0  0  0  0  0
    2.3264   -4.8705    0.9053 H   0  0  0  0  0  0  0  0  0  0  0  0
    3.2257   -3.8876    2.0432 H   0  0  0  0  0  0  0  0  0  0  0  0
    1.8327   -4.8004    2.5839 H   0  0  0  0  0  0  0  0  0  0  0  0
    0.0005   -3.1873    1.6465 N   0  0  0  0  0  0  0  0  0  0  0  0
   -0.9949   -2.1807    1.3864 C   0  0  2  0  0  0  0  0  0  0  0  0
   -0.3083   -0.8216    1.4164 C   0  0  0  0  0  0  0  0  0  0  0  0
    0.7533   -0.6191    2.0022 O   0  0  0  0  0  0  0  0  0  0  0  0
   -2.1232   -2.2423    2.4042 C   0  0  0  0  0  0  0  0  0  0  0  0
   -0.3048   -4.0823    2.0245 H   0  0  0  0  0  0  0  0  0  0  0  0
   -1.3830   -2.3724    0.3801 H   0  0  0  0  0  0  0  0  0  0  0  0
   -1.7534   -2.0527    3.4185 H   0  0  0  0  0  0  0  0  0  0  0  0
   -2.8936   -1.4947    2.1882 H   0  0  0  0  0  0  0  0  0  0  0  0
   -2.5964   -3.2301    2.4022 H   0  0  0  0  0  0  0  0  0  0  0  0
   -1.0412    0.1517    0.7482 N   0  0  0  0  0  0  0  0  0  0  0  0
   -0.6079    1.5223    0.6467 C   0  0  2  0  0  0  0  0  0  0  0  0
   -0.0926    1.7550   -0.7729 C   0  0  0  0  0  0  0  0  0  0  0  0
    0.3697    2.8309   -1.1475 O   0  0  0  0  0  0  0  0  0  0  0  0
    0.4328    1.9087    1.7253 C   0  0  2  0  0  0  0  0  0  0  0  0
   -0.1427    1.8081    3.1554 C   0  0  0  0  0  0  0  0  0  0  0  0
    0.9961    3.3069    1.4390 C   0  0  0  0  0  0  0  0  0  0  0  0
    0.9159    1.9209    4.2450 C   0  0  0  0  0  0  0  0  0  0  0  0
   -1.9022   -0.1128    0.2753 H   0  0  0  0  0  0  0  0  0  0  0  0
   -1.5117    2.1326    0.7702 H   0  0  0  0  0  0  0  0  0  0  0  0
    1.2721    1.2040    1.6535 H   0  0  0  0  0  0  0  0  0  0  0  0
   -0.8709    2.6114    3.3157 H   0  0  0  0  0  0  0  0  0  0  0  0
   -0.6808    0.8616    3.2854 H   0  0  0  0  0  0  0  0  0  0  0  0
    0.2063    4.0638    1.4946 H   0  0  0  0  0  0  0  0  0  0  0  0
    1.7582    3.5850    2.1734 H   0  0  0  0  0  0  0  0  0  0  0  0
    1.4496    3.3613    0.4439 H   0  0  0  0  0  0  0  0  0  0  0  0
    1.6802    1.1449    4.1461 H   0  0  0  0  0  0  0  0  0  0  0  0
    0.4528    1.8024    5.2302 H   0  0  0  0  0  0  0  0  0  0  0  0
    1.4061    2.8990    4.2176 H   0  0  0  0  0  0  0  0  0  0  0  0
   -0.1804    0.6127   -1.5558 N   0  0  0  0  0  0  0  0  0  0  0  0
    0.2586    0.5587   -2.9316 C   0  0  2  0  0  0  0  0  0  0  0  0
    0.6419   -0.8812   -3.2468 C   0  0  0  0  0  0  0  0  0  0  0  0
    0.9535   -1.6971   -2.3817 O   0  0  0  0  0  0  0  0  0  0  0  0
    1.4287    1.4987   -3.1764 C   0  0  0  0  0  0  0  0  0  0  0  0
   -0.5729   -0.2273   -1.1412 H   0  0  0  0  0  0  0  0  0  0  0  0
   -0.5975    0.8527   -3.5486 H   0  0  0  0  0  0  0  0  0  0  0  0
    2.2960    1.2198   -2.5668 H   0  0  0  0  0  0  0  0  0  0  0  0
    1.7417    1.4778   -4.2255 H   0  0  0  0  0  0  0  0  0  0  0  0
    1.1606    2.5295   -2.9209 H   0  0  0  0  0  0  0  0  0  0  0  0
    0.6368   -1.1359   -4.6111 N   0  0  0  0  0  0  0  0  0  0  0  0
    0.9776   -2.4257   -5.1646 C   0  0  0  0  0  0  0  0  0  0  0  0
    0.3470   -0.4055   -5.2547 H   0  0  0  0  0  0  0  0  0  0  0  0
    2.0507   -2.4500   -5.4051 H   0  0  0  0  0  0  0  0  0  0  0  0
    0.7487   -3.2119   -4.4301 H   0  0  0  0  0  0  0  0  0  0  0  0
    0.3928   -2.5977   -6.0802 H   0  0  0  0  0  0  0  0  0  0  0  0
  1  3  1  0  0  0  0
  1  7  1  0  0  0  0
  1  2  2  0  0  0  0
 37 38  1  0  0  0  0
 38 46  1  0  0  0  0
 38 39  2  0  0  0  0
  8  9  1  0  0  0  0
  9 17  1  0  0  0  0
  9 10  2  0  0  0  0
 18 19  1  0  0  0  0
 19 36  1  0  0  0  0
 19 20  2  0  0  0  0
 22 24  1  0  0  0  0
 37 40  1  0  0  0  0
  8 11  1  0  0  0  0
 21 23  1  0  0  0  0
 46 47  1  0  0  0  0
 21 22  1  0  0  0  0
 36 37  1  0  0  0  0
  7  8  1  0  0  0  0
 18 21  1  0  0  0  0
 17 18  1  0  0  0  0
  3  4  1  0  0  0  0
  3  5  1  0  0  0  0
  3  6  1  0  0  0  0
 24 33  1  0  0  0  0
 24 34  1  0  0  0  0
 24 35  1  0  0  0  0
 40 43  1  0  0  0  0
 40 44  1  0  0  0  0
 40 45  1  0  0  0  0
 11 14  1  0  0  0  0
 11 15  1  0  0  0  0
 11 16  1  0  0  0  0
 23 30  1  0  0  0  0
 23 31  1  0  0  0  0
 23 32  1  0  0  0  0
 47 49  1  0  0  0  0
 47 50  1  0  0  0  0
 47 51  1  0  0  0  0
 22 28  1  0  0  0  0
 22 29  1  0  0  0  0
 37 42  1  0  0  0  0
  8 13  1  0  0  0  0
 18 26  1  0  0  0  0
 21 27  1  0  0  0  0
 46 48  1  0  0  0  0
  7 12  1  0  0  0  0
 36 41  1  0  0  0  0
 17 25  1  0  0  0  0
M  END
$$$$

  -OEChem-05262214473D

 51 50  0     1  0  0  0  0  0999 V2000
    1.3524   -3.0009    1.4091 C   0  0  0  0  0  0  0  0  0  0  0  0
    1.8758   -1.9880    0.9598 O   0  0  0  0  0  0  0  0  0  0  0  0
    2.2030   -4.1782    1.7536 C   0  0  0  0  0  0  0  0  0  0  0  0
    2.3264   -4.8705    0.9053 H   0  0  0  0  0  0  0  0  0  0  0  0
    3.2257   -3.8876    2.0432 H   0  0  0  0  0  0  0  0  0  0  0  0
    1.8327   -4.8004    2.5839 H   0  0  0  0  0  0  0  0  0  0  0  0
    0.0005   -3.1873    1.6465 N   0  0  0  0  0  0  0  0  0  0  0  0
   -0.9949   -2.1807    1.3864 C   0  0  2  0  0  0  0  0  0  0  0  0
   -0.3083   -0.8216    1.4164 C   0  0  0  0  0  0  0  0  0  0  0  0
    0.7533   -0.6191    2.0022 O   0  0  0  0  0  0  0  0  0  0  0  0
   -2.1232   -2.2423    2.4042 C   0  0  0  0  0  0  0  0  0  0  0  0
   -0.3048   -4.0823    2.0245 H   0  0  0  0  0  0  0  0  0  0  0  0
   -1.3830   -2.3724    0.3801 H   0  0  0  0  0  0  0  0  0  0  0  0
   -1.7534   -2.0527    3.4185 H   0  0  0  0  0  0  0  0  0  0  0  0
   -2.8936   -1.4947    2.1882 H   0  0  0  0  0  0  0  0  0  0  0  0
   -2.5964   -3.2301    2.4022 H   0  0  0  0  0  0  0  0  0  0  0  0
   -1.0412    0.1517    0.7482 N   0  0  0  0  0  0  0  0  0  0  0  0
   -0.6079    1.5223    0.6467 C   0  0  2  0  0  0  0  0  0  0  0  0
   -0.0926    1.7550   -0.7729 C   0  0  0  0  0  0  0  0  0  0  0  0
    0.6055    2.7192   -1.0802 O   0  0  0  0  0  0  0  0  0  0  0  0
    0.4328    1.9087    1.7253 C   0  0  2  0  0  0  0  0  0  0  0  0
   -0.1427    1.8081    3.1554 C   0  0  0  0  0  0  0  0  0  0  0  0
    0.9961    3.3069    1.4390 C   0  0  0  0  0  0  0  0  0  0  0  0
    0.9159    1.9209    4.2450 C   0  0  0  0  0  0  0  0  0  0  0  0
   -1.9022   -0.1128    0.2753 H   0  0  0  0  0  0  0  0  0  0  0  0
   -1.5117    2.1326    0.7702 H   0  0  0  0  0  0  0  0  0  0  0  0
    1.2721    1.2040    1.6535 H   0  0  0  0  0  0  0  0  0  0  0  0
   -0.8709    2.6114    3.3157 H   0  0  0  0  0  0  0  0  0  0  0  0
   -0.6808    0.8616    3.2854 H   0  0  0  0  0  0  0  0  0  0  0  0
    0.2063    4.0638    1.4946 H   0  0  0  0  0  0  0  0  0  0  0  0
    1.7582    3.5850    2.1734 H   0  0  0  0  0  0  0  0  0  0  0  0
    1.4496    3.3613    0.4439 H   0  0  0  0  0  0  0  0  0  0  0  0
    1.6802    1.1449    4.1461 H   0  0  0  0  0  0  0  0  0  0  0  0
    0.4528    1.8024    5.2302 H   0  0  0  0  0  0  0  0  0  0  0  0
    1.4061    2.8990    4.2176 H   0  0  0  0  0  0  0  0  0  0  0  0
   -0.4770    0.7438   -1.6419 N   0  0  0  0  0  0  0  0  0  0  0  0
   -0.1038    0.7135   -3.0378 C   0  0  2  0  0  0  0  0  0  0  0  0
   -0.0899   -0.7409   -3.4894 C   0  0  0  0  0  0  0  0  0  0  0  0
    0.0395   -1.6837   -2.7113 O   0  0  0  0  0  0  0  0  0  0  0  0
    1.2516    1.3654   -3.2625 C   0  0  0  0  0  0  0  0  0  0  0  0
   -1.0491   -0.0128   -1.2789 H   0  0  0  0  0  0  0  0  0  0  0  0
   -0.8806    1.2590   -3.5847 H   0  0  0  0  0  0  0  0  0  0  0  0
    2.0427    0.8327   -2.7222 H   0  0  0  0  0  0  0  0  0  0  0  0
    1.5200    1.3672   -4.3241 H   0  0  0  0  0  0  0  0  0  0  0  0
    1.2486    2.4025   -2.9098 H   0  0  0  0  0  0  0  0  0  0  0  0
   -0.1957   -0.8603   -4.8681 N   0  0  0  0  0  0  0  0  0  0  0  0
   -0.1935   -2.1375   -5.5425 C   0  0  0  0  0  0  0  0  0  0  0  0
   -0.3184   -0.0257   -5.4340 H   0  0  0  0  0  0  0  0  0  0  0  0
    0.8344   -2.3950   -5.8376 H   0  0  0  0  0  0  0  0  0  0  0  0
   -0.5848   -2.9105   -4.8648 H   0  0  0  0  0  0  0  0  0  0  0  0
   -0.8286   -2.0798   -6.4387 H   0  0  0  0  0  0  0  0  0  0  0  0
  1  3  1  0  0  0  0
  1  7  1  0  0  0  0
  1  2  2  0  0  0  0
 37 38  1  0  0  0  0
 38 46  1  0  0  0  0
 38 39  2  0  0  0  0
  8  9  1  0  0  0  0
  9 17  1  0  0  0  0
  9 10  2  0  0  0  0
 18 19  1  0  0  0  0
 19 36  1  0  0  0  0
 19 20  2  0  0  0  0
 22 24  1  0  0  0  0
 37 40  1  0  0  0  0
  8 11  1  0  0  0  0
 21 23  1  0  0  0  0
 46 47  1  0  0  0  0
 21 22  1  0  0  0  0
 36 37  1  0  0  0  0
  7  8  1  0  0  0  0
 18 21  1  0  0  0  0
 17 18  1  0  0  0  0
  3  4  1  0  0  0  0
  3  5  1  0  0  0  0
  3  6  1  0  0  0  0
 24 33  1  0  0  0  0
 24 34  1  0  0  0  0
 24 35  1  0  0  0  0
 40 43  1  0  0  0  0
 40 44  1  0  0  0  0
 40 45  1  0  0  0  0
 11 14  1  0  0  0  0
 11 15  1  0  0  0  0
 11 16  1  0  0  0  0
 23 30  1  0  0  0  0
 23 31  1  0  0  0  0
 23 32  1  0  0  0  0
 47 49  1  0  0  0  0
 47 50  1  0  0  0  0
 47 51  1  0  0  0  0
 22 28  1  0  0  0  0
 22 29  1  0  0  0  0
 37 42  1  0  0  0  0
  8 13  1  0  0  0  0
 18 26  1  0  0  0  0
 21 27  1  0  0  0  0
 46 48  1  0  0  0  0
  7 12  1  0  0  0  0
 36 41  1  0  0  0  0
 17 25  1  0  0  0  0
M  END
$$$$

  -OEChem-05262214473D

 51 50  0     1  0  0  0  0  0999 V2000
    1.3524   -3.0009    1.4091 C   0  0  0  0  0  0  0  0  0  0  0  0
    1.8758   -1.9880    0.9598 O   0  0  0  0  0  0  0  0  0  0  0  0
    2.2030   -4.1782    1.7536 C   0  0  0  0  0  0  0  0  0  0  0  0
    2.3264   -4.8705    0.9053 H   0  0  0  0  0  0  0  0  0  0  0  0
    3.2257   -3.8876    2.0432 H   0  0  0  0  0  0  0  0  0  0  0  0
    1.8327   -4.8004    2.5839 H   0  0  0  0  0  0  0  0  0  0  0  0
    0.0005   -3.1873    1.6465 N   0  0  0  0  0  0  0  0  0  0  0  0
   -0.9949   -2.1807    1.3864 C   0  0  2  0  0  0  0  0  0  0  0  0
   -0.3083   -0.8216    1.4164 C   0  0  0  0  0  0  0  0  0  0  0  0
    0.7533   -0.6191    2.0022 O   0  0  0  0  0  0  0  0  0  0  0  0
   -2.1232   -2.2423    2.4042 C   0  0  0  0  0  0  0  0  0  0  0  0
   -0.3048   -4.0823    2.0245 H   0  0  0  0  0  0  0  0  0  0  0  0
   -1.3830   -2.3724    0.3801 H   0  0  0  0  0  0  0  0  0  0  0  0
   -1.7534   -2.0527    3.4185 H   0  0  0  0  0  0  0  0  0  0  0  0
   -2.8936   -1.4947    2.1882 H   0  0  0  0  0  0  0  0  0  0  0  0
   -2.5964   -3.2301    2.4022 H   0  0  0  0  0  0  0  0  0  0  0  0
   -1.0412    0.1517    0.7482 N   0  0  0  0  0  0  0  0  0  0  0  0
   -0.6079    1.5223    0.6467 C   0  0  2  0  0  0  0  0  0  0  0  0
   -0.0926    1.7550   -0.7729 C   0  0  0  0  0  0  0  0  0  0  0  0
    0.8091    2.5488   -1.0343 O   0  0  0  0  0  0  0  0  0  0  0  0
    0.4328    1.9087    1.7253 C   0  0  2  0  0  0  0  0  0  0  0  0
   -0.1427    1.8081    3.1554 C   0  0  0  0  0  0  0  0  0  0  0  0
    0.9961    3.3069    1.4390 C   0  0  0  0  0  0  0  0  0  0  0  0
    0.9159    1.9209    4.2450 C   0  0  0  0  0  0  0  0  0  0  0  0
   -1.9022   -0.1128    0.2753 H   0  0  0  0  0  0  0  0  0  0  0  0
   -1.5117    2.1326    0.7702 H   0  0  0  0  0  0  0  0  0  0  0  0
    1.2721    1.2040    1.6535 H   0  0  0  0  0  0  0  0  0  0  0  0
   -0.8709    2.6114    3.3157 H   0  0  0  0  0  0  0  0  0  0  0  0
   -0.6808    0.8616    3.2854 H   0  0  0  0  0  0  0  0  0  0  0  0
    0.2063    4.0638    1.4946 H   0  0  0  0  0  0  0  0  0  0  0  0
    1.7582    3.5850    2.1734 H   0  0  0  0  0  0  0  0  0  0  0  0
    1.4496    3.3613    0.4439 H   0  0  0  0  0  0  0  0  0  0  0  0
    1.6802    1.1449    4.1461 H   0  0  0  0  0  0  0  0  0  0  0  0
    0.4528    1.8024    5.2302 H   0  0  0  0  0  0  0  0  0  0  0  0
    1.4061    2.8990    4.2176 H   0  0  0  0  0  0  0  0  0  0  0  0
   -0.7352    0.9493   -1.7020 N   0  0  0  0  0  0  0  0  0  0  0  0
   -0.4208    0.9595   -3.1126 C   0  0  2  0  0  0  0  0  0  0  0  0
   -0.7726   -0.4082   -3.6827 C   0  0  0  0  0  0  0  0  0  0  0  0
   -0.8530   -1.4222   -2.9924 O   0  0  0  0  0  0  0  0  0  0  0  0
    1.0451    1.2869   -3.3504 C   0  0  0  0  0  0  0  0  0  0  0  0
   -1.4629    0.3210   -1.3744 H   0  0  0  0  0  0  0  0  0  0  0  0
   -1.0578    1.7226   -3.5731 H   0  0  0  0  0  0  0  0  0  0  0  0
    1.6988    0.5333   -2.8961 H   0  0  0  0  0  0  0  0  0  0  0  0
    1.2753    1.3223   -4.4203 H   0  0  0  0  0  0  0  0  0  0  0  0
    1.3035    2.2576   -2.9136 H   0  0  0  0  0  0  0  0  0  0  0  0
   -0.9437   -0.3714   -5.0595 N   0  0  0  0  0  0  0  0  0  0  0  0
   -1.2702   -1.5445   -5.8362 C   0  0  0  0  0  0  0  0  0  0  0  0
   -0.8768    0.5167   -5.5478 H   0  0  0  0  0  0  0  0  0  0  0  0
   -0.3443   -2.0117   -6.2027 H   0  0  0  0  0  0  0  0  0  0  0  0
   -1.8175   -2.2608   -5.2058 H   0  0  0  0  0  0  0  0  0  0  0  0
   -1.8980   -1.2547   -6.6917 H   0  0  0  0  0  0  0  0  0  0  0  0
  1  3  1  0  0  0  0
  1  7  1  0  0  0  0
  1  2  2  0  0  0  0
 37 38  1  0  0  0  0
 38 46  1  0  0  0  0
 38 39  2  0  0  0  0
  8  9  1  0  0  0  0
  9 17  1  0  0  0  0
  9 10  2  0  0  0  0
 18 19  1  0  0  0  0
 19 36  1  0  0  0  0
 19 20  2  0  0  0  0
 22 24  1  0  0  0  0
 37 40  1  0  0  0  0
  8 11  1  0  0  0  0
 21 23  1  0  0  0  0
 46 47  1  0  0  0  0
 21 22  1  0  0  0  0
 36 37  1  0  0  0  0
  7  8  1  0  0  0  0
 18 21  1  0  0  0  0
 17 18  1  0  0  0  0
  3  4  1  0  0  0  0
  3  5  1  0  0  0  0
  3  6  1  0  0  0  0
 24 33  1  0  0  0  0
 24 34  1  0  0  0  0
 24 35  1  0  0  0  0
 40 43  1  0  0  0  0
 40 44  1  0  0  0  0
 40 45  1  0  0  0  0
 11 14  1  0  0  0  0
 11 15  1  0  0  0  0
 11 16  1  0  0  0  0
 23 30  1  0  0  0  0
 23 31  1  0  0  0  0
 23 32  1  0  0  0  0
 47 49  1  0  0  0  0
 47 50  1  0  0  0  0
 47 51  1  0  0  0  0
 22 28  1  0  0  0  0
 22 29  1  0  0  0  0
 37 42  1  0  0  0  0
  8 13  1  0  0  0  0
 18 26  1  0  0  0  0
 21 27  1  0  0  0  0
 46 48  1  0  0  0  0
  7 12  1  0  0  0  0
 36 41  1  0  0  0  0
 17 25  1  0  0  0  0
M  END
$$$$

  -OEChem-05262214473D

 51 50  0     1  0  0  0  0  0999 V2000
    1.3524   -3.0009    1.4091 C   0  0  0  0  0  0  0  0  0  0  0  0
    1.8758   -1.9880    0.9598 O   0  0  0  0  0  0  0  0  0  0  0  0
    2.2030   -4.1782    1.7536 C   0  0  0  0  0  0  0  0  0  0  0  0
    2.3264   -4.8705    0.9053 H   0  0  0  0  0  0  0  0  0  0  0  0
    3.2257   -3.8876    2.0432 H   0  0  0  0  0  0  0  0  0  0  0  0
    1.8327   -4.8004    2.5839 H   0  0  0  0  0  0  0  0  0  0  0  0
    0.0005   -3.1873    1.6465 N   0  0  0  0  0  0  0  0  0  0  0  0
   -0.9949   -2.1807    1.3864 C   0  0  2  0  0  0  0  0  0  0  0  0
   -0.3083   -0.8216    1.4164 C   0  0  0  0  0  0  0  0  0  0  0  0
    0.7533   -0.6191    2.0022 O   0  0  0  0  0  0  0  0  0  0  0  0
   -2.1232   -2.2423    2.4042 C   0  0  0  0  0  0  0  0  0  0  0  0
   -0.3048   -4.0823    2.0245 H   0  0  0  0  0  0  0  0  0  0  0  0
   -1.3830   -2.3724    0.3801 H   0  0  0  0  0  0  0  0  0  0  0  0
   -1.7534   -2.0527    3.4185 H   0  0  0  0  0  0  0  0  0  0  0  0
   -2.8936   -1.4947    2.1882 H   0  0  0  0  0  0  0  0  0  0  0  0
   -2.5964   -3.2301    2.4022 H   0  0  0  0  0  0  0  0  0  0  0  0
   -1.0412    0.1517    0.7482 N   0  0  0  0  0  0  0  0  0  0  0  0
   -0.6079    1.5223    0.6467 C   0  0  2  0  0  0  0  0  0  0  0  0
   -0.0926    1.7550   -0.7729 C   0  0  0  0  0  0  0  0  0  0  0  0
    0.9666    2.3312   -1.0127 O   0  0  0  0  0  0  0  0  0  0  0  0
    0.4328    1.9087    1.7253 C   0  0  2  0  0  0  0  0  0  0  0  0
   -0.1427    1.8081    3.1554 C   0  0  0  0  0  0  0  0  0  0  0  0
    0.9961    3.3069    1.4390 C   0  0  0  0  0  0  0  0  0  0  0  0
    0.9159    1.9209    4.2450 C   0  0  0  0  0  0  0  0  0  0  0  0
   -1.9022   -0.1128    0.2753 H   0  0  0  0  0  0  0  0  0  0  0  0
   -1.5117    2.1326    0.7702 H   0  0  0  0  0  0  0  0  0  0  0  0
    1.2721    1.2040    1.6535 H   0  0  0  0  0  0  0  0  0  0  0  0
   -0.8709    2.6114    3.3157 H   0  0  0  0  0  0  0  0  0  0  0  0
   -0.6808    0.8616    3.2854 H   0  0  0  0  0  0  0  0  0  0  0  0
    0.2063    4.0638    1.4946 H   0  0  0  0  0  0  0  0  0  0  0  0
    1.7582    3.5850    2.1734 H   0  0  0  0  0  0  0  0  0  0  0  0
    1.4496    3.3613    0.4439 H   0  0  0  0  0  0  0  0  0  0  0  0
    1.6802    1.1449    4.1461 H   0  0  0  0  0  0  0  0  0  0  0  0
    0.4528    1.8024    5.2302 H   0  0  0  0  0  0  0  0  0  0  0  0
    1.4061    2.8990    4.2176 H   0  0  0  0  0  0  0  0  0  0  0  0
   -0.9377    1.2151   -1.7319 N   0  0  0  0  0  0  0  0  0  0  0  0
   -0.6708    1.2798   -3.1508 C   0  0  2  0  0  0  0  0  0  0  0  0
   -1.3596    0.0941   -3.8135 C   0  0  0  0  0  0  0  0  0  0  0  0
   -1.6633   -0.9305   -3.2060 O   0  0  0  0  0  0  0  0  0  0  0  0
    0.8233    1.2683   -3.4339 C   0  0  0  0  0  0  0  0  0  0  0  0
   -1.7862    0.7512   -1.4212 H   0  0  0  0  0  0  0  0  0  0  0  0
   -1.1169    2.2119   -3.5143 H   0  0  0  0  0  0  0  0  0  0  0  0
    1.2878    0.3419   -3.0767 H   0  0  0  0  0  0  0  0  0  0  0  0
    1.0243    1.3461   -4.5075 H   0  0  0  0  0  0  0  0  0  0  0  0
    1.3215    2.1048   -2.9321 H   0  0  0  0  0  0  0  0  0  0  0  0
   -1.5562    0.2973   -5.1722 N   0  0  0  0  0  0  0  0  0  0  0  0
   -2.1793   -0.6872   -6.0256 C   0  0  0  0  0  0  0  0  0  0  0  0
   -1.2903    1.1849   -5.5883 H   0  0  0  0  0  0  0  0  0  0  0  0
   -1.4050   -1.3261   -6.4754 H   0  0  0  0  0  0  0  0  0  0  0  0
   -2.8655   -1.3071   -5.4299 H   0  0  0  0  0  0  0  0  0  0  0  0
   -2.7425   -0.1784   -6.8218 H   0  0  0  0  0  0  0  0  0  0  0  0
  1  3  1  0  0  0  0
  1  7  1  0  0  0  0
  1  2  2  0  0  0  0
 37 38  1  0  0  0  0
 38 46  1  0  0  0  0
 38 39  2  0  0  0  0
  8  9  1  0  0  0  0
  9 17  1  0  0  0  0
  9 10  2  0  0  0  0
 18 19  1  0  0  0  0
 19 36  1  0  0  0  0
 19 20  2  0  0  0  0
 22 24  1  0  0  0  0
 37 40  1  0  0  0  0
  8 11  1  0  0  0  0
 21 23  1  0  0  0  0
 46 47  1  0  0  0  0
 21 22  1  0  0  0  0
 36 37  1  0  0  0  0
  7  8  1  0  0  0  0
 18 21  1  0  0  0  0
 17 18  1  0  0  0  0
  3  4  1  0  0  0  0
  3  5  1  0  0  0  0
  3  6  1  0  0  0  0
 24 33  1  0  0  0  0
 24 34  1  0  0  0  0
 24 35  1  0  0  0  0
 40 43  1  0  0  0  0
 40 44  1  0  0  0  0
 40 45  1  0  0  0  0
 11 14  1  0  0  0  0
 11 15  1  0  0  0  0
 11 16  1  0  0  0  0
 23 30  1  0  0  0  0
 23 31  1  0  0  0  0
 23 32  1  0  0  0  0
 47 49  1  0  0  0  0
 47 50  1  0  0  0  0
 47 51  1  0  0  0  0
 22 28  1  0  0  0  0
 22 29  1  0  0  0  0
 37 42  1  0  0  0  0
  8 13  1  0  0  0  0
 18 26  1  0  0  0  0
 21 27  1  0  0  0  0
 46 48  1  0  0  0  0
  7 12  1  0  0  0  0
 36 41  1  0  0  0  0
 17 25  1  0  0  0  0
M  END
$$$$

  -OEChem-05262214473D

 51 50  0     1  0  0  0  0  0999 V2000
    1.3524   -3.0009    1.4091 C   0  0  0  0  0  0  0  0  0  0  0  0
    1.8758   -1.9880    0.9598 O   0  0  0  0  0  0  0  0  0  0  0  0
    2.2030   -4.1782    1.7536 C   0  0  0  0  0  0  0  0  0  0  0  0
    2.3264   -4.8705    0.9053 H   0  0  0  0  0  0  0  0  0  0  0  0
    3.2257   -3.8876    2.0432 H   0  0  0  0  0  0  0  0  0  0  0  0
    1.8327   -4.8004    2.5839 H   0  0  0  0  0  0  0  0  0  0  0  0
    0.0005   -3.1873    1.6465 N   0  0  0  0  0  0  0  0  0  0  0  0
   -0.9949   -2.1807    1.3864 C   0  0  2  0  0  0  0  0  0  0  0  0
   -0.3083   -0.8216    1.4164 C   0  0  0  0  0  0  0  0  0  0  0  0
    0.7533   -0.6191    2.0022 O   0  0  0  0  0  0  0  0  0  0  0  0
   -2.1232   -2.2423    2.4042 C   0  0  0  0  0  0  0  0  0  0  0  0
   -0.3048   -4.0823    2.0245 H   0  0  0  0  0  0  0  0  0  0  0  0
   -1.3830   -2.3724    0.3801 H   0  0  0  0  0  0  0  0  0  0  0  0
   -1.7534   -2.0527    3.4185 H   0  0  0  0  0  0  0  0  0  0  0  0
   -2.8936   -1.4947    2.1882 H   0  0  0  0  0  0  0  0  0  0  0  0
   -2.5964   -3.2301    2.4022 H   0  0  0  0  0  0  0  0  0  0  0  0
   -1.0412    0.1517    0.7482 N   0  0  0  0  0  0  0  0  0  0  0  0
   -0.6079    1.5223    0.6467 C   0  0  2  0  0  0  0  0  0  0  0  0
   -0.0926    1.7550   -0.7729 C   0  0  0  0  0  0  0  0  0  0  0  0
    1.0673    2.0813   -1.0172 O   0  0  0  0  0  0  0  0  0  0  0  0
    0.4328    1.9087    1.7253 C   0  0  2  0  0  0  0  0  0  0  0  0
   -0.1427    1.8081    3.1554 C   0  0  0  0  0  0  0  0  0  0  0  0
    0.9961    3.3069    1.4390 C   0  0  0  0  0  0  0  0  0  0  0  0
    0.9159    1.9209    4.2450 C   0  0  0  0  0  0  0  0  0  0  0  0
   -1.9022   -0.1128    0.2753 H   0  0  0  0  0  0  0  0  0  0  0  0
   -1.5117    2.1326    0.7702 H   0  0  0  0  0  0  0  0  0  0  0  0
    1.2721    1.2040    1.6535 H   0  0  0  0  0  0  0  0  0  0  0  0
   -0.8709    2.6114    3.3157 H   0  0  0  0  0  0  0  0  0  0  0  0
   -0.6808    0.8616    3.2854 H   0  0  0  0  0  0  0  0  0  0  0  0
    0.2063    4.0638    1.4946 H   0  0  0  0  0  0  0  0  0  0  0  0
    1.7582    3.5850    2.1734 H   0  0  0  0  0  0  0  0  0  0  0  0
    1.4496    3.3613    0.4439 H   0  0  0  0  0  0  0  0  0  0  0  0
    1.6802    1.1449    4.1461 H   0  0  0  0  0  0  0  0  0  0  0  0
    0.4528    1.8024    5.2302 H   0  0  0  0  0  0  0  0  0  0  0  0
    1.4061    2.8990    4.2176 H   0  0  0  0  0  0  0  0  0  0  0  0
   -1.0705    1.5231   -1.7297 N   0  0  0  0  0  0  0  0  0  0  0  0
   -0.8368    1.6527   -3.1499 C   0  0  2  0  0  0  0  0  0  0  0  0
   -1.8110    0.7318   -3.8728 C   0  0  0  0  0  0  0  0  0  0  0  0
   -2.3363   -0.2421   -3.3374 O   0  0  0  0  0  0  0  0  0  0  0  0
    0.6013    1.3109   -3.5075 C   0  0  0  0  0  0  0  0  0  0  0  0
   -1.9968    1.2486   -1.4161 H   0  0  0  0  0  0  0  0  0  0  0  0
   -1.0541    2.6937   -3.4125 H   0  0  0  0  0  0  0  0  0  0  0  0
    0.8376    0.2716   -3.2516 H   0  0  0  0  0  0  0  0  0  0  0  0
    0.7842    1.4371   -4.5797 H   0  0  0  0  0  0  0  0  0  0  0  0
    1.3015    1.9545   -2.9640 H   0  0  0  0  0  0  0  0  0  0  0  0
   -1.9915    1.1004   -5.1986 N   0  0  0  0  0  0  0  0  0  0  0  0
   -2.8588    0.3760   -6.0980 C   0  0  0  0  0  0  0  0  0  0  0  0
   -1.5306    1.9333   -5.5529 H   0  0  0  0  0  0  0  0  0  0  0  0
   -2.2755   -0.3851   -6.6371 H   0  0  0  0  0  0  0  0  0  0  0  0
   -3.6572   -0.1144   -5.5218 H   0  0  0  0  0  0  0  0  0  0  0  0
   -3.3046    1.0757   -6.8203 H   0  0  0  0  0  0  0  0  0  0  0  0
  1  3  1  0  0  0  0
  1  7  1  0  0  0  0
  1  2  2  0  0  0  0
 37 38  1  0  0  0  0
 38 46  1  0  0  0  0
 38 39  2  0  0  0  0
  8  9  1  0  0  0  0
  9 17  1  0  0  0  0
  9 10  2  0  0  0  0
 18 19  1  0  0  0  0
 19 36  1  0  0  0  0
 19 20  2  0  0  0  0
 22 24  1  0  0  0  0
 37 40  1  0  0  0  0
  8 11  1  0  0  0  0
 21 23  1  0  0  0  0
 46 47  1  0  0  0  0
 21 22  1  0  0  0  0
 36 37  1  0  0  0  0
  7  8  1  0  0  0  0
 18 21  1  0  0  0  0
 17 18  1  0  0  0  0
  3  4  1  0  0  0  0
  3  5  1  0  0  0  0
  3  6  1  0  0  0  0
 24 33  1  0  0  0  0
 24 34  1  0  0  0  0
 24 35  1  0  0  0  0
 40 43  1  0  0  0  0
 40 44  1  0  0  0  0
 40 45  1  0  0  0  0
 11 14  1  0  0  0  0
 11 15  1  0  0  0  0
 11 16  1  0  0  0  0
 23 30  1  0  0  0  0
 23 31  1  0  0  0  0
 23 32  1  0  0  0  0
 47 49  1  0  0  0  0
 47 50  1  0  0  0  0
 47 51  1  0  0  0  0
 22 28  1  0  0  0  0
 22 29  1  0  0  0  0
 37 42  1  0  0  0  0
  8 13  1  0  0  0  0
 18 26  1  0  0  0  0
 21 27  1  0  0  0  0
 46 48  1  0  0  0  0
  7 12  1  0  0  0  0
 36 41  1  0  0  0  0
 17 25  1  0  0  0  0
M  END
$$$$

  -OEChem-05262214473D

 51 50  0     1  0  0  0  0  0999 V2000
    1.3524   -3.0009    1.4091 C   0  0  0  0  0  0  0  0  0  0  0  0
    1.8758   -1.9880    0.9598 O   0  0  0  0  0  0  0  0  0  0  0  0
    2.2030   -4.1782    1.7536 C   0  0  0  0  0  0  0  0  0  0  0  0
    2.3264   -4.8705    0.9053 H   0  0  0  0  0  0  0  0  0  0  0  0
    3.2257   -3.8876    2.0432 H   0  0  0  0  0  0  0  0  0  0  0  0
    1.8327   -4.8004    2.5839 H   0  0  0  0  0  0  0  0  0  0  0  0
    0.0005   -3.1873    1.6465 N   0  0  0  0  0  0  0  0  0  0  0  0
   -0.9949   -2.1807    1.3864 C   0  0  2  0  0  0  0  0  0  0  0  0
   -0.3083   -0.8216    1.4164 C   0  0  0  0  0  0  0  0  0  0  0  0
    0.7533   -0.6191    2.0022 O   0  0  0  0  0  0  0  0  0  0  0  0
   -2.1232   -2.2423    2.4042 C   0  0  0  0  0  0  0  0  0  0  0  0
   -0.3048   -4.0823    2.0245 H   0  0  0  0  0  0  0  0  0  0  0  0
   -1.3830   -2.3724    0.3801 H   0  0  0  0  0  0  0  0  0  0  0  0
   -1.7534   -2.0527    3.4185 H   0  0  0  0  0  0  0  0  0  0  0  0
   -2.8936   -1.4947    2.1882 H   0  0  0  0  0  0  0  0  0  0  0  0
   -2.5964   -3.2301    2.4022 H   0  0  0  0  0  0  0  0  0  0  0  0
   -1.0412    0.1517    0.7482 N   0  0  0  0  0  0  0  0  0  0  0  0
   -0.6079    1.5223    0.6467 C   0  0  2  0  0  0  0  0  0  0  0  0
   -0.0926    1.7550   -0.7729 C   0  0  0  0  0  0  0  0  0  0  0  0
    1.1043    1.8161   -1.0472 O   0  0  0  0  0  0  0  0  0  0  0  0
    0.4328    1.9087    1.7253 C   0  0  2  0  0  0  0  0  0  0  0  0
   -0.1427    1.8081    3.1554 C   0  0  0  0  0  0  0  0  0  0  0  0
    0.9961    3.3069    1.4390 C   0  0  0  0  0  0  0  0  0  0  0  0
    0.9159    1.9209    4.2450 C   0  0  0  0  0  0  0  0  0  0  0  0
   -1.9022   -0.1128    0.2753 H   0  0  0  0  0  0  0  0  0  0  0  0
   -1.5117    2.1326    0.7702 H   0  0  0  0  0  0  0  0  0  0  0  0
    1.2721    1.2040    1.6535 H   0  0  0  0  0  0  0  0  0  0  0  0
   -0.8709    2.6114    3.3157 H   0  0  0  0  0  0  0  0  0  0  0  0
   -0.6808    0.8616    3.2854 H   0  0  0  0  0  0  0  0  0  0  0  0
    0.2063    4.0638    1.4946 H   0  0  0  0  0  0  0  0  0  0  0  0
    1.7582    3.5850    2.1734 H   0  0  0  0  0  0  0  0  0  0  0  0
    1.4496    3.3613    0.4439 H   0  0  0  0  0  0  0  0  0  0  0  0
    1.6802    1.1449    4.1461 H   0  0  0  0  0  0  0  0  0  0  0  0
    0.4528    1.8024    5.2302 H   0  0  0  0  0  0  0  0  0  0  0  0
    1.4061    2.8990    4.2176 H   0  0  0  0  0  0  0  0  0  0  0  0
   -1.1246    1.8524   -1.6953 N   0  0  0  0  0  0  0  0  0  0  0  0
   -0.9074    2.0527   -3.1100 C   0  0  2  0  0  0  0  0  0  0  0  0
   -2.0960    1.4616   -3.8566 C   0  0  0  0  0  0  0  0  0  0  0  0
   -2.8259    0.5962   -3.3778 O   0  0  0  0  0  0  0  0  0  0  0  0
    0.3942    1.4120   -3.5661 C   0  0  0  0  0  0  0  0  0  0  0  0
   -2.0804    1.7792   -1.3595 H   0  0  0  0  0  0  0  0  0  0  0  0
   -0.8736    3.1352   -3.2747 H   0  0  0  0  0  0  0  0  0  0  0  0
    0.3790    0.3273   -3.4090 H   0  0  0  0  0  0  0  0  0  0  0  0
    0.5714    1.5890   -4.6321 H   0  0  0  0  0  0  0  0  0  0  0  0
    1.2447    1.8169   -3.0072 H   0  0  0  0  0  0  0  0  0  0  0  0
   -2.2199    1.9831   -5.1368 N   0  0  0  0  0  0  0  0  0  0  0  0
   -3.2623    1.5726   -6.0483 C   0  0  0  0  0  0  0  0  0  0  0  0
   -1.5813    2.7109   -5.4438 H   0  0  0  0  0  0  0  0  0  0  0  0
   -2.8964    0.7473   -6.6769 H   0  0  0  0  0  0  0  0  0  0  0  0
   -4.1388    1.2361   -5.4752 H   0  0  0  0  0  0  0  0  0  0  0  0
   -3.5460    2.4220   -6.6872 H   0  0  0  0  0  0  0  0  0  0  0  0
  1  3  1  0  0  0  0
  1  7  1  0  0  0  0
  1  2  2  0  0  0  0
 37 38  1  0  0  0  0
 38 46  1  0  0  0  0
 38 39  2  0  0  0  0
  8  9  1  0  0  0  0
  9 17  1  0  0  0  0
  9 10  2  0  0  0  0
 18 19  1  0  0  0  0
 19 36  1  0  0  0  0
 19 20  2  0  0  0  0
 22 24  1  0  0  0  0
 37 40  1  0  0  0  0
  8 11  1  0  0  0  0
 21 23  1  0  0  0  0
 46 47  1  0  0  0  0
 21 22  1  0  0  0  0
 36 37  1  0  0  0  0
  7  8  1  0  0  0  0
 18 21  1  0  0  0  0
 17 18  1  0  0  0  0
  3  4  1  0  0  0  0
  3  5  1  0  0  0  0
  3  6  1  0  0  0  0
 24 33  1  0  0  0  0
 24 34  1  0  0  0  0
 24 35  1  0  0  0  0
 40 43  1  0  0  0  0
 40 44  1  0  0  0  0
 40 45  1  0  0  0  0
 11 14  1  0  0  0  0
 11 15  1  0  0  0  0
 11 16  1  0  0  0  0
 23 30  1  0  0  0  0
 23 31  1  0  0  0  0
 23 32  1  0  0  0  0
 47 49  1  0  0  0  0
 47 50  1  0  0  0  0
 47 51  1  0  0  0  0
 22 28  1  0  0  0  0
 22 29  1  0  0  0  0
 37 42  1  0  0  0  0
  8 13  1  0  0  0  0
 18 26  1  0  0  0  0
 21 27  1  0  0  0  0
 46 48  1  0  0  0  0
  7 12  1  0  0  0  0
 36 41  1  0  0  0  0
 17 25  1  0  0  0  0
M  END
$$$$

  -OEChem-05262214473D

 51 50  0     1  0  0  0  0  0999 V2000
    1.3524   -3.0009    1.4091 C   0  0  0  0  0  0  0  0  0  0  0  0
    1.8758   -1.9880    0.9598 O   0  0  0  0  0  0  0  0  0  0  0  0
    2.2030   -4.1782    1.7536 C   0  0  0  0  0  0  0  0  0  0  0  0
    2.3264   -4.8705    0.9053 H   0  0  0  0  0  0  0  0  0  0  0  0
    3.2257   -3.8876    2.0432 H   0  0  0  0  0  0  0  0  0  0  0  0
    1.8327   -4.8004    2.5839 H   0  0  0  0  0  0  0  0  0  0  0  0
    0.0005   -3.1873    1.6465 N   0  0  0  0  0  0  0  0  0  0  0  0
   -0.9949   -2.1807    1.3864 C   0  0  2  0  0  0  0  0  0  0  0  0
   -0.3083   -0.8216    1.4164 C   0  0  0  0  0  0  0  0  0  0  0  0
    0.7533   -0.6191    2.0022 O   0  0  0  0  0  0  0  0  0  0  0  0
   -2.1232   -2.2423    2.4042 C   0  0  0  0  0  0  0  0  0  0  0  0
   -0.3048   -4.0823    2.0245 H   0  0  0  0  0  0  0  0  0  0  0  0
   -1.3830   -2.3724    0.3801 H   0  0  0  0  0  0  0  0  0  0  0  0
   -1.7534   -2.0527    3.4185 H   0  0  0  0  0  0  0  0  0  0  0  0
   -2.8936   -1.4947    2.1882 H   0  0  0  0  0  0  0  0  0  0  0  0
   -2.5964   -3.2301    2.4022 H   0  0  0  0  0  0  0  0  0  0  0  0
   -1.0412    0.1517    0.7482 N   0  0  0  0  0  0  0  0  0  0  0  0
   -0.6079    1.5223    0.6467 C   0  0  2  0  0  0  0  0  0  0  0  0
   -0.0926    1.7550   -0.7729 C   0  0  0  0  0  0  0  0  0  0  0  0
    1.0750    1.5536   -1.1009 O   0  0  0  0  0  0  0  0  0  0  0  0
    0.4328    1.9087    1.7253 C   0  0  2  0  0  0  0  0  0  0  0  0
   -0.1427    1.8081    3.1554 C   0  0  0  0  0  0  0  0  0  0  0  0
    0.9961    3.3069    1.4390 C   0  0  0  0  0  0  0  0  0  0  0  0
    0.9159    1.9209    4.2450 C   0  0  0  0  0  0  0  0  0  0  0  0
   -1.9022   -0.1128    0.2753 H   0  0  0  0  0  0  0  0  0  0  0  0
   -1.5117    2.1326    0.7702 H   0  0  0  0  0  0  0  0  0  0  0  0
    1.2721    1.2040    1.6535 H   0  0  0  0  0  0  0  0  0  0  0  0
   -0.8709    2.6114    3.3157 H   0  0  0  0  0  0  0  0  0  0  0  0
   -0.6808    0.8616    3.2854 H   0  0  0  0  0  0  0  0  0  0  0  0
    0.2063    4.0638    1.4946 H   0  0  0  0  0  0  0  0  0  0  0  0
    1.7582    3.5850    2.1734 H   0  0  0  0  0  0  0  0  0  0  0  0
    1.4496    3.3613    0.4439 H   0  0  0  0  0  0  0  0  0  0  0  0
    1.6802    1.1449    4.1461 H   0  0  0  0  0  0  0  0  0  0  0  0
    0.4528    1.8024    5.2302 H   0  0  0  0  0  0  0  0  0  0  0  0
    1.4061    2.8990    4.2176 H   0  0  0  0  0  0  0  0  0  0  0  0
   -1.0964    2.1805   -1.6313 N   0  0  0  0  0  0  0  0  0  0  0  0
   -0.8779    2.4525   -3.0337 C   0  0  2  0  0  0  0  0  0  0  0  0
   -2.1952    2.2336   -3.7661 C   0  0  0  0  0  0  0  0  0  0  0  0
   -3.0989    1.5271   -3.3243 O   0  0  0  0  0  0  0  0  0  0  0  0
    0.2161    1.5645   -3.6058 C   0  0  0  0  0  0  0  0  0  0  0  0
   -2.0314    2.3069   -1.2552 H   0  0  0  0  0  0  0  0  0  0  0  0
   -0.5876    3.5061   -3.1101 H   0  0  0  0  0  0  0  0  0  0  0  0
   -0.0568    0.5050   -3.5381 H   0  0  0  0  0  0  0  0  0  0  0  0
    0.4002    1.7915   -4.6610 H   0  0  0  0  0  0  0  0  0  0  0  0
    1.1551    1.7014   -3.0587 H   0  0  0  0  0  0  0  0  0  0  0  0
   -2.2258    2.8852   -4.9911 N   0  0  0  0  0  0  0  0  0  0  0  0
   -3.3624    2.8212   -5.8800 C   0  0  0  0  0  0  0  0  0  0  0  0
   -1.4391    3.4647   -5.2686 H   0  0  0  0  0  0  0  0  0  0  0  0
   -3.2255    1.9939   -6.5920 H   0  0  0  0  0  0  0  0  0  0  0  0
   -4.2774    2.6523   -5.2934 H   0  0  0  0  0  0  0  0  0  0  0  0
   -3.4501    3.7688   -6.4316 H   0  0  0  0  0  0  0  0  0  0  0  0
  1  3  1  0  0  0  0
  1  7  1  0  0  0  0
  1  2  2  0  0  0  0
 37 38  1  0  0  0  0
 38 46  1  0  0  0  0
 38 39  2  0  0  0  0
  8  9  1  0  0  0  0
  9 17  1  0  0  0  0
  9 10  2  0  0  0  0
 18 19  1  0  0  0  0
 19 36  1  0  0  0  0
 19 20  2  0  0  0  0
 22 24  1  0  0  0  0
 37 40  1  0  0  0  0
  8 11  1  0  0  0  0
 21 23  1  0  0  0  0
 46 47  1  0  0  0  0
 21 22  1  0  0  0  0
 36 37  1  0  0  0  0
  7  8  1  0  0  0  0
 18 21  1  0  0  0  0
 17 18  1  0  0  0  0
  3  4  1  0  0  0  0
  3  5  1  0  0  0  0
  3  6  1  0  0  0  0
 24 33  1  0  0  0  0
 24 34  1  0  0  0  0
 24 35  1  0  0  0  0
 40 43  1  0  0  0  0
 40 44  1  0  0  0  0
 40 45  1  0  0  0  0
 11 14  1  0  0  0  0
 11 15  1  0  0  0  0
 11 16  1  0  0  0  0
 23 30  1  0  0  0  0
 23 31  1  0  0  0  0
 23 32  1  0  0  0  0
 47 49  1  0  0  0  0
 47 50  1  0  0  0  0
 47 51  1  0  0  0  0
 22 28  1  0  0  0  0
 22 29  1  0  0  0  0
 37 42  1  0  0  0  0
  8 13  1  0  0  0  0
 18 26  1  0  0  0  0
 21 27  1  0  0  0  0
 46 48  1  0  0  0  0
  7 12  1  0  0  0  0
 36 41  1  0  0  0  0
 17 25  1  0  0  0  0
M  END
$$$$

  -OEChem-05262214473D

 51 50  0     1  0  0  0  0  0999 V2000
    1.3524   -3.0009    1.4091 C   0  0  0  0  0  0  0  0  0  0  0  0
    1.8758   -1.9880    0.9598 O   0  0  0  0  0  0  0  0  0  0  0  0
    2.2030   -4.1782    1.7536 C   0  0  0  0  0  0  0  0  0  0  0  0
    2.3264   -4.8705    0.9053 H   0  0  0  0  0  0  0  0  0  0  0  0
    3.2257   -3.8876    2.0432 H   0  0  0  0  0  0  0  0  0  0  0  0
    1.8327   -4.8004    2.5839 H   0  0  0  0  0  0  0  0  0  0  0  0
    0.0005   -3.1873    1.6465 N   0  0  0  0  0  0  0  0  0  0  0  0
   -0.9949   -2.1807    1.3864 C   0  0  2  0  0  0  0  0  0  0  0  0
   -0.3083   -0.8216    1.4164 C   0  0  0  0  0  0  0  0  0  0  0  0
    0.7533   -0.6191    2.0022 O   0  0  0  0  0  0  0  0  0  0  0  0
   -2.1232   -2.2423    2.4042 C   0  0  0  0  0  0  0  0  0  0  0  0
   -0.3048   -4.0823    2.0245 H   0  0  0  0  0  0  0  0  0  0  0  0
   -1.3830   -2.3724    0.3801 H   0  0  0  0  0  0  0  0  0  0  0  0
   -1.7534   -2.0527    3.4185 H   0  0  0  0  0  0  0  0  0  0  0  0
   -2.8936   -1.4947    2.1882 H   0  0  0  0  0  0  0  0  0  0  0  0
   -2.5964   -3.2301    2.4022 H   0  0  0  0  0  0  0  0  0  0  0  0
   -1.0412    0.1517    0.7482 N   0  0  0  0  0  0  0  0  0  0  0  0
   -0.6079    1.5223    0.6467 C   0  0  2  0  0  0  0  0  0  0  0  0
   -0.0926    1.7550   -0.7729 C   0  0  0  0  0  0  0  0  0  0  0  0
    0.9816    1.3118   -1.1744 O   0  0  0  0  0  0  0  0  0  0  0  0
    0.4328    1.9087    1.7253 C   0  0  2  0  0  0  0  0  0  0  0  0
   -0.1427    1.8081    3.1554 C   0  0  0  0  0  0  0  0  0  0  0  0
    0.9961    3.3069    1.4390 C   0  0  0  0  0  0  0  0  0  0  0  0
    0.9159    1.9209    4.2450 C   0  0  0  0  0  0  0  0  0  0  0  0
   -1.9022   -0.1128    0.2753 H   0  0  0  0  0  0  0  0  0  0  0  0
   -1.5117    2.1326    0.7702 H   0  0  0  0  0  0  0  0  0  0  0  0
    1.2721    1.2040    1.6535 H   0  0  0  0  0  0  0  0  0  0  0  0
   -0.8709    2.6114    3.3157 H   0  0  0  0  0  0  0  0  0  0  0  0
   -0.6808    0.8616    3.2854 H   0  0  0  0  0  0  0  0  0  0  0  0
    0.2063    4.0638    1.4946 H   0  0  0  0  0  0  0  0  0  0  0  0
    1.7582    3.5850    2.1734 H   0  0  0  0  0  0  0  0  0  0  0  0
    1.4496    3.3613    0.4439 H   0  0  0  0  0  0  0  0  0  0  0  0
    1.6802    1.1449    4.1461 H   0  0  0  0  0  0  0  0  0  0  0  0
    0.4528    1.8024    5.2302 H   0  0  0  0  0  0  0  0  0  0  0  0
    1.4061    2.8990    4.2176 H   0  0  0  0  0  0  0  0  0  0  0  0
   -0.9877    2.4850   -1.5420 N   0  0  0  0  0  0  0  0  0  0  0  0
   -0.7502    2.8250   -2.9263 C   0  0  2  0  0  0  0  0  0  0  0  0
   -2.1018    2.9953   -3.6073 C   0  0  0  0  0  0  0  0  0  0  0  0
   -3.1366    2.4873   -3.1806 O   0  0  0  0  0  0  0  0  0  0  0  0
    0.0792    1.7581   -3.6237 C   0  0  0  0  0  0  0  0  0  0  0  0
   -1.8530    2.7958   -1.1104 H   0  0  0  0  0  0  0  0  0  0  0  0
   -0.2158    3.7812   -2.9300 H   0  0  0  0  0  0  0  0  0  0  0  0
   -0.4401    0.7928   -3.6300 H   0  0  0  0  0  0  0  0  0  0  0  0
    0.2824    2.0308   -4.6646 H   0  0  0  0  0  0  0  0  0  0  0  0
    1.0388    1.6159   -3.1149 H   0  0  0  0  0  0  0  0  0  0  0  0
   -2.0089    3.7453   -4.7713 N   0  0  0  0  0  0  0  0  0  0  0  0
   -3.1522    4.0366   -5.6045 C   0  0  0  0  0  0  0  0  0  0  0  0
   -1.1136    4.1433   -5.0392 H   0  0  0  0  0  0  0  0  0  0  0  0
   -3.2402    3.2698   -6.3882 H   0  0  0  0  0  0  0  0  0  0  0  0
   -4.0637    4.0377   -4.9887 H   0  0  0  0  0  0  0  0  0  0  0  0
   -3.0236    5.0244   -6.0710 H   0  0  0  0  0  0  0  0  0  0  0  0
  1  3  1  0  0  0  0
  1  7  1  0  0  0  0
  1  2  2  0  0  0  0
 37 38  1  0  0  0  0
 38 46  1  0  0  0  0
 38 39  2  0  0  0  0
  8  9  1  0  0  0  0
  9 17  1  0  0  0  0
  9 10  2  0  0  0  0
 18 19  1  0  0  0  0
 19 36  1  0  0  0  0
 19 20  2  0  0  0  0
 22 24  1  0  0  0  0
 37 40  1  0  0  0  0
  8 11  1  0  0  0  0
 21 23  1  0  0  0  0
 46 47  1  0  0  0  0
 21 22  1  0  0  0  0
 36 37  1  0  0  0  0
  7  8  1  0  0  0  0
 18 21  1  0  0  0  0
 17 18  1  0  0  0  0
  3  4  1  0  0  0  0
  3  5  1  0  0  0  0
  3  6  1  0  0  0  0
 24 33  1  0  0  0  0
 24 34  1  0  0  0  0
 24 35  1  0  0  0  0
 40 43  1  0  0  0  0
 40 44  1  0  0  0  0
 40 45  1  0  0  0  0
 11 14  1  0  0  0  0
 11 15  1  0  0  0  0
 11 16  1  0  0  0  0
 23 30  1  0  0  0  0
 23 31  1  0  0  0  0
 23 32  1  0  0  0  0
 47 49  1  0  0  0  0
 47 50  1  0  0  0  0
 47 51  1  0  0  0  0
 22 28  1  0  0  0  0
 22 29  1  0  0  0  0
 37 42  1  0  0  0  0
  8 13  1  0  0  0  0
 18 26  1  0  0  0  0
 21 27  1  0  0  0  0
 46 48  1  0  0  0  0
  7 12  1  0  0  0  0
 36 41  1  0  0  0  0
 17 25  1  0  0  0  0
M  END
$$$$

  -OEChem-05262214473D

 51 50  0     1  0  0  0  0  0999 V2000
    1.3524   -3.0009    1.4091 C   0  0  0  0  0  0  0  0  0  0  0  0
    1.8758   -1.9880    0.9598 O   0  0  0  0  0  0  0  0  0  0  0  0
    2.2030   -4.1782    1.7536 C   0  0  0  0  0  0  0  0  0  0  0  0
    2.3264   -4.8705    0.9053 H   0  0  0  0  0  0  0  0  0  0  0  0
    3.2257   -3.8876    2.0432 H   0  0  0  0  0  0  0  0  0  0  0  0
    1.8327   -4.8004    2.5839 H   0  0  0  0  0  0  0  0  0  0  0  0
    0.0005   -3.1873    1.6465 N   0  0  0  0  0  0  0  0  0  0  0  0
   -0.9949   -2.1807    1.3864 C   0  0  2  0  0  0  0  0  0  0  0  0
   -0.3083   -0.8216    1.4164 C   0  0  0  0  0  0  0  0  0  0  0  0
    0.7533   -0.6191    2.0022 O   0  0  0  0  0  0  0  0  0  0  0  0
   -2.1232   -2.2423    2.4042 C   0  0  0  0  0  0  0  0  0  0  0  0
   -0.3048   -4.0823    2.0245 H   0  0  0  0  0  0  0  0  0  0  0  0
   -1.3830   -2.3724    0.3801 H   0  0  0  0  0  0  0  0  0  0  0  0
   -1.7534   -2.0527    3.4185 H   0  0  0  0  0  0  0  0  0  0  0  0
   -2.8936   -1.4947    2.1882 H   0  0  0  0  0  0  0  0  0  0  0  0
   -2.5964   -3.2301    2.4022 H   0  0  0  0  0  0  0  0  0  0  0  0
   -1.0412    0.1517    0.7482 N   0  0  0  0  0  0  0  0  0  0  0  0
   -0.6079    1.5223    0.6467 C   0  0  2  0  0  0  0  0  0  0  0  0
   -0.0926    1.7550   -0.7729 C   0  0  0  0  0  0  0  0  0  0  0  0
    0.8303    1.1072   -1.2629 O   0  0  0  0  0  0  0  0  0  0  0  0
    0.4328    1.9087    1.7253 C   0  0  2  0  0  0  0  0  0  0  0  0
   -0.1427    1.8081    3.1554 C   0  0  0  0  0  0  0  0  0  0  0  0
    0.9961    3.3069    1.4390 C   0  0  0  0  0  0  0  0  0  0  0  0
    0.9159    1.9209    4.2450 C   0  0  0  0  0  0  0  0  0  0  0  0
   -1.9022   -0.1128    0.2753 H   0  0  0  0  0  0  0  0  0  0  0  0
   -1.5117    2.1326    0.7702 H   0  0  0  0  0  0  0  0  0  0  0  0
    1.2721    1.2040    1.6535 H   0  0  0  0  0  0  0  0  0  0  0  0
   -0.8709    2.6114    3.3157 H   0  0  0  0  0  0  0  0  0  0  0  0
   -0.6808    0.8616    3.2854 H   0  0  0  0  0  0  0  0  0  0  0  0
    0.2063    4.0638    1.4946 H   0  0  0  0  0  0  0  0  0  0  0  0
    1.7582    3.5850    2.1734 H   0  0  0  0  0  0  0  0  0  0  0  0
    1.4496    3.3613    0.4439 H   0  0  0  0  0  0  0  0  0  0  0  0
    1.6802    1.1449    4.1461 H   0  0  0  0  0  0  0  0  0  0  0  0
    0.4528    1.8024    5.2302 H   0  0  0  0  0  0  0  0  0  0  0  0
    1.4061    2.8990    4.2176 H   0  0  0  0  0  0  0  0  0  0  0  0
   -0.8060    2.7452   -1.4333 N   0  0  0  0  0  0  0  0  0  0  0  0
   -0.5331    3.1447   -2.7951 C   0  0  2  0  0  0  0  0  0  0  0  0
   -1.8222    3.6946   -3.3912 C   0  0  0  0  0  0  0  0  0  0  0  0
   -2.9366    3.4113   -2.9565 O   0  0  0  0  0  0  0  0  0  0  0  0
   -0.0071    1.9795   -3.6188 C   0  0  0  0  0  0  0  0  0  0  0  0
   -1.5575    3.2124   -0.9348 H   0  0  0  0  0  0  0  0  0  0  0  0
    0.2167    3.9419   -2.7466 H   0  0  0  0  0  0  0  0  0  0  0  0
   -0.7447    1.1709   -3.6786 H   0  0  0  0  0  0  0  0  0  0  0  0
    0.2261    2.2906   -4.6425 H   0  0  0  0  0  0  0  0  0  0  0  0
    0.9036    1.5662   -3.1721 H   0  0  0  0  0  0  0  0  0  0  0  0
   -1.5839    4.5048   -4.4926 N   0  0  0  0  0  0  0  0  0  0  0  0
   -2.6460    5.1360   -5.2405 C   0  0  0  0  0  0  0  0  0  0  0  0
   -0.6269    4.7004   -4.7713 H   0  0  0  0  0  0  0  0  0  0  0  0
   -2.9397    4.4879   -6.0794 H   0  0  0  0  0  0  0  0  0  0  0  0
   -3.5120    5.2979   -4.5819 H   0  0  0  0  0  0  0  0  0  0  0  0
   -2.2955    6.1032   -5.6298 H   0  0  0  0  0  0  0  0  0  0  0  0
  1  3  1  0  0  0  0
  1  7  1  0  0  0  0
  1  2  2  0  0  0  0
 37 38  1  0  0  0  0
 38 46  1  0  0  0  0
 38 39  2  0  0  0  0
  8  9  1  0  0  0  0
  9 17  1  0  0  0  0
  9 10  2  0  0  0  0
 18 19  1  0  0  0  0
 19 36  1  0  0  0  0
 19 20  2  0  0  0  0
 22 24  1  0  0  0  0
 37 40  1  0  0  0  0
  8 11  1  0  0  0  0
 21 23  1  0  0  0  0
 46 47  1  0  0  0  0
 21 22  1  0  0  0  0
 36 37  1  0  0  0  0
  7  8  1  0  0  0  0
 18 21  1  0  0  0  0
 17 18  1  0  0  0  0
  3  4  1  0  0  0  0
  3  5  1  0  0  0  0
  3  6  1  0  0  0  0
 24 33  1  0  0  0  0
 24 34  1  0  0  0  0
 24 35  1  0  0  0  0
 40 43  1  0  0  0  0
 40 44  1  0  0  0  0
 40 45  1  0  0  0  0
 11 14  1  0  0  0  0
 11 15  1  0  0  0  0
 11 16  1  0  0  0  0
 23 30  1  0  0  0  0
 23 31  1  0  0  0  0
 23 32  1  0  0  0  0
 47 49  1  0  0  0  0
 47 50  1  0  0  0  0
 47 51  1  0  0  0  0
 22 28  1  0  0  0  0
 22 29  1  0  0  0  0
 37 42  1  0  0  0  0
  8 13  1  0  0  0  0
 18 26  1  0  0  0  0
 21 27  1  0  0  0  0
 46 48  1  0  0  0  0
  7 12  1  0  0  0  0
 36 41  1  0  0  0  0
 17 25  1  0  0  0  0
M  END
$$$$

  -OEChem-05262214473D

 51 50  0     1  0  0  0  0  0999 V2000
    1.3524   -3.0009    1.4091 C   0  0  0  0  0  0  0  0  0  0  0  0
    1.8758   -1.9880    0.9598 O   0  0  0  0  0  0  0  0  0  0  0  0
    2.2030   -4.1782    1.7536 C   0  0  0  0  0  0  0  0  0  0  0  0
    2.3264   -4.8705    0.9053 H   0  0  0  0  0  0  0  0  0  0  0  0
    3.2257   -3.8876    2.0432 H   0  0  0  0  0  0  0  0  0  0  0  0
    1.8327   -4.8004    2.5839 H   0  0  0  0  0  0  0  0  0  0  0  0
    0.0005   -3.1873    1.6465 N   0  0  0  0  0  0  0  0  0  0  0  0
   -0.9949   -2.1807    1.3864 C   0  0  2  0  0  0  0  0  0  0  0  0
   -0.3083   -0.8216    1.4164 C   0  0  0  0  0  0  0  0  0  0  0  0
    0.7533   -0.6191    2.0022 O   0  0  0  0  0  0  0  0  0  0  0  0
   -2.1232   -2.2423    2.4042 C   0  0  0  0  0  0  0  0  0  0  0  0
   -0.3048   -4.0823    2.0245 H   0  0  0  0  0  0  0  0  0  0  0  0
   -1.3830   -2.3724    0.3801 H   0  0  0  0  0  0  0  0  0  0  0  0
   -1.7534   -2.0527    3.4185 H   0  0  0  0  0  0  0  0  0  0  0  0
   -2.8936   -1.4947    2.1882 H   0  0  0  0  0  0  0  0  0  0  0  0
   -2.5964   -3.2301    2.4022 H   0  0  0  0  0  0  0  0  0  0  0  0
   -1.0412    0.1517    0.7482 N   0  0  0  0  0  0  0  0  0  0  0  0
   -0.6079    1.5223    0.6467 C   0  0  2  0  0  0  0  0  0  0  0  0
   -0.0926    1.7550   -0.7729 C   0  0  0  0  0  0  0  0  0  0  0  0
    0.6314    0.9536   -1.3603 O   0  0  0  0  0  0  0  0  0  0  0  0
    0.4328    1.9087    1.7253 C   0  0  2  0  0  0  0  0  0  0  0  0
   -0.1427    1.8081    3.1554 C   0  0  0  0  0  0  0  0  0  0  0  0
    0.9961    3.3069    1.4390 C   0  0  0  0  0  0  0  0  0  0  0  0
    0.9159    1.9209    4.2450 C   0  0  0  0  0  0  0  0  0  0  0  0
   -1.9022   -0.1128    0.2753 H   0  0  0  0  0  0  0  0  0  0  0  0
   -1.5117    2.1326    0.7702 H   0  0  0  0  0  0  0  0  0  0  0  0
    1.2721    1.2040    1.6535 H   0  0  0  0  0  0  0  0  0  0  0  0
   -0.8709    2.6114    3.3157 H   0  0  0  0  0  0  0  0  0  0  0  0
   -0.6808    0.8616    3.2854 H   0  0  0  0  0  0  0  0  0  0  0  0
    0.2063    4.0638    1.4946 H   0  0  0  0  0  0  0  0  0  0  0  0
    1.7582    3.5850    2.1734 H   0  0  0  0  0  0  0  0  0  0  0  0
    1.4496    3.3613    0.4439 H   0  0  0  0  0  0  0  0  0  0  0  0
    1.6802    1.1449    4.1461 H   0  0  0  0  0  0  0  0  0  0  0  0
    0.4528    1.8024    5.2302 H   0  0  0  0  0  0  0  0  0  0  0  0
    1.4061    2.8990    4.2176 H   0  0  0  0  0  0  0  0  0  0  0  0
   -0.5636    2.9433   -1.3129 N   0  0  0  0  0  0  0  0  0  0  0  0
   -0.2413    3.3899   -2.6490 C   0  0  2  0  0  0  0  0  0  0  0  0
   -1.3754    4.2841   -3.1324 C   0  0  0  0  0  0  0  0  0  0  0  0
   -2.5123    4.2361   -2.6673 O   0  0  0  0  0  0  0  0  0  0  0  0
   -0.0371    2.2138   -3.5913 C   0  0  0  0  0  0  0  0  0  0  0  0
   -1.1649    3.5285   -0.7405 H   0  0  0  0  0  0  0  0  0  0  0  0
    0.6803    3.9771   -2.5726 H   0  0  0  0  0  0  0  0  0  0  0  0
   -0.9500    1.6137   -3.6806 H   0  0  0  0  0  0  0  0  0  0  0  0
    0.2349    2.5531   -4.5962 H   0  0  0  0  0  0  0  0  0  0  0  0
    0.7588    1.5557   -3.2264 H   0  0  0  0  0  0  0  0  0  0  0  0
   -0.9798    5.1118   -4.1738 N   0  0  0  0  0  0  0  0  0  0  0  0
   -1.8785    6.0444   -4.8130 C   0  0  0  0  0  0  0  0  0  0  0  0
   -0.0123    5.0982   -4.4829 H   0  0  0  0  0  0  0  0  0  0  0  0
   -2.3443    5.5653   -5.6867 H   0  0  0  0  0  0  0  0  0  0  0  0
   -2.6601    6.3471   -4.1007 H   0  0  0  0  0  0  0  0  0  0  0  0
   -1.3154    6.9317   -5.1383 H   0  0  0  0  0  0  0  0  0  0  0  0
  1  3  1  0  0  0  0
  1  7  1  0  0  0  0
  1  2  2  0  0  0  0
 37 38  1  0  0  0  0
 38 46  1  0  0  0  0
 38 39  2  0  0  0  0
  8  9  1  0  0  0  0
  9 17  1  0  0  0  0
  9 10  2  0  0  0  0
 18 19  1  0  0  0  0
 19 36  1  0  0  0  0
 19 20  2  0  0  0  0
 22 24  1  0  0  0  0
 37 40  1  0  0  0  0
  8 11  1  0  0  0  0
 21 23  1  0  0  0  0
 46 47  1  0  0  0  0
 21 22  1  0  0  0  0
 36 37  1  0  0  0  0
  7  8  1  0  0  0  0
 18 21  1  0  0  0  0
 17 18  1  0  0  0  0
  3  4  1  0  0  0  0
  3  5  1  0  0  0  0
  3  6  1  0  0  0  0
 24 33  1  0  0  0  0
 24 34  1  0  0  0  0
 24 35  1  0  0  0  0
 40 43  1  0  0  0  0
 40 44  1  0  0  0  0
 40 45  1  0  0  0  0
 11 14  1  0  0  0  0
 11 15  1  0  0  0  0
 11 16  1  0  0  0  0
 23 30  1  0  0  0  0
 23 31  1  0  0  0  0
 23 32  1  0  0  0  0
 47 49  1  0  0  0  0
 47 50  1  0  0  0  0
 47 51  1  0  0  0  0
 22 28  1  0  0  0  0
 22 29  1  0  0  0  0
 37 42  1  0  0  0  0
  8 13  1  0  0  0  0
 18 26  1  0  0  0  0
 21 27  1  0  0  0  0
 46 48  1  0  0  0  0
  7 12  1  0  0  0  0
 36 41  1  0  0  0  0
 17 25  1  0  0  0  0
M  END
$$$$

  -OEChem-05262214473D

 51 50  0     1  0  0  0  0  0999 V2000
    1.3524   -3.0009    1.4091 C   0  0  0  0  0  0  0  0  0  0  0  0
    1.8758   -1.9880    0.9598 O   0  0  0  0  0  0  0  0  0  0  0  0
    2.2030   -4.1782    1.7536 C   0  0  0  0  0  0  0  0  0  0  0  0
    2.3264   -4.8705    0.9053 H   0  0  0  0  0  0  0  0  0  0  0  0
    3.2257   -3.8876    2.0432 H   0  0  0  0  0  0  0  0  0  0  0  0
    1.8327   -4.8004    2.5839 H   0  0  0  0  0  0  0  0  0  0  0  0
    0.0005   -3.1873    1.6465 N   0  0  0  0  0  0  0  0  0  0  0  0
   -0.9949   -2.1807    1.3864 C   0  0  2  0  0  0  0  0  0  0  0  0
   -0.3083   -0.8216    1.4164 C   0  0  0  0  0  0  0  0  0  0  0  0
    0.7533   -0.6191    2.0022 O   0  0  0  0  0  0  0  0  0  0  0  0
   -2.1232   -2.2423    2.4042 C   0  0  0  0  0  0  0  0  0  0  0  0
   -0.3048   -4.0823    2.0245 H   0  0  0  0  0  0  0  0  0  0  0  0
   -1.3830   -2.3724    0.3801 H   0  0  0  0  0  0  0  0  0  0  0  0
   -1.7534   -2.0527    3.4185 H   0  0  0  0  0  0  0  0  0  0  0  0
   -2.8936   -1.4947    2.1882 H   0  0  0  0  0  0  0  0  0  0  0  0
   -2.5964   -3.2301    2.4022 H   0  0  0  0  0  0  0  0  0  0  0  0
   -1.0412    0.1517    0.7482 N   0  0  0  0  0  0  0  0  0  0  0  0
   -0.6079    1.5223    0.6467 C   0  0  2  0  0  0  0  0  0  0  0  0
   -0.0926    1.7550   -0.7729 C   0  0  0  0  0  0  0  0  0  0  0  0
    0.3985    0.8615   -1.4599 O   0  0  0  0  0  0  0  0  0  0  0  0
    0.4328    1.9087    1.7253 C   0  0  2  0  0  0  0  0  0  0  0  0
   -0.1427    1.8081    3.1554 C   0  0  0  0  0  0  0  0  0  0  0  0
    0.9961    3.3069    1.4390 C   0  0  0  0  0  0  0  0  0  0  0  0
    0.9159    1.9209    4.2450 C   0  0  0  0  0  0  0  0  0  0  0  0
   -1.9022   -0.1128    0.2753 H   0  0  0  0  0  0  0  0  0  0  0  0
   -1.5117    2.1326    0.7702 H   0  0  0  0  0  0  0  0  0  0  0  0
    1.2721    1.2040    1.6535 H   0  0  0  0  0  0  0  0  0  0  0  0
   -0.8709    2.6114    3.3157 H   0  0  0  0  0  0  0  0  0  0  0  0
   -0.6808    0.8616    3.2854 H   0  0  0  0  0  0  0  0  0  0  0  0
    0.2063    4.0638    1.4946 H   0  0  0  0  0  0  0  0  0  0  0  0
    1.7582    3.5850    2.1734 H   0  0  0  0  0  0  0  0  0  0  0  0
    1.4496    3.3613    0.4439 H   0  0  0  0  0  0  0  0  0  0  0  0
    1.6802    1.1449    4.1461 H   0  0  0  0  0  0  0  0  0  0  0  0
    0.4528    1.8024    5.2302 H   0  0  0  0  0  0  0  0  0  0  0  0
    1.4061    2.8990    4.2176 H   0  0  0  0  0  0  0  0  0  0  0  0
   -0.2771    3.0660   -1.1888 N   0  0  0  0  0  0  0  0  0  0  0  0
    0.1052    3.5438   -2.4980 C   0  0  2  0  0  0  0  0  0  0  0  0
   -0.7920    4.7235   -2.8486 C   0  0  0  0  0  0  0  0  0  0  0  0
   -1.8927    4.9056   -2.3326 O   0  0  0  0  0  0  0  0  0  0  0  0
   -0.0087    2.4449   -3.5431 C   0  0  0  0  0  0  0  0  0  0  0  0
   -0.7021    3.7225   -0.5406 H   0  0  0  0  0  0  0  0  0  0  0  0
    1.1434    3.8844   -2.4197 H   0  0  0  0  0  0  0  0  0  0  0  0
   -1.0419    2.0909   -3.6357 H   0  0  0  0  0  0  0  0  0  0  0  0
    0.3085    2.8005   -4.5290 H   0  0  0  0  0  0  0  0  0  0  0  0
    0.6143    1.5851   -3.2740 H   0  0  0  0  0  0  0  0  0  0  0  0
   -0.2377    5.5251   -3.8366 N   0  0  0  0  0  0  0  0  0  0  0  0
   -0.9017    6.7001   -4.3510 C   0  0  0  0  0  0  0  0  0  0  0  0
    0.6884    5.3095   -4.1940 H   0  0  0  0  0  0  0  0  0  0  0  0
   -1.4947    6.4286   -5.2368 H   0  0  0  0  0  0  0  0  0  0  0  0
   -1.5661    7.1136   -3.5779 H   0  0  0  0  0  0  0  0  0  0  0  0
   -0.1502    7.4534   -4.6298 H   0  0  0  0  0  0  0  0  0  0  0  0
  1  3  1  0  0  0  0
  1  7  1  0  0  0  0
  1  2  2  0  0  0  0
 37 38  1  0  0  0  0
 38 46  1  0  0  0  0
 38 39  2  0  0  0  0
  8  9  1  0  0  0  0
  9 17  1  0  0  0  0
  9 10  2  0  0  0  0
 18 19  1  0  0  0  0
 19 36  1  0  0  0  0
 19 20  2  0  0  0  0
 22 24  1  0  0  0  0
 37 40  1  0  0  0  0
  8 11  1  0  0  0  0
 21 23  1  0  0  0  0
 46 47  1  0  0  0  0
 21 22  1  0  0  0  0
 36 37  1  0  0  0  0
  7  8  1  0  0  0  0
 18 21  1  0  0  0  0
 17 18  1  0  0  0  0
  3  4  1  0  0  0  0
  3  5  1  0  0  0  0
  3  6  1  0  0  0  0
 24 33  1  0  0  0  0
 24 34  1  0  0  0  0
 24 35  1  0  0  0  0
 40 43  1  0  0  0  0
 40 44  1  0  0  0  0
 40 45  1  0  0  0  0
 11 14  1  0  0  0  0
 11 15  1  0  0  0  0
 11 16  1  0  0  0  0
 23 30  1  0  0  0  0
 23 31  1  0  0  0  0
 23 32  1  0  0  0  0
 47 49  1  0  0  0  0
 47 50  1  0  0  0  0
 47 51  1  0  0  0  0
 22 28  1  0  0  0  0
 22 29  1  0  0  0  0
 37 42  1  0  0  0  0
  8 13  1  0  0  0  0
 18 26  1  0  0  0  0
 21 27  1  0  0  0  0
 46 48  1  0  0  0  0
  7 12  1  0  0  0  0
 36 41  1  0  0  0  0
 17 25  1  0  0  0  0
M  END
$$$$

  -OEChem-05262214473D

 51 50  0     1  0  0  0  0  0999 V2000
    1.3524   -3.0009    1.4091 C   0  0  0  0  0  0  0  0  0  0  0  0
    1.8758   -1.9880    0.9598 O   0  0  0  0  0  0  0  0  0  0  0  0
    2.2030   -4.1782    1.7536 C   0  0  0  0  0  0  0  0  0  0  0  0
    2.3264   -4.8705    0.9053 H   0  0  0  0  0  0  0  0  0  0  0  0
    3.2257   -3.8876    2.0432 H   0  0  0  0  0  0  0  0  0  0  0  0
    1.8327   -4.8004    2.5839 H   0  0  0  0  0  0  0  0  0  0  0  0
    0.0005   -3.1873    1.6465 N   0  0  0  0  0  0  0  0  0  0  0  0
   -0.9949   -2.1807    1.3864 C   0  0  2  0  0  0  0  0  0  0  0  0
   -0.3083   -0.8216    1.4164 C   0  0  0  0  0  0  0  0  0  0  0  0
    0.7533   -0.6191    2.0022 O   0  0  0  0  0  0  0  0  0  0  0  0
   -2.1232   -2.2423    2.4042 C   0  0  0  0  0  0  0  0  0  0  0  0
   -0.3048   -4.0823    2.0245 H   0  0  0  0  0  0  0  0  0  0  0  0
   -1.3830   -2.3724    0.3801 H   0  0  0  0  0  0  0  0  0  0  0  0
   -1.7534   -2.0527    3.4185 H   0  0  0  0  0  0  0  0  0  0  0  0
   -2.8936   -1.4947    2.1882 H   0  0  0  0  0  0  0  0  0  0  0  0
   -2.5964   -3.2301    2.4022 H   0  0  0  0  0  0  0  0  0  0  0  0
   -1.0412    0.1517    0.7482 N   0  0  0  0  0  0  0  0  0  0  0  0
   -0.6079    1.5223    0.6467 C   0  0  2  0  0  0  0  0  0  0  0  0
   -0.0926    1.7550   -0.7729 C   0  0  0  0  0  0  0  0  0  0  0  0
    0.1476    0.8373   -1.5550 O   0  0  0  0  0  0  0  0  0  0  0  0
    0.4328    1.9087    1.7253 C   0  0  2  0  0  0  0  0  0  0  0  0
   -0.1427    1.8081    3.1554 C   0  0  0  0  0  0  0  0  0  0  0  0
    0.9961    3.3069    1.4390 C   0  0  0  0  0  0  0  0  0  0  0  0
    0.9159    1.9209    4.2450 C   0  0  0  0  0  0  0  0  0  0  0  0
   -1.9022   -0.1128    0.2753 H   0  0  0  0  0  0  0  0  0  0  0  0
   -1.5117    2.1326    0.7702 H   0  0  0  0  0  0  0  0  0  0  0  0
    1.2721    1.2040    1.6535 H   0  0  0  0  0  0  0  0  0  0  0  0
   -0.8709    2.6114    3.3157 H   0  0  0  0  0  0  0  0  0  0  0  0
   -0.6808    0.8616    3.2854 H   0  0  0  0  0  0  0  0  0  0  0  0
    0.2063    4.0638    1.4946 H   0  0  0  0  0  0  0  0  0  0  0  0
    1.7582    3.5850    2.1734 H   0  0  0  0  0  0  0  0  0  0  0  0
    1.4496    3.3613    0.4439 H   0  0  0  0  0  0  0  0  0  0  0  0
    1.6802    1.1449    4.1461 H   0  0  0  0  0  0  0  0  0  0  0  0
    0.4528    1.8024    5.2302 H   0  0  0  0  0  0  0  0  0  0  0  0
    1.4061    2.8990    4.2176 H   0  0  0  0  0  0  0  0  0  0  0  0
    0.0340    3.1047   -1.0695 N   0  0  0  0  0  0  0  0  0  0  0  0
    0.4829    3.5959   -2.3524 C   0  0  2  0  0  0  0  0  0  0  0  0
   -0.1116    4.9828   -2.5591 C   0  0  0  0  0  0  0  0  0  0  0  0
   -1.1201    5.3741   -1.9754 O   0  0  0  0  0  0  0  0  0  0  0  0
    0.0762    2.6570   -3.4775 C   0  0  0  0  0  0  0  0  0  0  0  0
   -0.2005    3.7811   -0.3490 H   0  0  0  0  0  0  0  0  0  0  0  0
    1.5745    3.6702   -2.2983 H   0  0  0  0  0  0  0  0  0  0  0  0
   -1.0142    2.5700   -3.5471 H   0  0  0  0  0  0  0  0  0  0  0  0
    0.4416    3.0159   -4.4453 H   0  0  0  0  0  0  0  0  0  0  0  0
    0.4799    1.6524   -3.3118 H   0  0  0  0  0  0  0  0  0  0  0  0
    0.5917    5.7165   -3.5042 N   0  0  0  0  0  0  0  0  0  0  0  0
    0.2175    7.0582   -3.8859 C   0  0  0  0  0  0  0  0  0  0  0  0
    1.4273    5.3199   -3.9240 H   0  0  0  0  0  0  0  0  0  0  0  0
   -0.4487    7.0188   -4.7603 H   0  0  0  0  0  0  0  0  0  0  0  0
   -0.3044    7.5453   -3.0491 H   0  0  0  0  0  0  0  0  0  0  0  0
    1.1208    7.6327   -4.1390 H   0  0  0  0  0  0  0  0  0  0  0  0
  1  3  1  0  0  0  0
  1  7  1  0  0  0  0
  1  2  2  0  0  0  0
 37 38  1  0  0  0  0
 38 46  1  0  0  0  0
 38 39  2  0  0  0  0
  8  9  1  0  0  0  0
  9 17  1  0  0  0  0
  9 10  2  0  0  0  0
 18 19  1  0  0  0  0
 19 36  1  0  0  0  0
 19 20  2  0  0  0  0
 22 24  1  0  0  0  0
 37 40  1  0  0  0  0
  8 11  1  0  0  0  0
 21 23  1  0  0  0  0
 46 47  1  0  0  0  0
 21 22  1  0  0  0  0
 36 37  1  0  0  0  0
  7  8  1  0  0  0  0
 18 21  1  0  0  0  0
 17 18  1  0  0  0  0
  3  4  1  0  0  0  0
  3  5  1  0  0  0  0
  3  6  1  0  0  0  0
 24 33  1  0  0  0  0
 24 34  1  0  0  0  0
 24 35  1  0  0  0  0
 40 43  1  0  0  0  0
 40 44  1  0  0  0  0
 40 45  1  0  0  0  0
 11 14  1  0  0  0  0
 11 15  1  0  0  0  0
 11 16  1  0  0  0  0
 23 30  1  0  0  0  0
 23 31  1  0  0  0  0
 23 32  1  0  0  0  0
 47 49  1  0  0  0  0
 47 50  1  0  0  0  0
 47 51  1  0  0  0  0
 22 28  1  0  0  0  0
 22 29  1  0  0  0  0
 37 42  1  0  0  0  0
  8 13  1  0  0  0  0
 18 26  1  0  0  0  0
 21 27  1  0  0  0  0
 46 48  1  0  0  0  0
  7 12  1  0  0  0  0
 36 41  1  0  0  0  0
 17 25  1  0  0  0  0
M  END
$$$$

  -OEChem-05262214473D

 51 50  0     1  0  0  0  0  0999 V2000
    1.3524   -3.0009    1.4091 C   0  0  0  0  0  0  0  0  0  0  0  0
    1.8758   -1.9880    0.9598 O   0  0  0  0  0  0  0  0  0  0  0  0
    2.2030   -4.1782    1.7536 C   0  0  0  0  0  0  0  0  0  0  0  0
    2.3264   -4.8705    0.9053 H   0  0  0  0  0  0  0  0  0  0  0  0
    3.2257   -3.8876    2.0432 H   0  0  0  0  0  0  0  0  0  0  0  0
    1.8327   -4.8004    2.5839 H   0  0  0  0  0  0  0  0  0  0  0  0
    0.0005   -3.1873    1.6465 N   0  0  0  0  0  0  0  0  0  0  0  0
   -0.9949   -2.1807    1.3864 C   0  0  2  0  0  0  0  0  0  0  0  0
   -0.3083   -0.8216    1.4164 C   0  0  0  0  0  0  0  0  0  0  0  0
    0.7533   -0.6191    2.0022 O   0  0  0  0  0  0  0  0  0  0  0  0
   -2.1232   -2.2423    2.4042 C   0  0  0  0  0  0  0  0  0  0  0  0
   -0.3048   -4.0823    2.0245 H   0  0  0  0  0  0  0  0  0  0  0  0
   -1.3830   -2.3724    0.3801 H   0  0  0  0  0  0  0  0  0  0  0  0
   -1.7534   -2.0527    3.4185 H   0  0  0  0  0  0  0  0  0  0  0  0
   -2.8936   -1.4947    2.1882 H   0  0  0  0  0  0  0  0  0  0  0  0
   -2.5964   -3.2301    2.4022 H   0  0  0  0  0  0  0  0  0  0  0  0
   -1.0412    0.1517    0.7482 N   0  0  0  0  0  0  0  0  0  0  0  0
   -0.6079    1.5223    0.6467 C   0  0  2  0  0  0  0  0  0  0  0  0
   -0.4505    1.8636   -0.8344 C   0  0  0  0  0  0  0  0  0  0  0  0
   -0.6990    1.0635   -1.7341 O   0  0  0  0  0  0  0  0  0  0  0  0
    0.6761    1.8122    1.4610 C   0  0  2  0  0  0  0  0  0  0  0  0
    0.4666    1.6023    2.9771 C   0  0  0  0  0  0  0  0  0  0  0  0
    1.1908    3.2241    1.1509 C   0  0  0  0  0  0  0  0  0  0  0  0
    1.7630    1.6184    3.7769 C   0  0  0  0  0  0  0  0  0  0  0  0
   -1.9022   -0.1128    0.2753 H   0  0  0  0  0  0  0  0  0  0  0  0
   -1.4364    2.1283    1.0352 H   0  0  0  0  0  0  0  0  0  0  0  0
    1.4520    1.1084    1.1312 H   0  0  0  0  0  0  0  0  0  0  0  0
   -0.1772    2.3963    3.3724 H   0  0  0  0  0  0  0  0  0  0  0  0
   -0.0494    0.6530    3.1640 H   0  0  0  0  0  0  0  0  0  0  0  0
    0.4603    3.9807    1.4568 H   0  0  0  0  0  0  0  0  0  0  0  0
    2.1173    3.4360    1.6933 H   0  0  0  0  0  0  0  0  0  0  0  0
    1.3874    3.3541    0.0817 H   0  0  0  0  0  0  0  0  0  0  0  0
    2.4577    0.8464    3.4341 H   0  0  0  0  0  0  0  0  0  0  0  0
    1.5528    1.4254    4.8340 H   0  0  0  0  0  0  0  0  0  0  0  0
    2.2586    2.5915    3.7032 H   0  0  0  0  0  0  0  0  0  0  0  0
   -0.0333    3.1727   -1.0288 N   0  0  0  0  0  0  0  0  0  0  0  0
    0.1726    3.7535   -2.3360 C   0  0  2  0  0  0  0  0  0  0  0  0
   -0.0394    5.2573   -2.2212 C   0  0  0  0  0  0  0  0  0  0  0  0
   -0.7003    5.7749   -1.3233 O   0  0  0  0  0  0  0  0  0  0  0  0
   -0.7698    3.1487   -3.3649 C   0  0  0  0  0  0  0  0  0  0  0  0
    0.1357    3.7516   -0.2115 H   0  0  0  0  0  0  0  0  0  0  0  0
    1.2133    3.5508   -2.6117 H   0  0  0  0  0  0  0  0  0  0  0  0
   -1.8172    3.3415   -3.1055 H   0  0  0  0  0  0  0  0  0  0  0  0
   -0.5931    3.5692   -4.3604 H   0  0  0  0  0  0  0  0  0  0  0  0
   -0.6367    2.0631   -3.4247 H   0  0  0  0  0  0  0  0  0  0  0  0
    0.5603    5.9500   -3.2637 N   0  0  0  0  0  0  0  0  0  0  0  0
    0.4912    7.3874   -3.3863 C   0  0  0  0  0  0  0  0  0  0  0  0
    1.1047    5.4410   -3.9539 H   0  0  0  0  0  0  0  0  0  0  0  0
   -0.3691    7.6613   -4.0147 H   0  0  0  0  0  0  0  0  0  0  0  0
    0.3736    7.8351   -2.3885 H   0  0  0  0  0  0  0  0  0  0  0  0
    1.4167    7.7607   -3.8490 H   0  0  0  0  0  0  0  0  0  0  0  0
  1  3  1  0  0  0  0
  1  7  1  0  0  0  0
  1  2  2  0  0  0  0
 37 38  1  0  0  0  0
 38 46  1  0  0  0  0
 38 39  2  0  0  0  0
  8  9  1  0  0  0  0
  9 17  1  0  0  0  0
  9 10  2  0  0  0  0
 18 19  1  0  0  0  0
 19 36  1  0  0  0  0
 19 20  2  0  0  0  0
 22 24  1  0  0  0  0
 37 40  1  0  0  0  0
  8 11  1  0  0  0  0
 21 23  1  0  0  0  0
 46 47  1  0  0  0  0
 21 22  1  0  0  0  0
 36 37  1  0  0  0  0
  7  8  1  0  0  0  0
 18 21  1  0  0  0  0
 17 18  1  0  0  0  0
  3  4  1  0  0  0  0
  3  5  1  0  0  0  0
  3  6  1  0  0  0  0
 24 33  1  0  0  0  0
 24 34  1  0  0  0  0
 24 35  1  0  0  0  0
 40 43  1  0  0  0  0
 40 44  1  0  0  0  0
 40 45  1  0  0  0  0
 11 14  1  0  0  0  0
 11 15  1  0  0  0  0
 11 16  1  0  0  0  0
 23 30  1  0  0  0  0
 23 31  1  0  0  0  0
 23 32  1  0  0  0  0
 47 49  1  0  0  0  0
 47 50  1  0  0  0  0
 47 51  1  0  0  0  0
 22 28  1  0  0  0  0
 22 29  1  0  0  0  0
 37 42  1  0  0  0  0
  8 13  1  0  0  0  0
 18 26  1  0  0  0  0
 21 27  1  0  0  0  0
 46 48  1  0  0  0  0
  7 12  1  0  0  0  0
 36 41  1  0  0  0  0
 17 25  1  0  0  0  0
M  END
$$$$

  -OEChem-05262214473D

 51 50  0     1  0  0  0  0  0999 V2000
    1.3524   -3.0009    1.4091 C   0  0  0  0  0  0  0  0  0  0  0  0
    1.8758   -1.9880    0.9598 O   0  0  0  0  0  0  0  0  0  0  0  0
    2.2030   -4.1782    1.7536 C   0  0  0  0  0  0  0  0  0  0  0  0
    2.3264   -4.8705    0.9053 H   0  0  0  0  0  0  0  0  0  0  0  0
    3.2257   -3.8876    2.0432 H   0  0  0  0  0  0  0  0  0  0  0  0
    1.8327   -4.8004    2.5839 H   0  0  0  0  0  0  0  0  0  0  0  0
    0.0005   -3.1873    1.6465 N   0  0  0  0  0  0  0  0  0  0  0  0
   -0.9949   -2.1807    1.3864 C   0  0  2  0  0  0  0  0  0  0  0  0
   -0.3083   -0.8216    1.4164 C   0  0  0  0  0  0  0  0  0  0  0  0
    0.7533   -0.6191    2.0022 O   0  0  0  0  0  0  0  0  0  0  0  0
   -2.1232   -2.2423    2.4042 C   0  0  0  0  0  0  0  0  0  0  0  0
   -0.3048   -4.0823    2.0245 H   0  0  0  0  0  0  0  0  0  0  0  0
   -1.3830   -2.3724    0.3801 H   0  0  0  0  0  0  0  0  0  0  0  0
   -1.7534   -2.0527    3.4185 H   0  0  0  0  0  0  0  0  0  0  0  0
   -2.8936   -1.4947    2.1882 H   0  0  0  0  0  0  0  0  0  0  0  0
   -2.5964   -3.2301    2.4022 H   0  0  0  0  0  0  0  0  0  0  0  0
   -1.0412    0.1517    0.7482 N   0  0  0  0  0  0  0  0  0  0  0  0
   -0.6079    1.5223    0.6467 C   0  0  2  0  0  0  0  0  0  0  0  0
   -0.4505    1.8636   -0.8344 C   0  0  0  0  0  0  0  0  0  0  0  0
   -0.9409    1.1822   -1.7325 O   0  0  0  0  0  0  0  0  0  0  0  0
    0.6761    1.8122    1.4610 C   0  0  2  0  0  0  0  0  0  0  0  0
    0.4666    1.6023    2.9771 C   0  0  0  0  0  0  0  0  0  0  0  0
    1.1908    3.2241    1.1509 C   0  0  0  0  0  0  0  0  0  0  0  0
    1.7630    1.6184    3.7769 C   0  0  0  0  0  0  0  0  0  0  0  0
   -1.9022   -0.1128    0.2753 H   0  0  0  0  0  0  0  0  0  0  0  0
   -1.4364    2.1283    1.0352 H   0  0  0  0  0  0  0  0  0  0  0  0
    1.4520    1.1084    1.1312 H   0  0  0  0  0  0  0  0  0  0  0  0
   -0.1772    2.3963    3.3724 H   0  0  0  0  0  0  0  0  0  0  0  0
   -0.0494    0.6530    3.1640 H   0  0  0  0  0  0  0  0  0  0  0  0
    0.4603    3.9807    1.4568 H   0  0  0  0  0  0  0  0  0  0  0  0
    2.1173    3.4360    1.6933 H   0  0  0  0  0  0  0  0  0  0  0  0
    1.3874    3.3541    0.0817 H   0  0  0  0  0  0  0  0  0  0  0  0
    2.4577    0.8464    3.4341 H   0  0  0  0  0  0  0  0  0  0  0  0
    1.5528    1.4254    4.8340 H   0  0  0  0  0  0  0  0  0  0  0  0
    2.2586    2.5915    3.7032 H   0  0  0  0  0  0  0  0  0  0  0  0
    0.2715    3.0326   -1.0287 N   0  0  0  0  0  0  0  0  0  0  0  0
    0.5455    3.5876   -2.3346 C   0  0  2  0  0  0  0  0  0  0  0  0
    0.7254    5.0918   -2.1781 C   0  0  0  0  0  0  0  0  0  0  0  0
    0.2658    5.7274   -1.2316 O   0  0  0  0  0  0  0  0  0  0  0  0
   -0.5733    3.2731   -3.3154 C   0  0  0  0  0  0  0  0  0  0  0  0
    0.6250    3.5227   -0.2123 H   0  0  0  0  0  0  0  0  0  0  0  0
    1.4851    3.1406   -2.6774 H   0  0  0  0  0  0  0  0  0  0  0  0
   -1.5227    3.7128   -2.9887 H   0  0  0  0  0  0  0  0  0  0  0  0
   -0.3509    3.6697   -4.3115 H   0  0  0  0  0  0  0  0  0  0  0  0
   -0.7211    2.1914   -3.4042 H   0  0  0  0  0  0  0  0  0  0  0  0
    1.4224    5.6476   -3.2417 N   0  0  0  0  0  0  0  0  0  0  0  0
    1.7107    7.0599   -3.3322 C   0  0  0  0  0  0  0  0  0  0  0  0
    1.7828    5.0425   -3.9737 H   0  0  0  0  0  0  0  0  0  0  0  0
    0.9141    7.5615   -3.9013 H   0  0  0  0  0  0  0  0  0  0  0  0
    1.7640    7.4886   -2.3206 H   0  0  0  0  0  0  0  0  0  0  0  0
    2.6737    7.2055   -3.8433 H   0  0  0  0  0  0  0  0  0  0  0  0
  1  3  1  0  0  0  0
  1  7  1  0  0  0  0
  1  2  2  0  0  0  0
 37 38  1  0  0  0  0
 38 46  1  0  0  0  0
 38 39  2  0  0  0  0
  8  9  1  0  0  0  0
  9 17  1  0  0  0  0
  9 10  2  0  0  0  0
 18 19  1  0  0  0  0
 19 36  1  0  0  0  0
 19 20  2  0  0  0  0
 22 24  1  0  0  0  0
 37 40  1  0  0  0  0
  8 11  1  0  0  0  0
 21 23  1  0  0  0  0
 46 47  1  0  0  0  0
 21 22  1  0  0  0  0
 36 37  1  0  0  0  0
  7  8  1  0  0  0  0
 18 21  1  0  0  0  0
 17 18  1  0  0  0  0
  3  4  1  0  0  0  0
  3  5  1  0  0  0  0
  3  6  1  0  0  0  0
 24 33  1  0  0  0  0
 24 34  1  0  0  0  0
 24 35  1  0  0  0  0
 40 43  1  0  0  0  0
 40 44  1  0  0  0  0
 40 45  1  0  0  0  0
 11 14  1  0  0  0  0
 11 15  1  0  0  0  0
 11 16  1  0  0  0  0
 23 30  1  0  0  0  0
 23 31  1  0  0  0  0
 23 32  1  0  0  0  0
 47 49  1  0  0  0  0
 47 50  1  0  0  0  0
 47 51  1  0  0  0  0
 22 28  1  0  0  0  0
 22 29  1  0  0  0  0
 37 42  1  0  0  0  0
  8 13  1  0  0  0  0
 18 26  1  0  0  0  0
 21 27  1  0  0  0  0
 46 48  1  0  0  0  0
  7 12  1  0  0  0  0
 36 41  1  0  0  0  0
 17 25  1  0  0  0  0
M  END
$$$$

  -OEChem-05262214473D

 51 50  0     1  0  0  0  0  0999 V2000
    1.3524   -3.0009    1.4091 C   0  0  0  0  0  0  0  0  0  0  0  0
    1.8758   -1.9880    0.9598 O   0  0  0  0  0  0  0  0  0  0  0  0
    2.2030   -4.1782    1.7536 C   0  0  0  0  0  0  0  0  0  0  0  0
    2.3264   -4.8705    0.9053 H   0  0  0  0  0  0  0  0  0  0  0  0
    3.2257   -3.8876    2.0432 H   0  0  0  0  0  0  0  0  0  0  0  0
    1.8327   -4.8004    2.5839 H   0  0  0  0  0  0  0  0  0  0  0  0
    0.0005   -3.1873    1.6465 N   0  0  0  0  0  0  0  0  0  0  0  0
   -0.9949   -2.1807    1.3864 C   0  0  2  0  0  0  0  0  0  0  0  0
   -0.3083   -0.8216    1.4164 C   0  0  0  0  0  0  0  0  0  0  0  0
    0.7533   -0.6191    2.0022 O   0  0  0  0  0  0  0  0  0  0  0  0
   -2.1232   -2.2423    2.4042 C   0  0  0  0  0  0  0  0  0  0  0  0
   -0.3048   -4.0823    2.0245 H   0  0  0  0  0  0  0  0  0  0  0  0
   -1.3830   -2.3724    0.3801 H   0  0  0  0  0  0  0  0  0  0  0  0
   -1.7534   -2.0527    3.4185 H   0  0  0  0  0  0  0  0  0  0  0  0
   -2.8936   -1.4947    2.1882 H   0  0  0  0  0  0  0  0  0  0  0  0
   -2.5964   -3.2301    2.4022 H   0  0  0  0  0  0  0  0  0  0  0  0
   -1.0412    0.1517    0.7482 N   0  0  0  0  0  0  0  0  0  0  0  0
   -0.6079    1.5223    0.6467 C   0  0  2  0  0  0  0  0  0  0  0  0
   -0.4505    1.8636   -0.8344 C   0  0  0  0  0  0  0  0  0  0  0  0
   -1.1447    1.3574   -1.7138 O   0  0  0  0  0  0  0  0  0  0  0  0
    0.6761    1.8122    1.4610 C   0  0  2  0  0  0  0  0  0  0  0  0
    0.4666    1.6023    2.9771 C   0  0  0  0  0  0  0  0  0  0  0  0
    1.1908    3.2241    1.1509 C   0  0  0  0  0  0  0  0  0  0  0  0
    1.7630    1.6184    3.7769 C   0  0  0  0  0  0  0  0  0  0  0  0
   -1.9022   -0.1128    0.2753 H   0  0  0  0  0  0  0  0  0  0  0  0
   -1.4364    2.1283    1.0352 H   0  0  0  0  0  0  0  0  0  0  0  0
    1.4520    1.1084    1.1312 H   0  0  0  0  0  0  0  0  0  0  0  0
   -0.1772    2.3963    3.3724 H   0  0  0  0  0  0  0  0  0  0  0  0
   -0.0494    0.6530    3.1640 H   0  0  0  0  0  0  0  0  0  0  0  0
    0.4603    3.9807    1.4568 H   0  0  0  0  0  0  0  0  0  0  0  0
    2.1173    3.4360    1.6933 H   0  0  0  0  0  0  0  0  0  0  0  0
    1.3874    3.3541    0.0817 H   0  0  0  0  0  0  0  0  0  0  0  0
    2.4577    0.8464    3.4341 H   0  0  0  0  0  0  0  0  0  0  0  0
    1.5528    1.4254    4.8340 H   0  0  0  0  0  0  0  0  0  0  0  0
    2.2586    2.5915    3.7032 H   0  0  0  0  0  0  0  0  0  0  0  0
    0.5308    2.8208   -1.0499 N   0  0  0  0  0  0  0  0  0  0  0  0
    0.8642    3.3338   -2.3592 C   0  0  2  0  0  0  0  0  0  0  0  0
    1.4250    4.7390   -2.1850 C   0  0  0  0  0  0  0  0  0  0  0  0
    1.1923    5.4367   -1.2001 O   0  0  0  0  0  0  0  0  0  0  0  0
   -0.3495    3.3426   -3.2756 C   0  0  0  0  0  0  0  0  0  0  0  0
    1.0401    3.1789   -0.2474 H   0  0  0  0  0  0  0  0  0  0  0  0
    1.6409    2.6779   -2.7674 H   0  0  0  0  0  0  0  0  0  0  0  0
   -1.1384    3.9944   -2.8829 H   0  0  0  0  0  0  0  0  0  0  0  0
   -0.0889    3.7046   -4.2756 H   0  0  0  0  0  0  0  0  0  0  0  0
   -0.7693    2.3359   -3.3760 H   0  0  0  0  0  0  0  0  0  0  0  0
    2.1805    5.1386   -3.2784 N   0  0  0  0  0  0  0  0  0  0  0  0
    2.8096    6.4362   -3.3591 C   0  0  0  0  0  0  0  0  0  0  0  0
    2.3367    4.4879   -4.0426 H   0  0  0  0  0  0  0  0  0  0  0  0
    2.1352    7.1402   -3.8686 H   0  0  0  0  0  0  0  0  0  0  0  0
    3.0240    6.8033   -2.3445 H   0  0  0  0  0  0  0  0  0  0  0  0
    3.7490    6.3536   -3.9253 H   0  0  0  0  0  0  0  0  0  0  0  0
  1  3  1  0  0  0  0
  1  7  1  0  0  0  0
  1  2  2  0  0  0  0
 37 38  1  0  0  0  0
 38 46  1  0  0  0  0
 38 39  2  0  0  0  0
  8  9  1  0  0  0  0
  9 17  1  0  0  0  0
  9 10  2  0  0  0  0
 18 19  1  0  0  0  0
 19 36  1  0  0  0  0
 19 20  2  0  0  0  0
 22 24  1  0  0  0  0
 37 40  1  0  0  0  0
  8 11  1  0  0  0  0
 21 23  1  0  0  0  0
 46 47  1  0  0  0  0
 21 22  1  0  0  0  0
 36 37  1  0  0  0  0
  7  8  1  0  0  0  0
 18 21  1  0  0  0  0
 17 18  1  0  0  0  0
  3  4  1  0  0  0  0
  3  5  1  0  0  0  0
  3  6  1  0  0  0  0
 24 33  1  0  0  0  0
 24 34  1  0  0  0  0
 24 35  1  0  0  0  0
 40 43  1  0  0  0  0
 40 44  1  0  0  0  0
 40 45  1  0  0  0  0
 11 14  1  0  0  0  0
 11 15  1  0  0  0  0
 11 16  1  0  0  0  0
 23 30  1  0  0  0  0
 23 31  1  0  0  0  0
 23 32  1  0  0  0  0
 47 49  1  0  0  0  0
 47 50  1  0  0  0  0
 47 51  1  0  0  0  0
 22 28  1  0  0  0  0
 22 29  1  0  0  0  0
 37 42  1  0  0  0  0
  8 13  1  0  0  0  0
 18 26  1  0  0  0  0
 21 27  1  0  0  0  0
 46 48  1  0  0  0  0
  7 12  1  0  0  0  0
 36 41  1  0  0  0  0
 17 25  1  0  0  0  0
M  END
$$$$

  -OEChem-05262214473D

 51 50  0     1  0  0  0  0  0999 V2000
    1.3524   -3.0009    1.4091 C   0  0  0  0  0  0  0  0  0  0  0  0
    1.8758   -1.9880    0.9598 O   0  0  0  0  0  0  0  0  0  0  0  0
    2.2030   -4.1782    1.7536 C   0  0  0  0  0  0  0  0  0  0  0  0
    2.3264   -4.8705    0.9053 H   0  0  0  0  0  0  0  0  0  0  0  0
    3.2257   -3.8876    2.0432 H   0  0  0  0  0  0  0  0  0  0  0  0
    1.8327   -4.8004    2.5839 H   0  0  0  0  0  0  0  0  0  0  0  0
    0.0005   -3.1873    1.6465 N   0  0  0  0  0  0  0  0  0  0  0  0
   -0.9949   -2.1807    1.3864 C   0  0  2  0  0  0  0  0  0  0  0  0
   -0.3083   -0.8216    1.4164 C   0  0  0  0  0  0  0  0  0  0  0  0
    0.7533   -0.6191    2.0022 O   0  0  0  0  0  0  0  0  0  0  0  0
   -2.1232   -2.2423    2.4042 C   0  0  0  0  0  0  0  0  0  0  0  0
   -0.3048   -4.0823    2.0245 H   0  0  0  0  0  0  0  0  0  0  0  0
   -1.3830   -2.3724    0.3801 H   0  0  0  0  0  0  0  0  0  0  0  0
   -1.7534   -2.0527    3.4185 H   0  0  0  0  0  0  0  0  0  0  0  0
   -2.8936   -1.4947    2.1882 H   0  0  0  0  0  0  0  0  0  0  0  0
   -2.5964   -3.2301    2.4022 H   0  0  0  0  0  0  0  0  0  0  0  0
   -1.0412    0.1517    0.7482 N   0  0  0  0  0  0  0  0  0  0  0  0
   -0.6079    1.5223    0.6467 C   0  0  2  0  0  0  0  0  0  0  0  0
   -0.4505    1.8636   -0.8344 C   0  0  0  0  0  0  0  0  0  0  0  0
   -1.2965    1.5774   -1.6792 O   0  0  0  0  0  0  0  0  0  0  0  0
    0.6761    1.8122    1.4610 C   0  0  2  0  0  0  0  0  0  0  0  0
    0.4666    1.6023    2.9771 C   0  0  0  0  0  0  0  0  0  0  0  0
    1.1908    3.2241    1.1509 C   0  0  0  0  0  0  0  0  0  0  0  0
    1.7630    1.6184    3.7769 C   0  0  0  0  0  0  0  0  0  0  0  0
   -1.9022   -0.1128    0.2753 H   0  0  0  0  0  0  0  0  0  0  0  0
   -1.4364    2.1283    1.0352 H   0  0  0  0  0  0  0  0  0  0  0  0
    1.4520    1.1084    1.1312 H   0  0  0  0  0  0  0  0  0  0  0  0
   -0.1772    2.3963    3.3724 H   0  0  0  0  0  0  0  0  0  0  0  0
   -0.0494    0.6530    3.1640 H   0  0  0  0  0  0  0  0  0  0  0  0
    0.4603    3.9807    1.4568 H   0  0  0  0  0  0  0  0  0  0  0  0
    2.1173    3.4360    1.6933 H   0  0  0  0  0  0  0  0  0  0  0  0
    1.3874    3.3541    0.0817 H   0  0  0  0  0  0  0  0  0  0  0  0
    2.4577    0.8464    3.4341 H   0  0  0  0  0  0  0  0  0  0  0  0
    1.5528    1.4254    4.8340 H   0  0  0  0  0  0  0  0  0  0  0  0
    2.2586    2.5915    3.7032 H   0  0  0  0  0  0  0  0  0  0  0  0
    0.7268    2.5518   -1.0911 N   0  0  0  0  0  0  0  0  0  0  0  0
    1.1069    3.0093   -2.4082 C   0  0  2  0  0  0  0  0  0  0  0  0
    2.0119    4.2228   -2.2416 C   0  0  0  0  0  0  0  0  0  0  0  0
    2.0162    4.9226   -1.2310 O   0  0  0  0  0  0  0  0  0  0  0  0
   -0.1135    3.3526   -3.2482 C   0  0  0  0  0  0  0  0  0  0  0  0
    1.3527    2.7435   -0.3144 H   0  0  0  0  0  0  0  0  0  0  0  0
    1.6702    2.1944   -2.8757 H   0  0  0  0  0  0  0  0  0  0  0  0
   -0.6905    4.1672   -2.7955 H   0  0  0  0  0  0  0  0  0  0  0  0
    0.1750    3.6718   -4.2551 H   0  0  0  0  0  0  0  0  0  0  0  0
   -0.7780    2.4869   -3.3421 H   0  0  0  0  0  0  0  0  0  0  0  0
    2.7830    4.4578   -3.3713 N   0  0  0  0  0  0  0  0  0  0  0  0
    3.7130    5.5589   -3.4652 C   0  0  0  0  0  0  0  0  0  0  0  0
    2.7286    3.8151   -4.1560 H   0  0  0  0  0  0  0  0  0  0  0  0
    3.2108    6.4260   -3.9189 H   0  0  0  0  0  0  0  0  0  0  0  0
    4.0678    5.8259   -2.4588 H   0  0  0  0  0  0  0  0  0  0  0  0
    4.5692    5.2633   -4.0894 H   0  0  0  0  0  0  0  0  0  0  0  0
  1  3  1  0  0  0  0
  1  7  1  0  0  0  0
  1  2  2  0  0  0  0
 37 38  1  0  0  0  0
 38 46  1  0  0  0  0
 38 39  2  0  0  0  0
  8  9  1  0  0  0  0
  9 17  1  0  0  0  0
  9 10  2  0  0  0  0
 18 19  1  0  0  0  0
 19 36  1  0  0  0  0
 19 20  2  0  0  0  0
 22 24  1  0  0  0  0
 37 40  1  0  0  0  0
  8 11  1  0  0  0  0
 21 23  1  0  0  0  0
 46 47  1  0  0  0  0
 21 22  1  0  0  0  0
 36 37  1  0  0  0  0
  7  8  1  0  0  0  0
 18 21  1  0  0  0  0
 17 18  1  0  0  0  0
  3  4  1  0  0  0  0
  3  5  1  0  0  0  0
  3  6  1  0  0  0  0
 24 33  1  0  0  0  0
 24 34  1  0  0  0  0
 24 35  1  0  0  0  0
 40 43  1  0  0  0  0
 40 44  1  0  0  0  0
 40 45  1  0  0  0  0
 11 14  1  0  0  0  0
 11 15  1  0  0  0  0
 11 16  1  0  0  0  0
 23 30  1  0  0  0  0
 23 31  1  0  0  0  0
 23 32  1  0  0  0  0
 47 49  1  0  0  0  0
 47 50  1  0  0  0  0
 47 51  1  0  0  0  0
 22 28  1  0  0  0  0
 22 29  1  0  0  0  0
 37 42  1  0  0  0  0
  8 13  1  0  0  0  0
 18 26  1  0  0  0  0
 21 27  1  0  0  0  0
 46 48  1  0  0  0  0
  7 12  1  0  0  0  0
 36 41  1  0  0  0  0
 17 25  1  0  0  0  0
M  END
$$$$

  -OEChem-05262214473D

 51 50  0     1  0  0  0  0  0999 V2000
    1.3524   -3.0009    1.4091 C   0  0  0  0  0  0  0  0  0  0  0  0
    1.8758   -1.9880    0.9598 O   0  0  0  0  0  0  0  0  0  0  0  0
    2.2030   -4.1782    1.7536 C   0  0  0  0  0  0  0  0  0  0  0  0
    2.3264   -4.8705    0.9053 H   0  0  0  0  0  0  0  0  0  0  0  0
    3.2257   -3.8876    2.0432 H   0  0  0  0  0  0  0  0  0  0  0  0
    1.8327   -4.8004    2.5839 H   0  0  0  0  0  0  0  0  0  0  0  0
    0.0005   -3.1873    1.6465 N   0  0  0  0  0  0  0  0  0  0  0  0
   -0.9949   -2.1807    1.3864 C   0  0  2  0  0  0  0  0  0  0  0  0
   -0.3083   -0.8216    1.4164 C   0  0  0  0  0  0  0  0  0  0  0  0
    0.7533   -0.6191    2.0022 O   0  0  0  0  0  0  0  0  0  0  0  0
   -2.1232   -2.2423    2.4042 C   0  0  0  0  0  0  0  0  0  0  0  0
   -0.3048   -4.0823    2.0245 H   0  0  0  0  0  0  0  0  0  0  0  0
   -1.3830   -2.3724    0.3801 H   0  0  0  0  0  0  0  0  0  0  0  0
   -1.7534   -2.0527    3.4185 H   0  0  0  0  0  0  0  0  0  0  0  0
   -2.8936   -1.4947    2.1882 H   0  0  0  0  0  0  0  0  0  0  0  0
   -2.5964   -3.2301    2.4022 H   0  0  0  0  0  0  0  0  0  0  0  0
   -1.0412    0.1517    0.7482 N   0  0  0  0  0  0  0  0  0  0  0  0
   -0.6079    1.5223    0.6467 C   0  0  2  0  0  0  0  0  0  0  0  0
   -0.4505    1.8636   -0.8344 C   0  0  0  0  0  0  0  0  0  0  0  0
   -1.3860    1.8270   -1.6312 O   0  0  0  0  0  0  0  0  0  0  0  0
    0.6761    1.8122    1.4610 C   0  0  2  0  0  0  0  0  0  0  0  0
    0.4666    1.6023    2.9771 C   0  0  0  0  0  0  0  0  0  0  0  0
    1.1908    3.2241    1.1509 C   0  0  0  0  0  0  0  0  0  0  0  0
    1.7630    1.6184    3.7769 C   0  0  0  0  0  0  0  0  0  0  0  0
   -1.9022   -0.1128    0.2753 H   0  0  0  0  0  0  0  0  0  0  0  0
   -1.4364    2.1283    1.0352 H   0  0  0  0  0  0  0  0  0  0  0  0
    1.4520    1.1084    1.1312 H   0  0  0  0  0  0  0  0  0  0  0  0
   -0.1772    2.3963    3.3724 H   0  0  0  0  0  0  0  0  0  0  0  0
   -0.0494    0.6530    3.1640 H   0  0  0  0  0  0  0  0  0  0  0  0
    0.4603    3.9807    1.4568 H   0  0  0  0  0  0  0  0  0  0  0  0
    2.1173    3.4360    1.6933 H   0  0  0  0  0  0  0  0  0  0  0  0
    1.3874    3.3541    0.0817 H   0  0  0  0  0  0  0  0  0  0  0  0
    2.4577    0.8464    3.4341 H   0  0  0  0  0  0  0  0  0  0  0  0
    1.5528    1.4254    4.8340 H   0  0  0  0  0  0  0  0  0  0  0  0
    2.2586    2.5915    3.7032 H   0  0  0  0  0  0  0  0  0  0  0  0
    0.8464    2.2438   -1.1493 N   0  0  0  0  0  0  0  0  0  0  0  0
    1.2571    2.6363   -2.4782 C   0  0  2  0  0  0  0  0  0  0  0  0
    2.4460    3.5786   -2.3439 C   0  0  0  0  0  0  0  0  0  0  0  0
    2.6813    4.2202   -1.3221 O   0  0  0  0  0  0  0  0  0  0  0  0
    0.1185    3.3023   -3.2351 C   0  0  0  0  0  0  0  0  0  0  0  0
    1.5417    2.2464   -0.4089 H   0  0  0  0  0  0  0  0  0  0  0  0
    1.5708    1.7228   -2.9950 H   0  0  0  0  0  0  0  0  0  0  0  0
   -0.2094    4.2194   -2.7323 H   0  0  0  0  0  0  0  0  0  0  0  0
    0.4228    3.5733   -4.2515 H   0  0  0  0  0  0  0  0  0  0  0  0
   -0.7466    2.6340   -3.3049 H   0  0  0  0  0  0  0  0  0  0  0  0
    3.1889    3.6515   -3.5139 N   0  0  0  0  0  0  0  0  0  0  0  0
    4.3594    4.4876   -3.6434 C   0  0  0  0  0  0  0  0  0  0  0  0
    2.9318    3.0700   -4.3061 H   0  0  0  0  0  0  0  0  0  0  0  0
    4.0677    5.4677   -4.0486 H   0  0  0  0  0  0  0  0  0  0  0  0
    4.8242    4.6229   -2.6556 H   0  0  0  0  0  0  0  0  0  0  0  0
    5.0784    4.0087   -4.3244 H   0  0  0  0  0  0  0  0  0  0  0  0
  1  3  1  0  0  0  0
  1  7  1  0  0  0  0
  1  2  2  0  0  0  0
 37 38  1  0  0  0  0
 38 46  1  0  0  0  0
 38 39  2  0  0  0  0
  8  9  1  0  0  0  0
  9 17  1  0  0  0  0
  9 10  2  0  0  0  0
 18 19  1  0  0  0  0
 19 36  1  0  0  0  0
 19 20  2  0  0  0  0
 22 24  1  0  0  0  0
 37 40  1  0  0  0  0
  8 11  1  0  0  0  0
 21 23  1  0  0  0  0
 46 47  1  0  0  0  0
 21 22  1  0  0  0  0
 36 37  1  0  0  0  0
  7  8  1  0  0  0  0
 18 21  1  0  0  0  0
 17 18  1  0  0  0  0
  3  4  1  0  0  0  0
  3  5  1  0  0  0  0
  3  6  1  0  0  0  0
 24 33  1  0  0  0  0
 24 34  1  0  0  0  0
 24 35  1  0  0  0  0
 40 43  1  0  0  0  0
 40 44  1  0  0  0  0
 40 45  1  0  0  0  0
 11 14  1  0  0  0  0
 11 15  1  0  0  0  0
 11 16  1  0  0  0  0
 23 30  1  0  0  0  0
 23 31  1  0  0  0  0
 23 32  1  0  0  0  0
 47 49  1  0  0  0  0
 47 50  1  0  0  0  0
 47 51  1  0  0  0  0
 22 28  1  0  0  0  0
 22 29  1  0  0  0  0
 37 42  1  0  0  0  0
  8 13  1  0  0  0  0
 18 26  1  0  0  0  0
 21 27  1  0  0  0  0
 46 48  1  0  0  0  0
  7 12  1  0  0  0  0
 36 41  1  0  0  0  0
 17 25  1  0  0  0  0
M  END
$$$$

  -OEChem-05262214473D

 51 50  0     1  0  0  0  0  0999 V2000
    1.3524   -3.0009    1.4091 C   0  0  0  0  0  0  0  0  0  0  0  0
    1.8758   -1.9880    0.9598 O   0  0  0  0  0  0  0  0  0  0  0  0
    2.2030   -4.1782    1.7536 C   0  0  0  0  0  0  0  0  0  0  0  0
    2.3264   -4.8705    0.9053 H   0  0  0  0  0  0  0  0  0  0  0  0
    3.2257   -3.8876    2.0432 H   0  0  0  0  0  0  0  0  0  0  0  0
    1.8327   -4.8004    2.5839 H   0  0  0  0  0  0  0  0  0  0  0  0
    0.0005   -3.1873    1.6465 N   0  0  0  0  0  0  0  0  0  0  0  0
   -0.9949   -2.1807    1.3864 C   0  0  2  0  0  0  0  0  0  0  0  0
   -0.3083   -0.8216    1.4164 C   0  0  0  0  0  0  0  0  0  0  0  0
    0.7533   -0.6191    2.0022 O   0  0  0  0  0  0  0  0  0  0  0  0
   -2.1232   -2.2423    2.4042 C   0  0  0  0  0  0  0  0  0  0  0  0
   -0.3048   -4.0823    2.0245 H   0  0  0  0  0  0  0  0  0  0  0  0
   -1.3830   -2.3724    0.3801 H   0  0  0  0  0  0  0  0  0  0  0  0
   -1.7534   -2.0527    3.4185 H   0  0  0  0  0  0  0  0  0  0  0  0
   -2.8936   -1.4947    2.1882 H   0  0  0  0  0  0  0  0  0  0  0  0
   -2.5964   -3.2301    2.4022 H   0  0  0  0  0  0  0  0  0  0  0  0
   -1.0412    0.1517    0.7482 N   0  0  0  0  0  0  0  0  0  0  0  0
   -0.6079    1.5223    0.6467 C   0  0  2  0  0  0  0  0  0  0  0  0
   -0.4505    1.8636   -0.8344 C   0  0  0  0  0  0  0  0  0  0  0  0
   -1.4070    2.0893   -1.5730 O   0  0  0  0  0  0  0  0  0  0  0  0
    0.6761    1.8122    1.4610 C   0  0  2  0  0  0  0  0  0  0  0  0
    0.4666    1.6023    2.9771 C   0  0  0  0  0  0  0  0  0  0  0  0
    1.1908    3.2241    1.1509 C   0  0  0  0  0  0  0  0  0  0  0  0
    1.7630    1.6184    3.7769 C   0  0  0  0  0  0  0  0  0  0  0  0
   -1.9022   -0.1128    0.2753 H   0  0  0  0  0  0  0  0  0  0  0  0
   -1.4364    2.1283    1.0352 H   0  0  0  0  0  0  0  0  0  0  0  0
    1.4520    1.1084    1.1312 H   0  0  0  0  0  0  0  0  0  0  0  0
   -0.1772    2.3963    3.3724 H   0  0  0  0  0  0  0  0  0  0  0  0
   -0.0494    0.6530    3.1640 H   0  0  0  0  0  0  0  0  0  0  0  0
    0.4603    3.9807    1.4568 H   0  0  0  0  0  0  0  0  0  0  0  0
    2.1173    3.4360    1.6933 H   0  0  0  0  0  0  0  0  0  0  0  0
    1.3874    3.3541    0.0817 H   0  0  0  0  0  0  0  0  0  0  0  0
    2.4577    0.8464    3.4341 H   0  0  0  0  0  0  0  0  0  0  0  0
    1.5528    1.4254    4.8340 H   0  0  0  0  0  0  0  0  0  0  0  0
    2.2586    2.5915    3.7032 H   0  0  0  0  0  0  0  0  0  0  0  0
    0.8812    1.9179   -1.2207 N   0  0  0  0  0  0  0  0  0  0  0  0
    1.3045    2.2402   -2.5644 C   0  0  2  0  0  0  0  0  0  0  0  0
    2.6978    2.8501   -2.4850 C   0  0  0  0  0  0  0  0  0  0  0  0
    3.1422    3.3773   -1.4674 O   0  0  0  0  0  0  0  0  0  0  0  0
    0.3308    3.1951   -3.2373 C   0  0  0  0  0  0  0  0  0  0  0  0
    1.5940    1.7213   -0.5244 H   0  0  0  0  0  0  0  0  0  0  0  0
    1.3497    1.2954   -3.1169 H   0  0  0  0  0  0  0  0  0  0  0  0
    0.2721    4.1474   -2.6977 H   0  0  0  0  0  0  0  0  0  0  0  0
    0.6377    3.4158   -4.2649 H   0  0  0  0  0  0  0  0  0  0  0  0
   -0.6771    2.7672   -3.2668 H   0  0  0  0  0  0  0  0  0  0  0  0
    3.3703    2.7747   -3.6967 N   0  0  0  0  0  0  0  0  0  0  0  0
    4.7048    3.2954   -3.8814 C   0  0  0  0  0  0  0  0  0  0  0  0
    2.9325    2.3032   -4.4827 H   0  0  0  0  0  0  0  0  0  0  0  0
    4.6475    4.3305   -4.2490 H   0  0  0  0  0  0  0  0  0  0  0  0
    5.2417    3.2765   -2.9215 H   0  0  0  0  0  0  0  0  0  0  0  0
    5.2419    2.6753   -4.6142 H   0  0  0  0  0  0  0  0  0  0  0  0
  1  3  1  0  0  0  0
  1  7  1  0  0  0  0
  1  2  2  0  0  0  0
 37 38  1  0  0  0  0
 38 46  1  0  0  0  0
 38 39  2  0  0  0  0
  8  9  1  0  0  0  0
  9 17  1  0  0  0  0
  9 10  2  0  0  0  0
 18 19  1  0  0  0  0
 19 36  1  0  0  0  0
 19 20  2  0  0  0  0
 22 24  1  0  0  0  0
 37 40  1  0  0  0  0
  8 11  1  0  0  0  0
 21 23  1  0  0  0  0
 46 47  1  0  0  0  0
 21 22  1  0  0  0  0
 36 37  1  0  0  0  0
  7  8  1  0  0  0  0
 18 21  1  0  0  0  0
 17 18  1  0  0  0  0
  3  4  1  0  0  0  0
  3  5  1  0  0  0  0
  3  6  1  0  0  0  0
 24 33  1  0  0  0  0
 24 34  1  0  0  0  0
 24 35  1  0  0  0  0
 40 43  1  0  0  0  0
 40 44  1  0  0  0  0
 40 45  1  0  0  0  0
 11 14  1  0  0  0  0
 11 15  1  0  0  0  0
 11 16  1  0  0  0  0
 23 30  1  0  0  0  0
 23 31  1  0  0  0  0
 23 32  1  0  0  0  0
 47 49  1  0  0  0  0
 47 50  1  0  0  0  0
 47 51  1  0  0  0  0
 22 28  1  0  0  0  0
 22 29  1  0  0  0  0
 37 42  1  0  0  0  0
  8 13  1  0  0  0  0
 18 26  1  0  0  0  0
 21 27  1  0  0  0  0
 46 48  1  0  0  0  0
  7 12  1  0  0  0  0
 36 41  1  0  0  0  0
 17 25  1  0  0  0  0
M  END
$$$$

  -OEChem-05262214473D

 51 50  0     1  0  0  0  0  0999 V2000
    1.3524   -3.0009    1.4091 C   0  0  0  0  0  0  0  0  0  0  0  0
    1.8758   -1.9880    0.9598 O   0  0  0  0  0  0  0  0  0  0  0  0
    2.2030   -4.1782    1.7536 C   0  0  0  0  0  0  0  0  0  0  0  0
    2.3264   -4.8705    0.9053 H   0  0  0  0  0  0  0  0  0  0  0  0
    3.2257   -3.8876    2.0432 H   0  0  0  0  0  0  0  0  0  0  0  0
    1.8327   -4.8004    2.5839 H   0  0  0  0  0  0  0  0  0  0  0  0
    0.0005   -3.1873    1.6465 N   0  0  0  0  0  0  0  0  0  0  0  0
   -0.9949   -2.1807    1.3864 C   0  0  2  0  0  0  0  0  0  0  0  0
   -0.3083   -0.8216    1.4164 C   0  0  0  0  0  0  0  0  0  0  0  0
    0.7533   -0.6191    2.0022 O   0  0  0  0  0  0  0  0  0  0  0  0
   -2.1232   -2.2423    2.4042 C   0  0  0  0  0  0  0  0  0  0  0  0
   -0.3048   -4.0823    2.0245 H   0  0  0  0  0  0  0  0  0  0  0  0
   -1.3830   -2.3724    0.3801 H   0  0  0  0  0  0  0  0  0  0  0  0
   -1.7534   -2.0527    3.4185 H   0  0  0  0  0  0  0  0  0  0  0  0
   -2.8936   -1.4947    2.1882 H   0  0  0  0  0  0  0  0  0  0  0  0
   -2.5964   -3.2301    2.4022 H   0  0  0  0  0  0  0  0  0  0  0  0
   -1.0412    0.1517    0.7482 N   0  0  0  0  0  0  0  0  0  0  0  0
   -0.6079    1.5223    0.6467 C   0  0  2  0  0  0  0  0  0  0  0  0
   -0.4505    1.8636   -0.8344 C   0  0  0  0  0  0  0  0  0  0  0  0
   -1.3582    2.3463   -1.5086 O   0  0  0  0  0  0  0  0  0  0  0  0
    0.6761    1.8122    1.4610 C   0  0  2  0  0  0  0  0  0  0  0  0
    0.4666    1.6023    2.9771 C   0  0  0  0  0  0  0  0  0  0  0  0
    1.1908    3.2241    1.1509 C   0  0  0  0  0  0  0  0  0  0  0  0
    1.7630    1.6184    3.7769 C   0  0  0  0  0  0  0  0  0  0  0  0
   -1.9022   -0.1128    0.2753 H   0  0  0  0  0  0  0  0  0  0  0  0
   -1.4364    2.1283    1.0352 H   0  0  0  0  0  0  0  0  0  0  0  0
    1.4520    1.1084    1.1312 H   0  0  0  0  0  0  0  0  0  0  0  0
   -0.1772    2.3963    3.3724 H   0  0  0  0  0  0  0  0  0  0  0  0
   -0.0494    0.6530    3.1640 H   0  0  0  0  0  0  0  0  0  0  0  0
    0.4603    3.9807    1.4568 H   0  0  0  0  0  0  0  0  0  0  0  0
    2.1173    3.4360    1.6933 H   0  0  0  0  0  0  0  0  0  0  0  0
    1.3874    3.3541    0.0817 H   0  0  0  0  0  0  0  0  0  0  0  0
    2.4577    0.8464    3.4341 H   0  0  0  0  0  0  0  0  0  0  0  0
    1.5528    1.4254    4.8340 H   0  0  0  0  0  0  0  0  0  0  0  0
    2.2586    2.5915    3.7032 H   0  0  0  0  0  0  0  0  0  0  0  0
    0.8289    1.5963   -1.3004 N   0  0  0  0  0  0  0  0  0  0  0  0
    1.2460    1.8480   -2.6610 C   0  0  2  0  0  0  0  0  0  0  0  0
    2.7501    2.0870   -2.6553 C   0  0  0  0  0  0  0  0  0  0  0  0
    3.3676    2.4514   -1.6568 O   0  0  0  0  0  0  0  0  0  0  0  0
    0.5088    3.0384   -3.2544 C   0  0  0  0  0  0  0  0  0  0  0  0
    1.5061    1.2041   -0.6529 H   0  0  0  0  0  0  0  0  0  0  0  0
    1.0219    0.9413   -3.2334 H   0  0  0  0  0  0  0  0  0  0  0  0
    0.7211    3.9562   -2.6941 H   0  0  0  0  0  0  0  0  0  0  0  0
    0.8050    3.2102   -4.2945 H   0  0  0  0  0  0  0  0  0  0  0  0
   -0.5744    2.8774   -3.2305 H   0  0  0  0  0  0  0  0  0  0  0  0
    3.3151    1.8872   -3.9071 N   0  0  0  0  0  0  0  0  0  0  0  0
    4.7255    2.0635   -4.1630 C   0  0  0  0  0  0  0  0  0  0  0  0
    2.7306    1.5672   -4.6737 H   0  0  0  0  0  0  0  0  0  0  0  0
    4.9106    3.0920   -4.5064 H   0  0  0  0  0  0  0  0  0  0  0  0
    5.2918    1.8783   -3.2384 H   0  0  0  0  0  0  0  0  0  0  0  0
    5.0487    1.3542   -4.9392 H   0  0  0  0  0  0  0  0  0  0  0  0
  1  3  1  0  0  0  0
  1  7  1  0  0  0  0
  1  2  2  0  0  0  0
 37 38  1  0  0  0  0
 38 46  1  0  0  0  0
 38 39  2  0  0  0  0
  8  9  1  0  0  0  0
  9 17  1  0  0  0  0
  9 10  2  0  0  0  0
 18 19  1  0  0  0  0
 19 36  1  0  0  0  0
 19 20  2  0  0  0  0
 22 24  1  0  0  0  0
 37 40  1  0  0  0  0
  8 11  1  0  0  0  0
 21 23  1  0  0  0  0
 46 47  1  0  0  0  0
 21 22  1  0  0  0  0
 36 37  1  0  0  0  0
  7  8  1  0  0  0  0
 18 21  1  0  0  0  0
 17 18  1  0  0  0  0
  3  4  1  0  0  0  0
  3  5  1  0  0  0  0
  3  6  1  0  0  0  0
 24 33  1  0  0  0  0
 24 34  1  0  0  0  0
 24 35  1  0  0  0  0
 40 43  1  0  0  0  0
 40 44  1  0  0  0  0
 40 45  1  0  0  0  0
 11 14  1  0  0  0  0
 11 15  1  0  0  0  0
 11 16  1  0  0  0  0
 23 30  1  0  0  0  0
 23 31  1  0  0  0  0
 23 32  1  0  0  0  0
 47 49  1  0  0  0  0
 47 50  1  0  0  0  0
 47 51  1  0  0  0  0
 22 28  1  0  0  0  0
 22 29  1  0  0  0  0
 37 42  1  0  0  0  0
  8 13  1  0  0  0  0
 18 26  1  0  0  0  0
 21 27  1  0  0  0  0
 46 48  1  0  0  0  0
  7 12  1  0  0  0  0
 36 41  1  0  0  0  0
 17 25  1  0  0  0  0
M  END
$$$$

  -OEChem-05262214473D

 51 50  0     1  0  0  0  0  0999 V2000
    1.3524   -3.0009    1.4091 C   0  0  0  0  0  0  0  0  0  0  0  0
    1.8758   -1.9880    0.9598 O   0  0  0  0  0  0  0  0  0  0  0  0
    2.2030   -4.1782    1.7536 C   0  0  0  0  0  0  0  0  0  0  0  0
    2.3264   -4.8705    0.9053 H   0  0  0  0  0  0  0  0  0  0  0  0
    3.2257   -3.8876    2.0432 H   0  0  0  0  0  0  0  0  0  0  0  0
    1.8327   -4.8004    2.5839 H   0  0  0  0  0  0  0  0  0  0  0  0
    0.0005   -3.1873    1.6465 N   0  0  0  0  0  0  0  0  0  0  0  0
   -0.9949   -2.1807    1.3864 C   0  0  2  0  0  0  0  0  0  0  0  0
   -0.3083   -0.8216    1.4164 C   0  0  0  0  0  0  0  0  0  0  0  0
    0.7533   -0.6191    2.0022 O   0  0  0  0  0  0  0  0  0  0  0  0
   -2.1232   -2.2423    2.4042 C   0  0  0  0  0  0  0  0  0  0  0  0
   -0.3048   -4.0823    2.0245 H   0  0  0  0  0  0  0  0  0  0  0  0
   -1.3830   -2.3724    0.3801 H   0  0  0  0  0  0  0  0  0  0  0  0
   -1.7534   -2.0527    3.4185 H   0  0  0  0  0  0  0  0  0  0  0  0
   -2.8936   -1.4947    2.1882 H   0  0  0  0  0  0  0  0  0  0  0  0
   -2.5964   -3.2301    2.4022 H   0  0  0  0  0  0  0  0  0  0  0  0
   -1.0412    0.1517    0.7482 N   0  0  0  0  0  0  0  0  0  0  0  0
   -0.6079    1.5223    0.6467 C   0  0  2  0  0  0  0  0  0  0  0  0
   -0.4505    1.8636   -0.8344 C   0  0  0  0  0  0  0  0  0  0  0  0
   -1.2428    2.5806   -1.4424 O   0  0  0  0  0  0  0  0  0  0  0  0
    0.6761    1.8122    1.4610 C   0  0  2  0  0  0  0  0  0  0  0  0
    0.4666    1.6023    2.9771 C   0  0  0  0  0  0  0  0  0  0  0  0
    1.1908    3.2241    1.1509 C   0  0  0  0  0  0  0  0  0  0  0  0
    1.7630    1.6184    3.7769 C   0  0  0  0  0  0  0  0  0  0  0  0
   -1.9022   -0.1128    0.2753 H   0  0  0  0  0  0  0  0  0  0  0  0
   -1.4364    2.1283    1.0352 H   0  0  0  0  0  0  0  0  0  0  0  0
    1.4520    1.1084    1.1312 H   0  0  0  0  0  0  0  0  0  0  0  0
   -0.1772    2.3963    3.3724 H   0  0  0  0  0  0  0  0  0  0  0  0
   -0.0494    0.6530    3.1640 H   0  0  0  0  0  0  0  0  0  0  0  0
    0.4603    3.9807    1.4568 H   0  0  0  0  0  0  0  0  0  0  0  0
    2.1173    3.4360    1.6933 H   0  0  0  0  0  0  0  0  0  0  0  0
    1.3874    3.3541    0.0817 H   0  0  0  0  0  0  0  0  0  0  0  0
    2.4577    0.8464    3.4341 H   0  0  0  0  0  0  0  0  0  0  0  0
    1.5528    1.4254    4.8340 H   0  0  0  0  0  0  0  0  0  0  0  0
    2.2586    2.5915    3.7032 H   0  0  0  0  0  0  0  0  0  0  0  0
    0.6932    1.3008   -1.3829 N   0  0  0  0  0  0  0  0  0  0  0  0
    1.0855    1.4865   -2.7614 C   0  0  2  0  0  0  0  0  0  0  0  0
    2.5994    1.3413   -2.8431 C   0  0  0  0  0  0  0  0  0  0  0  0
    3.3421    1.5055   -1.8774 O   0  0  0  0  0  0  0  0  0  0  0  0
    0.6404    2.8429   -3.2855 C   0  0  0  0  0  0  0  0  0  0  0  0
    1.2840    0.7299   -0.7857 H   0  0  0  0  0  0  0  0  0  0  0  0
    0.6096    0.6846   -3.3364 H   0  0  0  0  0  0  0  0  0  0  0  0
    1.1070    3.6588   -2.7216 H   0  0  0  0  0  0  0  0  0  0  0  0
    0.9133    2.9704   -4.3383 H   0  0  0  0  0  0  0  0  0  0  0  0
   -0.4455    2.9572   -3.1984 H   0  0  0  0  0  0  0  0  0  0  0  0
    3.0269    1.0493   -4.1308 N   0  0  0  0  0  0  0  0  0  0  0  0
    4.4202    0.8759   -4.4691 C   0  0  0  0  0  0  0  0  0  0  0  0
    2.3399    0.9119   -4.8663 H   0  0  0  0  0  0  0  0  0  0  0  0
    4.8392    1.8365   -4.8033 H   0  0  0  0  0  0  0  0  0  0  0  0
    4.9711    0.5236   -3.5846 H   0  0  0  0  0  0  0  0  0  0  0  0
    4.5118    0.1351   -5.2772 H   0  0  0  0  0  0  0  0  0  0  0  0
  1  3  1  0  0  0  0
  1  7  1  0  0  0  0
  1  2  2  0  0  0  0
 37 38  1  0  0  0  0
 38 46  1  0  0  0  0
 38 39  2  0  0  0  0
  8  9  1  0  0  0  0
  9 17  1  0  0  0  0
  9 10  2  0  0  0  0
 18 19  1  0  0  0  0
 19 36  1  0  0  0  0
 19 20  2  0  0  0  0
 22 24  1  0  0  0  0
 37 40  1  0  0  0  0
  8 11  1  0  0  0  0
 21 23  1  0  0  0  0
 46 47  1  0  0  0  0
 21 22  1  0  0  0  0
 36 37  1  0  0  0  0
  7  8  1  0  0  0  0
 18 21  1  0  0  0  0
 17 18  1  0  0  0  0
  3  4  1  0  0  0  0
  3  5  1  0  0  0  0
  3  6  1  0  0  0  0
 24 33  1  0  0  0  0
 24 34  1  0  0  0  0
 24 35  1  0  0  0  0
 40 43  1  0  0  0  0
 40 44  1  0  0  0  0
 40 45  1  0  0  0  0
 11 14  1  0  0  0  0
 11 15  1  0  0  0  0
 11 16  1  0  0  0  0
 23 30  1  0  0  0  0
 23 31  1  0  0  0  0
 23 32  1  0  0  0  0
 47 49  1  0  0  0  0
 47 50  1  0  0  0  0
 47 51  1  0  0  0  0
 22 28  1  0  0  0  0
 22 29  1  0  0  0  0
 37 42  1  0  0  0  0
  8 13  1  0  0  0  0
 18 26  1  0  0  0  0
 21 27  1  0  0  0  0
 46 48  1  0  0  0  0
  7 12  1  0  0  0  0
 36 41  1  0  0  0  0
 17 25  1  0  0  0  0
M  END
$$$$

  -OEChem-05262214473D

 51 50  0     1  0  0  0  0  0999 V2000
    1.3524   -3.0009    1.4091 C   0  0  0  0  0  0  0  0  0  0  0  0
    1.8758   -1.9880    0.9598 O   0  0  0  0  0  0  0  0  0  0  0  0
    2.2030   -4.1782    1.7536 C   0  0  0  0  0  0  0  0  0  0  0  0
    2.3264   -4.8705    0.9053 H   0  0  0  0  0  0  0  0  0  0  0  0
    3.2257   -3.8876    2.0432 H   0  0  0  0  0  0  0  0  0  0  0  0
    1.8327   -4.8004    2.5839 H   0  0  0  0  0  0  0  0  0  0  0  0
    0.0005   -3.1873    1.6465 N   0  0  0  0  0  0  0  0  0  0  0  0
   -0.9949   -2.1807    1.3864 C   0  0  2  0  0  0  0  0  0  0  0  0
   -0.3083   -0.8216    1.4164 C   0  0  0  0  0  0  0  0  0  0  0  0
    0.7533   -0.6191    2.0022 O   0  0  0  0  0  0  0  0  0  0  0  0
   -2.1232   -2.2423    2.4042 C   0  0  0  0  0  0  0  0  0  0  0  0
   -0.3048   -4.0823    2.0245 H   0  0  0  0  0  0  0  0  0  0  0  0
   -1.3830   -2.3724    0.3801 H   0  0  0  0  0  0  0  0  0  0  0  0
   -1.7534   -2.0527    3.4185 H   0  0  0  0  0  0  0  0  0  0  0  0
   -2.8936   -1.4947    2.1882 H   0  0  0  0  0  0  0  0  0  0  0  0
   -2.5964   -3.2301    2.4022 H   0  0  0  0  0  0  0  0  0  0  0  0
   -1.0412    0.1517    0.7482 N   0  0  0  0  0  0  0  0  0  0  0  0
   -0.6079    1.5223    0.6467 C   0  0  2  0  0  0  0  0  0  0  0  0
   -0.4505    1.8636   -0.8344 C   0  0  0  0  0  0  0  0  0  0  0  0
   -1.0687    2.7763   -1.3788 O   0  0  0  0  0  0  0  0  0  0  0  0
    0.6761    1.8122    1.4610 C   0  0  2  0  0  0  0  0  0  0  0  0
    0.4666    1.6023    2.9771 C   0  0  0  0  0  0  0  0  0  0  0  0
    1.1908    3.2241    1.1509 C   0  0  0  0  0  0  0  0  0  0  0  0
    1.7630    1.6184    3.7769 C   0  0  0  0  0  0  0  0  0  0  0  0
   -1.9022   -0.1128    0.2753 H   0  0  0  0  0  0  0  0  0  0  0  0
   -1.4364    2.1283    1.0352 H   0  0  0  0  0  0  0  0  0  0  0  0
    1.4520    1.1084    1.1312 H   0  0  0  0  0  0  0  0  0  0  0  0
   -0.1772    2.3963    3.3724 H   0  0  0  0  0  0  0  0  0  0  0  0
   -0.0494    0.6530    3.1640 H   0  0  0  0  0  0  0  0  0  0  0  0
    0.4603    3.9807    1.4568 H   0  0  0  0  0  0  0  0  0  0  0  0
    2.1173    3.4360    1.6933 H   0  0  0  0  0  0  0  0  0  0  0  0
    1.3874    3.3541    0.0817 H   0  0  0  0  0  0  0  0  0  0  0  0
    2.4577    0.8464    3.4341 H   0  0  0  0  0  0  0  0  0  0  0  0
    1.5528    1.4254    4.8340 H   0  0  0  0  0  0  0  0  0  0  0  0
    2.2586    2.5915    3.7032 H   0  0  0  0  0  0  0  0  0  0  0  0
    0.4831    1.0517   -1.4626 N   0  0  0  0  0  0  0  0  0  0  0  0
    0.8340    1.1801   -2.8587 C   0  0  2  0  0  0  0  0  0  0  0  0
    2.2558    0.6639   -3.0357 C   0  0  0  0  0  0  0  0  0  0  0  0
    3.0673    0.6041   -2.1143 O   0  0  0  0  0  0  0  0  0  0  0  0
    0.7167    2.6218   -3.3283 C   0  0  0  0  0  0  0  0  0  0  0  0
    0.9429    0.3312   -0.9139 H   0  0  0  0  0  0  0  0  0  0  0  0
    0.1410    0.5429   -3.4188 H   0  0  0  0  0  0  0  0  0  0  0  0
    1.4036    3.2754   -2.7784 H   0  0  0  0  0  0  0  0  0  0  0  0
    0.9552    2.7128   -4.3932 H   0  0  0  0  0  0  0  0  0  0  0  0
   -0.2991    3.0010   -3.1727 H   0  0  0  0  0  0  0  0  0  0  0  0
    2.5254    0.3182   -4.3525 N   0  0  0  0  0  0  0  0  0  0  0  0
    3.8097   -0.1865   -4.7788 C   0  0  0  0  0  0  0  0  0  0  0  0
    1.7870    0.3821   -5.0471 H   0  0  0  0  0  0  0  0  0  0  0  0
    4.4381    0.6496   -5.1195 H   0  0  0  0  0  0  0  0  0  0  0  0
    4.3015   -0.6953   -3.9367 H   0  0  0  0  0  0  0  0  0  0  0  0
    3.6678   -0.8986   -5.6051 H   0  0  0  0  0  0  0  0  0  0  0  0
  1  3  1  0  0  0  0
  1  7  1  0  0  0  0
  1  2  2  0  0  0  0
 37 38  1  0  0  0  0
 38 46  1  0  0  0  0
 38 39  2  0  0  0  0
  8  9  1  0  0  0  0
  9 17  1  0  0  0  0
  9 10  2  0  0  0  0
 18 19  1  0  0  0  0
 19 36  1  0  0  0  0
 19 20  2  0  0  0  0
 22 24  1  0  0  0  0
 37 40  1  0  0  0  0
  8 11  1  0  0  0  0
 21 23  1  0  0  0  0
 46 47  1  0  0  0  0
 21 22  1  0  0  0  0
 36 37  1  0  0  0  0
  7  8  1  0  0  0  0
 18 21  1  0  0  0  0
 17 18  1  0  0  0  0
  3  4  1  0  0  0  0
  3  5  1  0  0  0  0
  3  6  1  0  0  0  0
 24 33  1  0  0  0  0
 24 34  1  0  0  0  0
 24 35  1  0  0  0  0
 40 43  1  0  0  0  0
 40 44  1  0  0  0  0
 40 45  1  0  0  0  0
 11 14  1  0  0  0  0
 11 15  1  0  0  0  0
 11 16  1  0  0  0  0
 23 30  1  0  0  0  0
 23 31  1  0  0  0  0
 23 32  1  0  0  0  0
 47 49  1  0  0  0  0
 47 50  1  0  0  0  0
 47 51  1  0  0  0  0
 22 28  1  0  0  0  0
 22 29  1  0  0  0  0
 37 42  1  0  0  0  0
  8 13  1  0  0  0  0
 18 26  1  0  0  0  0
 21 27  1  0  0  0  0
 46 48  1  0  0  0  0
  7 12  1  0  0  0  0
 36 41  1  0  0  0  0
 17 25  1  0  0  0  0
M  END
$$$$

  -OEChem-05262214473D

 51 50  0     1  0  0  0  0  0999 V2000
    1.3524   -3.0009    1.4091 C   0  0  0  0  0  0  0  0  0  0  0  0
    1.8758   -1.9880    0.9598 O   0  0  0  0  0  0  0  0  0  0  0  0
    2.2030   -4.1782    1.7536 C   0  0  0  0  0  0  0  0  0  0  0  0
    2.3264   -4.8705    0.9053 H   0  0  0  0  0  0  0  0  0  0  0  0
    3.2257   -3.8876    2.0432 H   0  0  0  0  0  0  0  0  0  0  0  0
    1.8327   -4.8004    2.5839 H   0  0  0  0  0  0  0  0  0  0  0  0
    0.0005   -3.1873    1.6465 N   0  0  0  0  0  0  0  0  0  0  0  0
   -0.9949   -2.1807    1.3864 C   0  0  2  0  0  0  0  0  0  0  0  0
   -0.3083   -0.8216    1.4164 C   0  0  0  0  0  0  0  0  0  0  0  0
    0.7533   -0.6191    2.0022 O   0  0  0  0  0  0  0  0  0  0  0  0
   -2.1232   -2.2423    2.4042 C   0  0  0  0  0  0  0  0  0  0  0  0
   -0.3048   -4.0823    2.0245 H   0  0  0  0  0  0  0  0  0  0  0  0
   -1.3830   -2.3724    0.3801 H   0  0  0  0  0  0  0  0  0  0  0  0
   -1.7534   -2.0527    3.4185 H   0  0  0  0  0  0  0  0  0  0  0  0
   -2.8936   -1.4947    2.1882 H   0  0  0  0  0  0  0  0  0  0  0  0
   -2.5964   -3.2301    2.4022 H   0  0  0  0  0  0  0  0  0  0  0  0
   -1.0412    0.1517    0.7482 N   0  0  0  0  0  0  0  0  0  0  0  0
   -0.6079    1.5223    0.6467 C   0  0  2  0  0  0  0  0  0  0  0  0
   -0.4505    1.8636   -0.8344 C   0  0  0  0  0  0  0  0  0  0  0  0
   -0.8478    2.9199   -1.3222 O   0  0  0  0  0  0  0  0  0  0  0  0
    0.6761    1.8122    1.4610 C   0  0  2  0  0  0  0  0  0  0  0  0
    0.4666    1.6023    2.9771 C   0  0  0  0  0  0  0  0  0  0  0  0
    1.1908    3.2241    1.1509 C   0  0  0  0  0  0  0  0  0  0  0  0
    1.7630    1.6184    3.7769 C   0  0  0  0  0  0  0  0  0  0  0  0
   -1.9022   -0.1128    0.2753 H   0  0  0  0  0  0  0  0  0  0  0  0
   -1.4364    2.1283    1.0352 H   0  0  0  0  0  0  0  0  0  0  0  0
    1.4520    1.1084    1.1312 H   0  0  0  0  0  0  0  0  0  0  0  0
   -0.1772    2.3963    3.3724 H   0  0  0  0  0  0  0  0  0  0  0  0
   -0.0494    0.6530    3.1640 H   0  0  0  0  0  0  0  0  0  0  0  0
    0.4603    3.9807    1.4568 H   0  0  0  0  0  0  0  0  0  0  0  0
    2.1173    3.4360    1.6933 H   0  0  0  0  0  0  0  0  0  0  0  0
    1.3874    3.3541    0.0817 H   0  0  0  0  0  0  0  0  0  0  0  0
    2.4577    0.8464    3.4341 H   0  0  0  0  0  0  0  0  0  0  0  0
    1.5528    1.4254    4.8340 H   0  0  0  0  0  0  0  0  0  0  0  0
    2.2586    2.5915    3.7032 H   0  0  0  0  0  0  0  0  0  0  0  0
    0.2132    0.8659   -1.5341 N   0  0  0  0  0  0  0  0  0  0  0  0
    0.5085    0.9499   -2.9463 C   0  0  2  0  0  0  0  0  0  0  0  0
    1.7429    0.1009   -3.2200 C   0  0  0  0  0  0  0  0  0  0  0  0
    2.5622   -0.1913   -2.3513 O   0  0  0  0  0  0  0  0  0  0  0  0
    0.7325    2.3902   -3.3800 C   0  0  0  0  0  0  0  0  0  0  0  0
    0.5060    0.0351   -1.0286 H   0  0  0  0  0  0  0  0  0  0  0  0
   -0.3519    0.5257   -3.4752 H   0  0  0  0  0  0  0  0  0  0  0  0
    1.5906    2.8322   -2.8607 H   0  0  0  0  0  0  0  0  0  0  0  0
    0.9279    2.4549   -4.4555 H   0  0  0  0  0  0  0  0  0  0  0  0
   -0.1452    3.0059   -3.1553 H   0  0  0  0  0  0  0  0  0  0  0  0
    1.8447   -0.2562   -4.5572 N   0  0  0  0  0  0  0  0  0  0  0  0
    2.9356   -1.0512   -5.0710 C   0  0  0  0  0  0  0  0  0  0  0  0
    1.1095    0.0140   -5.2039 H   0  0  0  0  0  0  0  0  0  0  0  0
    3.7347   -0.3878   -5.4333 H   0  0  0  0  0  0  0  0  0  0  0  0
    3.3286   -1.6952   -4.2705 H   0  0  0  0  0  0  0  0  0  0  0  0
    2.5743   -1.6767   -5.9006 H   0  0  0  0  0  0  0  0  0  0  0  0
  1  3  1  0  0  0  0
  1  7  1  0  0  0  0
  1  2  2  0  0  0  0
 37 38  1  0  0  0  0
 38 46  1  0  0  0  0
 38 39  2  0  0  0  0
  8  9  1  0  0  0  0
  9 17  1  0  0  0  0
  9 10  2  0  0  0  0
 18 19  1  0  0  0  0
 19 36  1  0  0  0  0
 19 20  2  0  0  0  0
 22 24  1  0  0  0  0
 37 40  1  0  0  0  0
  8 11  1  0  0  0  0
 21 23  1  0  0  0  0
 46 47  1  0  0  0  0
 21 22  1  0  0  0  0
 36 37  1  0  0  0  0
  7  8  1  0  0  0  0
 18 21  1  0  0  0  0
 17 18  1  0  0  0  0
  3  4  1  0  0  0  0
  3  5  1  0  0  0  0
  3  6  1  0  0  0  0
 24 33  1  0  0  0  0
 24 34  1  0  0  0  0
 24 35  1  0  0  0  0
 40 43  1  0  0  0  0
 40 44  1  0  0  0  0
 40 45  1  0  0  0  0
 11 14  1  0  0  0  0
 11 15  1  0  0  0  0
 11 16  1  0  0  0  0
 23 30  1  0  0  0  0
 23 31  1  0  0  0  0
 23 32  1  0  0  0  0
 47 49  1  0  0  0  0
 47 50  1  0  0  0  0
 47 51  1  0  0  0  0
 22 28  1  0  0  0  0
 22 29  1  0  0  0  0
 37 42  1  0  0  0  0
  8 13  1  0  0  0  0
 18 26  1  0  0  0  0
 21 27  1  0  0  0  0
 46 48  1  0  0  0  0
  7 12  1  0  0  0  0
 36 41  1  0  0  0  0
 17 25  1  0  0  0  0
M  END
$$$$

  -OEChem-05262214473D

 51 50  0     1  0  0  0  0  0999 V2000
    1.3524   -3.0009    1.4091 C   0  0  0  0  0  0  0  0  0  0  0  0
    1.8758   -1.9880    0.9598 O   0  0  0  0  0  0  0  0  0  0  0  0
    2.2030   -4.1782    1.7536 C   0  0  0  0  0  0  0  0  0  0  0  0
    2.3264   -4.8705    0.9053 H   0  0  0  0  0  0  0  0  0  0  0  0
    3.2257   -3.8876    2.0432 H   0  0  0  0  0  0  0  0  0  0  0  0
    1.8327   -4.8004    2.5839 H   0  0  0  0  0  0  0  0  0  0  0  0
    0.0005   -3.1873    1.6465 N   0  0  0  0  0  0  0  0  0  0  0  0
   -0.9949   -2.1807    1.3864 C   0  0  2  0  0  0  0  0  0  0  0  0
   -0.3083   -0.8216    1.4164 C   0  0  0  0  0  0  0  0  0  0  0  0
    0.7533   -0.6191    2.0022 O   0  0  0  0  0  0  0  0  0  0  0  0
   -2.1232   -2.2423    2.4042 C   0  0  0  0  0  0  0  0  0  0  0  0
   -0.3048   -4.0823    2.0245 H   0  0  0  0  0  0  0  0  0  0  0  0
   -1.3830   -2.3724    0.3801 H   0  0  0  0  0  0  0  0  0  0  0  0
   -1.7534   -2.0527    3.4185 H   0  0  0  0  0  0  0  0  0  0  0  0
   -2.8936   -1.4947    2.1882 H   0  0  0  0  0  0  0  0  0  0  0  0
   -2.5964   -3.2301    2.4022 H   0  0  0  0  0  0  0  0  0  0  0  0
   -1.0412    0.1517    0.7482 N   0  0  0  0  0  0  0  0  0  0  0  0
   -0.6079    1.5223    0.6467 C   0  0  2  0  0  0  0  0  0  0  0  0
   -0.4505    1.8636   -0.8344 C   0  0  0  0  0  0  0  0  0  0  0  0
   -0.5952    3.0016   -1.2765 O   0  0  0  0  0  0  0  0  0  0  0  0
    0.6761    1.8122    1.4610 C   0  0  2  0  0  0  0  0  0  0  0  0
    0.4666    1.6023    2.9771 C   0  0  0  0  0  0  0  0  0  0  0  0
    1.1908    3.2241    1.1509 C   0  0  0  0  0  0  0  0  0  0  0  0
    1.7630    1.6184    3.7769 C   0  0  0  0  0  0  0  0  0  0  0  0
   -1.9022   -0.1128    0.2753 H   0  0  0  0  0  0  0  0  0  0  0  0
   -1.4364    2.1283    1.0352 H   0  0  0  0  0  0  0  0  0  0  0  0
    1.4520    1.1084    1.1312 H   0  0  0  0  0  0  0  0  0  0  0  0
   -0.1772    2.3963    3.3724 H   0  0  0  0  0  0  0  0  0  0  0  0
   -0.0494    0.6530    3.1640 H   0  0  0  0  0  0  0  0  0  0  0  0
    0.4603    3.9807    1.4568 H   0  0  0  0  0  0  0  0  0  0  0  0
    2.1173    3.4360    1.6933 H   0  0  0  0  0  0  0  0  0  0  0  0
    1.3874    3.3541    0.0817 H   0  0  0  0  0  0  0  0  0  0  0  0
    2.4577    0.8464    3.4341 H   0  0  0  0  0  0  0  0  0  0  0  0
    1.5528    1.4254    4.8340 H   0  0  0  0  0  0  0  0  0  0  0  0
    2.2586    2.5915    3.7032 H   0  0  0  0  0  0  0  0  0  0  0  0
   -0.0983    0.7560   -1.5926 N   0  0  0  0  0  0  0  0  0  0  0  0
    0.1314    0.8116   -3.0183 C   0  0  2  0  0  0  0  0  0  0  0  0
    1.0956   -0.3094   -3.3833 C   0  0  0  0  0  0  0  0  0  0  0  0
    1.8610   -0.8265   -2.5722 O   0  0  0  0  0  0  0  0  0  0  0  0
    0.6866    2.1640   -3.4370 C   0  0  0  0  0  0  0  0  0  0  0  0
    0.0030   -0.1383   -1.1220 H   0  0  0  0  0  0  0  0  0  0  0  0
   -0.8356    0.6342   -3.5016 H   0  0  0  0  0  0  0  0  0  0  0  0
    1.6553    2.3594   -2.9627 H   0  0  0  0  0  0  0  0  0  0  0  0
    0.8332    2.2144   -4.5210 H   0  0  0  0  0  0  0  0  0  0  0  0
    0.0057    2.9716   -3.1471 H   0  0  0  0  0  0  0  0  0  0  0  0
    1.0314   -0.6348   -4.7310 N   0  0  0  0  0  0  0  0  0  0  0  0
    1.8574   -1.6595   -5.3258 C   0  0  0  0  0  0  0  0  0  0  0  0
    0.3537   -0.1676   -5.3261 H   0  0  0  0  0  0  0  0  0  0  0  0
    2.7768   -1.2050   -5.7234 H   0  0  0  0  0  0  0  0  0  0  0  0
    2.1186   -2.4081   -4.5634 H   0  0  0  0  0  0  0  0  0  0  0  0
    1.3057   -2.1461   -6.1436 H   0  0  0  0  0  0  0  0  0  0  0  0
  1  3  1  0  0  0  0
  1  7  1  0  0  0  0
  1  2  2  0  0  0  0
 37 38  1  0  0  0  0
 38 46  1  0  0  0  0
 38 39  2  0  0  0  0
  8  9  1  0  0  0  0
  9 17  1  0  0  0  0
  9 10  2  0  0  0  0
 18 19  1  0  0  0  0
 19 36  1  0  0  0  0
 19 20  2  0  0  0  0
 22 24  1  0  0  0  0
 37 40  1  0  0  0  0
  8 11  1  0  0  0  0
 21 23  1  0  0  0  0
 46 47  1  0  0  0  0
 21 22  1  0  0  0  0
 36 37  1  0  0  0  0
  7  8  1  0  0  0  0
 18 21  1  0  0  0  0
 17 18  1  0  0  0  0
  3  4  1  0  0  0  0
  3  5  1  0  0  0  0
  3  6  1  0  0  0  0
 24 33  1  0  0  0  0
 24 34  1  0  0  0  0
 24 35  1  0  0  0  0
 40 43  1  0  0  0  0
 40 44  1  0  0  0  0
 40 45  1  0  0  0  0
 11 14  1  0  0  0  0
 11 15  1  0  0  0  0
 11 16  1  0  0  0  0
 23 30  1  0  0  0  0
 23 31  1  0  0  0  0
 23 32  1  0  0  0  0
 47 49  1  0  0  0  0
 47 50  1  0  0  0  0
 47 51  1  0  0  0  0
 22 28  1  0  0  0  0
 22 29  1  0  0  0  0
 37 42  1  0  0  0  0
  8 13  1  0  0  0  0
 18 26  1  0  0  0  0
 21 27  1  0  0  0  0
 46 48  1  0  0  0  0
  7 12  1  0  0  0  0
 36 41  1  0  0  0  0
 17 25  1  0  0  0  0
M  END
$$$$

  -OEChem-05262214473D

 51 50  0     1  0  0  0  0  0999 V2000
    1.3524   -3.0009    1.4091 C   0  0  0  0  0  0  0  0  0  0  0  0
    1.8758   -1.9880    0.9598 O   0  0  0  0  0  0  0  0  0  0  0  0
    2.2030   -4.1782    1.7536 C   0  0  0  0  0  0  0  0  0  0  0  0
    2.3264   -4.8705    0.9053 H   0  0  0  0  0  0  0  0  0  0  0  0
    3.2257   -3.8876    2.0432 H   0  0  0  0  0  0  0  0  0  0  0  0
    1.8327   -4.8004    2.5839 H   0  0  0  0  0  0  0  0  0  0  0  0
    0.0005   -3.1873    1.6465 N   0  0  0  0  0  0  0  0  0  0  0  0
   -0.9949   -2.1807    1.3864 C   0  0  2  0  0  0  0  0  0  0  0  0
   -0.3083   -0.8216    1.4164 C   0  0  0  0  0  0  0  0  0  0  0  0
    0.7533   -0.6191    2.0022 O   0  0  0  0  0  0  0  0  0  0  0  0
   -2.1232   -2.2423    2.4042 C   0  0  0  0  0  0  0  0  0  0  0  0
   -0.3048   -4.0823    2.0245 H   0  0  0  0  0  0  0  0  0  0  0  0
   -1.3830   -2.3724    0.3801 H   0  0  0  0  0  0  0  0  0  0  0  0
   -1.7534   -2.0527    3.4185 H   0  0  0  0  0  0  0  0  0  0  0  0
   -2.8936   -1.4947    2.1882 H   0  0  0  0  0  0  0  0  0  0  0  0
   -2.5964   -3.2301    2.4022 H   0  0  0  0  0  0  0  0  0  0  0  0
   -1.0412    0.1517    0.7482 N   0  0  0  0  0  0  0  0  0  0  0  0
   -0.6079    1.5223    0.6467 C   0  0  2  0  0  0  0  0  0  0  0  0
   -0.4505    1.8636   -0.8344 C   0  0  0  0  0  0  0  0  0  0  0  0
   -0.3280    3.0160   -1.2448 O   0  0  0  0  0  0  0  0  0  0  0  0
    0.6761    1.8122    1.4610 C   0  0  2  0  0  0  0  0  0  0  0  0
    0.4666    1.6023    2.9771 C   0  0  0  0  0  0  0  0  0  0  0  0
    1.1908    3.2241    1.1509 C   0  0  0  0  0  0  0  0  0  0  0  0
    1.7630    1.6184    3.7769 C   0  0  0  0  0  0  0  0  0  0  0  0
   -1.9022   -0.1128    0.2753 H   0  0  0  0  0  0  0  0  0  0  0  0
   -1.4364    2.1283    1.0352 H   0  0  0  0  0  0  0  0  0  0  0  0
    1.4520    1.1084    1.1312 H   0  0  0  0  0  0  0  0  0  0  0  0
   -0.1772    2.3963    3.3724 H   0  0  0  0  0  0  0  0  0  0  0  0
   -0.0494    0.6530    3.1640 H   0  0  0  0  0  0  0  0  0  0  0  0
    0.4603    3.9807    1.4568 H   0  0  0  0  0  0  0  0  0  0  0  0
    2.1173    3.4360    1.6933 H   0  0  0  0  0  0  0  0  0  0  0  0
    1.3874    3.3541    0.0817 H   0  0  0  0  0  0  0  0  0  0  0  0
    2.4577    0.8464    3.4341 H   0  0  0  0  0  0  0  0  0  0  0  0
    1.5528    1.4254    4.8340 H   0  0  0  0  0  0  0  0  0  0  0  0
    2.2586    2.5915    3.7032 H   0  0  0  0  0  0  0  0  0  0  0  0
   -0.4302    0.7296   -1.6339 N   0  0  0  0  0  0  0  0  0  0  0  0
   -0.2718    0.7745   -3.0697 C   0  0  2  0  0  0  0  0  0  0  0  0
    0.3579   -0.5389   -3.5146 C   0  0  0  0  0  0  0  0  0  0  0  0
    1.0115   -1.2583   -2.7620 O   0  0  0  0  0  0  0  0  0  0  0  0
    0.5823    1.9585   -3.4955 C   0  0  0  0  0  0  0  0  0  0  0  0
   -0.5317   -0.1771   -1.1877 H   0  0  0  0  0  0  0  0  0  0  0  0
   -1.2771    0.8611   -3.4962 H   0  0  0  0  0  0  0  0  0  0  0  0
    1.5933    1.8892   -3.0777 H   0  0  0  0  0  0  0  0  0  0  0  0
    0.6777    2.0075   -4.5852 H   0  0  0  0  0  0  0  0  0  0  0  0
    0.1433    2.9003   -3.1489 H   0  0  0  0  0  0  0  0  0  0  0  0
    0.1407   -0.7919   -4.8618 N   0  0  0  0  0  0  0  0  0  0  0  0
    0.6486   -1.9697   -5.5257 C   0  0  0  0  0  0  0  0  0  0  0  0
   -0.4289   -0.1500   -5.4052 H   0  0  0  0  0  0  0  0  0  0  0  0
    1.6298   -1.7463   -5.9700 H   0  0  0  0  0  0  0  0  0  0  0  0
    0.7542   -2.7854   -4.7953 H   0  0  0  0  0  0  0  0  0  0  0  0
   -0.0514   -2.2748   -6.3175 H   0  0  0  0  0  0  0  0  0  0  0  0
  1  3  1  0  0  0  0
  1  7  1  0  0  0  0
  1  2  2  0  0  0  0
 37 38  1  0  0  0  0
 38 46  1  0  0  0  0
 38 39  2  0  0  0  0
  8  9  1  0  0  0  0
  9 17  1  0  0  0  0
  9 10  2  0  0  0  0
 18 19  1  0  0  0  0
 19 36  1  0  0  0  0
 19 20  2  0  0  0  0
 22 24  1  0  0  0  0
 37 40  1  0  0  0  0
  8 11  1  0  0  0  0
 21 23  1  0  0  0  0
 46 47  1  0  0  0  0
 21 22  1  0  0  0  0
 36 37  1  0  0  0  0
  7  8  1  0  0  0  0
 18 21  1  0  0  0  0
 17 18  1  0  0  0  0
  3  4  1  0  0  0  0
  3  5  1  0  0  0  0
  3  6  1  0  0  0  0
 24 33  1  0  0  0  0
 24 34  1  0  0  0  0
 24 35  1  0  0  0  0
 40 43  1  0  0  0  0
 40 44  1  0  0  0  0
 40 45  1  0  0  0  0
 11 14  1  0  0  0  0
 11 15  1  0  0  0  0
 11 16  1  0  0  0  0
 23 30  1  0  0  0  0
 23 31  1  0  0  0  0
 23 32  1  0  0  0  0
 47 49  1  0  0  0  0
 47 50  1  0  0  0  0
 47 51  1  0  0  0  0
 22 28  1  0  0  0  0
 22 29  1  0  0  0  0
 37 42  1  0  0  0  0
  8 13  1  0  0  0  0
 18 26  1  0  0  0  0
 21 27  1  0  0  0  0
 46 48  1  0  0  0  0
  7 12  1  0  0  0  0
 36 41  1  0  0  0  0
 17 25  1  0  0  0  0
M  END
$$$$

  -OEChem-05262214473D

 51 50  0     1  0  0  0  0  0999 V2000
    1.3524   -3.0009    1.4091 C   0  0  0  0  0  0  0  0  0  0  0  0
    1.8758   -1.9880    0.9598 O   0  0  0  0  0  0  0  0  0  0  0  0
    2.2030   -4.1782    1.7536 C   0  0  0  0  0  0  0  0  0  0  0  0
    2.3264   -4.8705    0.9053 H   0  0  0  0  0  0  0  0  0  0  0  0
    3.2257   -3.8876    2.0432 H   0  0  0  0  0  0  0  0  0  0  0  0
    1.8327   -4.8004    2.5839 H   0  0  0  0  0  0  0  0  0  0  0  0
    0.0005   -3.1873    1.6465 N   0  0  0  0  0  0  0  0  0  0  0  0
   -0.9949   -2.1807    1.3864 C   0  0  2  0  0  0  0  0  0  0  0  0
   -0.3083   -0.8216    1.4164 C   0  0  0  0  0  0  0  0  0  0  0  0
    0.7533   -0.6191    2.0022 O   0  0  0  0  0  0  0  0  0  0  0  0
   -2.1232   -2.2423    2.4042 C   0  0  0  0  0  0  0  0  0  0  0  0
   -0.3048   -4.0823    2.0245 H   0  0  0  0  0  0  0  0  0  0  0  0
   -1.3830   -2.3724    0.3801 H   0  0  0  0  0  0  0  0  0  0  0  0
   -1.7534   -2.0527    3.4185 H   0  0  0  0  0  0  0  0  0  0  0  0
   -2.8936   -1.4947    2.1882 H   0  0  0  0  0  0  0  0  0  0  0  0
   -2.5964   -3.2301    2.4022 H   0  0  0  0  0  0  0  0  0  0  0  0
   -1.0412    0.1517    0.7482 N   0  0  0  0  0  0  0  0  0  0  0  0
   -0.6079    1.5223    0.6467 C   0  0  2  0  0  0  0  0  0  0  0  0
   -0.4505    1.8636   -0.8344 C   0  0  0  0  0  0  0  0  0  0  0  0
   -0.0644    2.9621   -1.2292 O   0  0  0  0  0  0  0  0  0  0  0  0
    0.6761    1.8122    1.4610 C   0  0  2  0  0  0  0  0  0  0  0  0
    0.4666    1.6023    2.9771 C   0  0  0  0  0  0  0  0  0  0  0  0
    1.1908    3.2241    1.1509 C   0  0  0  0  0  0  0  0  0  0  0  0
    1.7630    1.6184    3.7769 C   0  0  0  0  0  0  0  0  0  0  0  0
   -1.9022   -0.1128    0.2753 H   0  0  0  0  0  0  0  0  0  0  0  0
   -1.4364    2.1283    1.0352 H   0  0  0  0  0  0  0  0  0  0  0  0
    1.4520    1.1084    1.1312 H   0  0  0  0  0  0  0  0  0  0  0  0
   -0.1772    2.3963    3.3724 H   0  0  0  0  0  0  0  0  0  0  0  0
   -0.0494    0.6530    3.1640 H   0  0  0  0  0  0  0  0  0  0  0  0
    0.4603    3.9807    1.4568 H   0  0  0  0  0  0  0  0  0  0  0  0
    2.1173    3.4360    1.6933 H   0  0  0  0  0  0  0  0  0  0  0  0
    1.3874    3.3541    0.0817 H   0  0  0  0  0  0  0  0  0  0  0  0
    2.4577    0.8464    3.4341 H   0  0  0  0  0  0  0  0  0  0  0  0
    1.5528    1.4254    4.8340 H   0  0  0  0  0  0  0  0  0  0  0  0
    2.2586    2.5915    3.7032 H   0  0  0  0  0  0  0  0  0  0  0  0
   -0.7597    0.7885   -1.6554 N   0  0  0  0  0  0  0  0  0  0  0  0
   -0.6735    0.8411   -3.0970 C   0  0  2  0  0  0  0  0  0  0  0  0
   -0.4197   -0.5721   -3.6049 C   0  0  0  0  0  0  0  0  0  0  0  0
    0.0717   -1.4572   -2.9077 O   0  0  0  0  0  0  0  0  0  0  0  0
    0.4266    1.7877   -3.5514 C   0  0  0  0  0  0  0  0  0  0  0  0
   -1.0618   -0.0787   -1.2214 H   0  0  0  0  0  0  0  0  0  0  0  0
   -1.6463    1.1909   -3.4595 H   0  0  0  0  0  0  0  0  0  0  0  0
    1.4088    1.4536   -3.1977 H   0  0  0  0  0  0  0  0  0  0  0  0
    0.4718    1.8483   -4.6438 H   0  0  0  0  0  0  0  0  0  0  0  0
    0.2583    2.7970   -3.1605 H   0  0  0  0  0  0  0  0  0  0  0  0
   -0.7666   -0.7167   -4.9409 N   0  0  0  0  0  0  0  0  0  0  0  0
   -0.6083   -1.9608   -5.6573 C   0  0  0  0  0  0  0  0  0  0  0  0
   -1.1850    0.0654   -5.4360 H   0  0  0  0  0  0  0  0  0  0  0  0
    0.3718   -1.9749   -6.1564 H   0  0  0  0  0  0  0  0  0  0  0  0
   -0.6719   -2.8013   -4.9506 H   0  0  0  0  0  0  0  0  0  0  0  0
   -1.4046   -2.0539   -6.4104 H   0  0  0  0  0  0  0  0  0  0  0  0
  1  3  1  0  0  0  0
  1  7  1  0  0  0  0
  1  2  2  0  0  0  0
 37 38  1  0  0  0  0
 38 46  1  0  0  0  0
 38 39  2  0  0  0  0
  8  9  1  0  0  0  0
  9 17  1  0  0  0  0
  9 10  2  0  0  0  0
 18 19  1  0  0  0  0
 19 36  1  0  0  0  0
 19 20  2  0  0  0  0
 22 24  1  0  0  0  0
 37 40  1  0  0  0  0
  8 11  1  0  0  0  0
 21 23  1  0  0  0  0
 46 47  1  0  0  0  0
 21 22  1  0  0  0  0
 36 37  1  0  0  0  0
  7  8  1  0  0  0  0
 18 21  1  0  0  0  0
 17 18  1  0  0  0  0
  3  4  1  0  0  0  0
  3  5  1  0  0  0  0
  3  6  1  0  0  0  0
 24 33  1  0  0  0  0
 24 34  1  0  0  0  0
 24 35  1  0  0  0  0
 40 43  1  0  0  0  0
 40 44  1  0  0  0  0
 40 45  1  0  0  0  0
 11 14  1  0  0  0  0
 11 15  1  0  0  0  0
 11 16  1  0  0  0  0
 23 30  1  0  0  0  0
 23 31  1  0  0  0  0
 23 32  1  0  0  0  0
 47 49  1  0  0  0  0
 47 50  1  0  0  0  0
 47 51  1  0  0  0  0
 22 28  1  0  0  0  0
 22 29  1  0  0  0  0
 37 42  1  0  0  0  0
  8 13  1  0  0  0  0
 18 26  1  0  0  0  0
 21 27  1  0  0  0  0
 46 48  1  0  0  0  0
  7 12  1  0  0  0  0
 36 41  1  0  0  0  0
 17 25  1  0  0  0  0
M  END
$$$$

  -OEChem-05262214473D

 51 50  0     1  0  0  0  0  0999 V2000
    1.3524   -3.0009    1.4091 C   0  0  0  0  0  0  0  0  0  0  0  0
    1.8758   -1.9880    0.9598 O   0  0  0  0  0  0  0  0  0  0  0  0
    2.2030   -4.1782    1.7536 C   0  0  0  0  0  0  0  0  0  0  0  0
    2.3264   -4.8705    0.9053 H   0  0  0  0  0  0  0  0  0  0  0  0
    3.2257   -3.8876    2.0432 H   0  0  0  0  0  0  0  0  0  0  0  0
    1.8327   -4.8004    2.5839 H   0  0  0  0  0  0  0  0  0  0  0  0
    0.0005   -3.1873    1.6465 N   0  0  0  0  0  0  0  0  0  0  0  0
   -0.9949   -2.1807    1.3864 C   0  0  2  0  0  0  0  0  0  0  0  0
   -0.3083   -0.8216    1.4164 C   0  0  0  0  0  0  0  0  0  0  0  0
    0.7533   -0.6191    2.0022 O   0  0  0  0  0  0  0  0  0  0  0  0
   -2.1232   -2.2423    2.4042 C   0  0  0  0  0  0  0  0  0  0  0  0
   -0.3048   -4.0823    2.0245 H   0  0  0  0  0  0  0  0  0  0  0  0
   -1.3830   -2.3724    0.3801 H   0  0  0  0  0  0  0  0  0  0  0  0
   -1.7534   -2.0527    3.4185 H   0  0  0  0  0  0  0  0  0  0  0  0
   -2.8936   -1.4947    2.1882 H   0  0  0  0  0  0  0  0  0  0  0  0
   -2.5964   -3.2301    2.4022 H   0  0  0  0  0  0  0  0  0  0  0  0
   -1.0412    0.1517    0.7482 N   0  0  0  0  0  0  0  0  0  0  0  0
   -0.6079    1.5223    0.6467 C   0  0  2  0  0  0  0  0  0  0  0  0
   -0.4505    1.8636   -0.8344 C   0  0  0  0  0  0  0  0  0  0  0  0
    0.1775    2.8434   -1.2309 O   0  0  0  0  0  0  0  0  0  0  0  0
    0.6761    1.8122    1.4610 C   0  0  2  0  0  0  0  0  0  0  0  0
    0.4666    1.6023    2.9771 C   0  0  0  0  0  0  0  0  0  0  0  0
    1.1908    3.2241    1.1509 C   0  0  0  0  0  0  0  0  0  0  0  0
    1.7630    1.6184    3.7769 C   0  0  0  0  0  0  0  0  0  0  0  0
   -1.9022   -0.1128    0.2753 H   0  0  0  0  0  0  0  0  0  0  0  0
   -1.4364    2.1283    1.0352 H   0  0  0  0  0  0  0  0  0  0  0  0
    1.4520    1.1084    1.1312 H   0  0  0  0  0  0  0  0  0  0  0  0
   -0.1772    2.3963    3.3724 H   0  0  0  0  0  0  0  0  0  0  0  0
   -0.0494    0.6530    3.1640 H   0  0  0  0  0  0  0  0  0  0  0  0
    0.4603    3.9807    1.4568 H   0  0  0  0  0  0  0  0  0  0  0  0
    2.1173    3.4360    1.6933 H   0  0  0  0  0  0  0  0  0  0  0  0
    1.3874    3.3541    0.0817 H   0  0  0  0  0  0  0  0  0  0  0  0
    2.4577    0.8464    3.4341 H   0  0  0  0  0  0  0  0  0  0  0  0
    1.5528    1.4254    4.8340 H   0  0  0  0  0  0  0  0  0  0  0  0
    2.2586    2.5915    3.7032 H   0  0  0  0  0  0  0  0  0  0  0  0
   -1.0645    0.9286   -1.6555 N   0  0  0  0  0  0  0  0  0  0  0  0
   -1.0464    1.0070   -3.0984 C   0  0  2  0  0  0  0  0  0  0  0  0
   -1.1845   -0.4066   -3.6481 C   0  0  0  0  0  0  0  0  0  0  0  0
   -0.8944   -1.4097   -2.9995 O   0  0  0  0  0  0  0  0  0  0  0  0
    0.2301    1.6633   -3.6009 C   0  0  0  0  0  0  0  0  0  0  0  0
   -1.5510    0.1502   -1.2207 H   0  0  0  0  0  0  0  0  0  0  0  0
   -1.9181    1.6011   -3.3938 H   0  0  0  0  0  0  0  0  0  0  0  0
    1.1143    1.0824   -3.3145 H   0  0  0  0  0  0  0  0  0  0  0  0
    0.2296    1.7479   -4.6926 H   0  0  0  0  0  0  0  0  0  0  0  0
    0.3427    2.6688   -3.1811 H   0  0  0  0  0  0  0  0  0  0  0  0
   -1.6287   -0.4143   -4.9629 N   0  0  0  0  0  0  0  0  0  0  0  0
   -1.8278   -1.6333   -5.7114 C   0  0  0  0  0  0  0  0  0  0  0  0
   -1.8631    0.4639   -5.4162 H   0  0  0  0  0  0  0  0  0  0  0  0
   -0.9114   -1.8751   -6.2698 H   0  0  0  0  0  0  0  0  0  0  0  0
   -2.0623   -2.4548   -5.0185 H   0  0  0  0  0  0  0  0  0  0  0  0
   -2.6616   -1.4987   -6.4161 H   0  0  0  0  0  0  0  0  0  0  0  0
  1  3  1  0  0  0  0
  1  7  1  0  0  0  0
  1  2  2  0  0  0  0
 37 38  1  0  0  0  0
 38 46  1  0  0  0  0
 38 39  2  0  0  0  0
  8  9  1  0  0  0  0
  9 17  1  0  0  0  0
  9 10  2  0  0  0  0
 18 19  1  0  0  0  0
 19 36  1  0  0  0  0
 19 20  2  0  0  0  0
 22 24  1  0  0  0  0
 37 40  1  0  0  0  0
  8 11  1  0  0  0  0
 21 23  1  0  0  0  0
 46 47  1  0  0  0  0
 21 22  1  0  0  0  0
 36 37  1  0  0  0  0
  7  8  1  0  0  0  0
 18 21  1  0  0  0  0
 17 18  1  0  0  0  0
  3  4  1  0  0  0  0
  3  5  1  0  0  0  0
  3  6  1  0  0  0  0
 24 33  1  0  0  0  0
 24 34  1  0  0  0  0
 24 35  1  0  0  0  0
 40 43  1  0  0  0  0
 40 44  1  0  0  0  0
 40 45  1  0  0  0  0
 11 14  1  0  0  0  0
 11 15  1  0  0  0  0
 11 16  1  0  0  0  0
 23 30  1  0  0  0  0
 23 31  1  0  0  0  0
 23 32  1  0  0  0  0
 47 49  1  0  0  0  0
 47 50  1  0  0  0  0
 47 51  1  0  0  0  0
 22 28  1  0  0  0  0
 22 29  1  0  0  0  0
 37 42  1  0  0  0  0
  8 13  1  0  0  0  0
 18 26  1  0  0  0  0
 21 27  1  0  0  0  0
 46 48  1  0  0  0  0
  7 12  1  0  0  0  0
 36 41  1  0  0  0  0
 17 25  1  0  0  0  0
M  END
$$$$

  -OEChem-05262214473D

 51 50  0     1  0  0  0  0  0999 V2000
    1.3524   -3.0009    1.4091 C   0  0  0  0  0  0  0  0  0  0  0  0
    1.8758   -1.9880    0.9598 O   0  0  0  0  0  0  0  0  0  0  0  0
    2.2030   -4.1782    1.7536 C   0  0  0  0  0  0  0  0  0  0  0  0
    2.3264   -4.8705    0.9053 H   0  0  0  0  0  0  0  0  0  0  0  0
    3.2257   -3.8876    2.0432 H   0  0  0  0  0  0  0  0  0  0  0  0
    1.8327   -4.8004    2.5839 H   0  0  0  0  0  0  0  0  0  0  0  0
    0.0005   -3.1873    1.6465 N   0  0  0  0  0  0  0  0  0  0  0  0
   -0.9949   -2.1807    1.3864 C   0  0  2  0  0  0  0  0  0  0  0  0
   -0.3083   -0.8216    1.4164 C   0  0  0  0  0  0  0  0  0  0  0  0
    0.7533   -0.6191    2.0022 O   0  0  0  0  0  0  0  0  0  0  0  0
   -2.1232   -2.2423    2.4042 C   0  0  0  0  0  0  0  0  0  0  0  0
   -0.3048   -4.0823    2.0245 H   0  0  0  0  0  0  0  0  0  0  0  0
   -1.3830   -2.3724    0.3801 H   0  0  0  0  0  0  0  0  0  0  0  0
   -1.7534   -2.0527    3.4185 H   0  0  0  0  0  0  0  0  0  0  0  0
   -2.8936   -1.4947    2.1882 H   0  0  0  0  0  0  0  0  0  0  0  0
   -2.5964   -3.2301    2.4022 H   0  0  0  0  0  0  0  0  0  0  0  0
   -1.0412    0.1517    0.7482 N   0  0  0  0  0  0  0  0  0  0  0  0
   -0.6079    1.5223    0.6467 C   0  0  2  0  0  0  0  0  0  0  0  0
   -0.4505    1.8636   -0.8344 C   0  0  0  0  0  0  0  0  0  0  0  0
    0.3813    2.6681   -1.2496 O   0  0  0  0  0  0  0  0  0  0  0  0
    0.6761    1.8122    1.4610 C   0  0  2  0  0  0  0  0  0  0  0  0
    0.4666    1.6023    2.9771 C   0  0  0  0  0  0  0  0  0  0  0  0
    1.1908    3.2241    1.1509 C   0  0  0  0  0  0  0  0  0  0  0  0
    1.7630    1.6184    3.7769 C   0  0  0  0  0  0  0  0  0  0  0  0
   -1.9022   -0.1128    0.2753 H   0  0  0  0  0  0  0  0  0  0  0  0
   -1.4364    2.1283    1.0352 H   0  0  0  0  0  0  0  0  0  0  0  0
    1.4520    1.1084    1.1312 H   0  0  0  0  0  0  0  0  0  0  0  0
   -0.1772    2.3963    3.3724 H   0  0  0  0  0  0  0  0  0  0  0  0
   -0.0494    0.6530    3.1640 H   0  0  0  0  0  0  0  0  0  0  0  0
    0.4603    3.9807    1.4568 H   0  0  0  0  0  0  0  0  0  0  0  0
    2.1173    3.4360    1.6933 H   0  0  0  0  0  0  0  0  0  0  0  0
    1.3874    3.3541    0.0817 H   0  0  0  0  0  0  0  0  0  0  0  0
    2.4577    0.8464    3.4341 H   0  0  0  0  0  0  0  0  0  0  0  0
    1.5528    1.4254    4.8340 H   0  0  0  0  0  0  0  0  0  0  0  0
    2.2586    2.5915    3.7032 H   0  0  0  0  0  0  0  0  0  0  0  0
   -1.3238    1.1404   -1.6342 N   0  0  0  0  0  0  0  0  0  0  0  0
   -1.3651    1.2609   -3.0738 C   0  0  2  0  0  0  0  0  0  0  0  0
   -1.8841   -0.0538   -3.6411 C   0  0  0  0  0  0  0  0  0  0  0  0
   -1.8210   -1.1191   -3.0310 O   0  0  0  0  0  0  0  0  0  0  0  0
    0.0062    1.5938   -3.6407 C   0  0  0  0  0  0  0  0  0  0  0  0
   -1.9661    0.4940   -1.1855 H   0  0  0  0  0  0  0  0  0  0  0  0
   -2.0740    2.0638   -3.3038 H   0  0  0  0  0  0  0  0  0  0  0  0
    0.7300    0.8007   -3.4202 H   0  0  0  0  0  0  0  0  0  0  0  0
   -0.0324    1.7129   -4.7286 H   0  0  0  0  0  0  0  0  0  0  0  0
    0.3909    2.5242   -3.2093 H   0  0  0  0  0  0  0  0  0  0  0  0
   -2.3868    0.0947   -4.9262 N   0  0  0  0  0  0  0  0  0  0  0  0
   -2.9267   -1.0096   -5.6845 C   0  0  0  0  0  0  0  0  0  0  0  0
   -2.4170    1.0185   -5.3473 H   0  0  0  0  0  0  0  0  0  0  0  0
   -2.1324   -1.4538   -6.3025 H   0  0  0  0  0  0  0  0  0  0  0  0
   -3.3223   -1.7695   -4.9945 H   0  0  0  0  0  0  0  0  0  0  0  0
   -3.7369   -0.6469   -6.3341 H   0  0  0  0  0  0  0  0  0  0  0  0
  1  3  1  0  0  0  0
  1  7  1  0  0  0  0
  1  2  2  0  0  0  0
 37 38  1  0  0  0  0
 38 46  1  0  0  0  0
 38 39  2  0  0  0  0
  8  9  1  0  0  0  0
  9 17  1  0  0  0  0
  9 10  2  0  0  0  0
 18 19  1  0  0  0  0
 19 36  1  0  0  0  0
 19 20  2  0  0  0  0
 22 24  1  0  0  0  0
 37 40  1  0  0  0  0
  8 11  1  0  0  0  0
 21 23  1  0  0  0  0
 46 47  1  0  0  0  0
 21 22  1  0  0  0  0
 36 37  1  0  0  0  0
  7  8  1  0  0  0  0
 18 21  1  0  0  0  0
 17 18  1  0  0  0  0
  3  4  1  0  0  0  0
  3  5  1  0  0  0  0
  3  6  1  0  0  0  0
 24 33  1  0  0  0  0
 24 34  1  0  0  0  0
 24 35  1  0  0  0  0
 40 43  1  0  0  0  0
 40 44  1  0  0  0  0
 40 45  1  0  0  0  0
 11 14  1  0  0  0  0
 11 15  1  0  0  0  0
 11 16  1  0  0  0  0
 23 30  1  0  0  0  0
 23 31  1  0  0  0  0
 23 32  1  0  0  0  0
 47 49  1  0  0  0  0
 47 50  1  0  0  0  0
 47 51  1  0  0  0  0
 22 28  1  0  0  0  0
 22 29  1  0  0  0  0
 37 42  1  0  0  0  0
  8 13  1  0  0  0  0
 18 26  1  0  0  0  0
 21 27  1  0  0  0  0
 46 48  1  0  0  0  0
  7 12  1  0  0  0  0
 36 41  1  0  0  0  0
 17 25  1  0  0  0  0
M  END
$$$$

  -OEChem-05262214473D

 51 50  0     1  0  0  0  0  0999 V2000
    1.3524   -3.0009    1.4091 C   0  0  0  0  0  0  0  0  0  0  0  0
    1.8758   -1.9880    0.9598 O   0  0  0  0  0  0  0  0  0  0  0  0
    2.2030   -4.1782    1.7536 C   0  0  0  0  0  0  0  0  0  0  0  0
    2.3264   -4.8705    0.9053 H   0  0  0  0  0  0  0  0  0  0  0  0
    3.2257   -3.8876    2.0432 H   0  0  0  0  0  0  0  0  0  0  0  0
    1.8327   -4.8004    2.5839 H   0  0  0  0  0  0  0  0  0  0  0  0
    0.0005   -3.1873    1.6465 N   0  0  0  0  0  0  0  0  0  0  0  0
   -0.9949   -2.1807    1.3864 C   0  0  2  0  0  0  0  0  0  0  0  0
   -0.3083   -0.8216    1.4164 C   0  0  0  0  0  0  0  0  0  0  0  0
    0.7533   -0.6191    2.0022 O   0  0  0  0  0  0  0  0  0  0  0  0
   -2.1232   -2.2423    2.4042 C   0  0  0  0  0  0  0  0  0  0  0  0
   -0.3048   -4.0823    2.0245 H   0  0  0  0  0  0  0  0  0  0  0  0
   -1.3830   -2.3724    0.3801 H   0  0  0  0  0  0  0  0  0  0  0  0
   -1.7534   -2.0527    3.4185 H   0  0  0  0  0  0  0  0  0  0  0  0
   -2.8936   -1.4947    2.1882 H   0  0  0  0  0  0  0  0  0  0  0  0
   -2.5964   -3.2301    2.4022 H   0  0  0  0  0  0  0  0  0  0  0  0
   -1.0412    0.1517    0.7482 N   0  0  0  0  0  0  0  0  0  0  0  0
   -0.6079    1.5223    0.6467 C   0  0  2  0  0  0  0  0  0  0  0  0
   -0.4505    1.8636   -0.8344 C   0  0  0  0  0  0  0  0  0  0  0  0
    0.5332    2.4482   -1.2841 O   0  0  0  0  0  0  0  0  0  0  0  0
    0.6761    1.8122    1.4610 C   0  0  2  0  0  0  0  0  0  0  0  0
    0.4666    1.6023    2.9771 C   0  0  0  0  0  0  0  0  0  0  0  0
    1.1908    3.2241    1.1509 C   0  0  0  0  0  0  0  0  0  0  0  0
    1.7630    1.6184    3.7769 C   0  0  0  0  0  0  0  0  0  0  0  0
   -1.9022   -0.1128    0.2753 H   0  0  0  0  0  0  0  0  0  0  0  0
   -1.4364    2.1283    1.0352 H   0  0  0  0  0  0  0  0  0  0  0  0
    1.4520    1.1084    1.1312 H   0  0  0  0  0  0  0  0  0  0  0  0
   -0.1772    2.3963    3.3724 H   0  0  0  0  0  0  0  0  0  0  0  0
   -0.0494    0.6530    3.1640 H   0  0  0  0  0  0  0  0  0  0  0  0
    0.4603    3.9807    1.4568 H   0  0  0  0  0  0  0  0  0  0  0  0
    2.1173    3.4360    1.6933 H   0  0  0  0  0  0  0  0  0  0  0  0
    1.3874    3.3541    0.0817 H   0  0  0  0  0  0  0  0  0  0  0  0
    2.4577    0.8464    3.4341 H   0  0  0  0  0  0  0  0  0  0  0  0
    1.5528    1.4254    4.8340 H   0  0  0  0  0  0  0  0  0  0  0  0
    2.2586    2.5915    3.7032 H   0  0  0  0  0  0  0  0  0  0  0  0
   -1.5199    1.4094   -1.5931 N   0  0  0  0  0  0  0  0  0  0  0  0
   -1.6077    1.5853   -3.0248 C   0  0  2  0  0  0  0  0  0  0  0  0
   -2.4710    0.4624   -3.5846 C   0  0  0  0  0  0  0  0  0  0  0  0
   -2.6449   -0.6050   -3.0001 O   0  0  0  0  0  0  0  0  0  0  0  0
   -0.2297    1.5839   -3.6681 C   0  0  0  0  0  0  0  0  0  0  0  0
   -2.2788    0.9294   -1.1185 H   0  0  0  0  0  0  0  0  0  0  0  0
   -2.1032    2.5473   -3.1955 H   0  0  0  0  0  0  0  0  0  0  0  0
    0.2821    0.6279   -3.5077 H   0  0  0  0  0  0  0  0  0  0  0  0
   -0.2963    1.7458   -4.7490 H   0  0  0  0  0  0  0  0  0  0  0  0
    0.3996    2.3732   -3.2431 H   0  0  0  0  0  0  0  0  0  0  0  0
   -2.9893    0.7755   -4.8333 N   0  0  0  0  0  0  0  0  0  0  0  0
   -3.8301   -0.1323   -5.5784 C   0  0  0  0  0  0  0  0  0  0  0  0
   -2.8089    1.6913   -5.2339 H   0  0  0  0  0  0  0  0  0  0  0  0
   -3.2080   -0.7396   -6.2523 H   0  0  0  0  0  0  0  0  0  0  0  0
   -4.3661   -0.7920   -4.8802 H   0  0  0  0  0  0  0  0  0  0  0  0
   -4.5571    0.4435   -6.1700 H   0  0  0  0  0  0  0  0  0  0  0  0
  1  3  1  0  0  0  0
  1  7  1  0  0  0  0
  1  2  2  0  0  0  0
 37 38  1  0  0  0  0
 38 46  1  0  0  0  0
 38 39  2  0  0  0  0
  8  9  1  0  0  0  0
  9 17  1  0  0  0  0
  9 10  2  0  0  0  0
 18 19  1  0  0  0  0
 19 36  1  0  0  0  0
 19 20  2  0  0  0  0
 22 24  1  0  0  0  0
 37 40  1  0  0  0  0
  8 11  1  0  0  0  0
 21 23  1  0  0  0  0
 46 47  1  0  0  0  0
 21 22  1  0  0  0  0
 36 37  1  0  0  0  0
  7  8  1  0  0  0  0
 18 21  1  0  0  0  0
 17 18  1  0  0  0  0
  3  4  1  0  0  0  0
  3  5  1  0  0  0  0
  3  6  1  0  0  0  0
 24 33  1  0  0  0  0
 24 34  1  0  0  0  0
 24 35  1  0  0  0  0
 40 43  1  0  0  0  0
 40 44  1  0  0  0  0
 40 45  1  0  0  0  0
 11 14  1  0  0  0  0
 11 15  1  0  0  0  0
 11 16  1  0  0  0  0
 23 30  1  0  0  0  0
 23 31  1  0  0  0  0
 23 32  1  0  0  0  0
 47 49  1  0  0  0  0
 47 50  1  0  0  0  0
 47 51  1  0  0  0  0
 22 28  1  0  0  0  0
 22 29  1  0  0  0  0
 37 42  1  0  0  0  0
  8 13  1  0  0  0  0
 18 26  1  0  0  0  0
 21 27  1  0  0  0  0
 46 48  1  0  0  0  0
  7 12  1  0  0  0  0
 36 41  1  0  0  0  0
 17 25  1  0  0  0  0
M  END
$$$$

  -OEChem-05262214473D

 51 50  0     1  0  0  0  0  0999 V2000
    1.3524   -3.0009    1.4091 C   0  0  0  0  0  0  0  0  0  0  0  0
    1.8758   -1.9880    0.9598 O   0  0  0  0  0  0  0  0  0  0  0  0
    2.2030   -4.1782    1.7536 C   0  0  0  0  0  0  0  0  0  0  0  0
    2.3264   -4.8705    0.9053 H   0  0  0  0  0  0  0  0  0  0  0  0
    3.2257   -3.8876    2.0432 H   0  0  0  0  0  0  0  0  0  0  0  0
    1.8327   -4.8004    2.5839 H   0  0  0  0  0  0  0  0  0  0  0  0
    0.0005   -3.1873    1.6465 N   0  0  0  0  0  0  0  0  0  0  0  0
   -0.9949   -2.1807    1.3864 C   0  0  2  0  0  0  0  0  0  0  0  0
   -0.3083   -0.8216    1.4164 C   0  0  0  0  0  0  0  0  0  0  0  0
    0.7533   -0.6191    2.0022 O   0  0  0  0  0  0  0  0  0  0  0  0
   -2.1232   -2.2423    2.4042 C   0  0  0  0  0  0  0  0  0  0  0  0
   -0.3048   -4.0823    2.0245 H   0  0  0  0  0  0  0  0  0  0  0  0
   -1.3830   -2.3724    0.3801 H   0  0  0  0  0  0  0  0  0  0  0  0
   -1.7534   -2.0527    3.4185 H   0  0  0  0  0  0  0  0  0  0  0  0
   -2.8936   -1.4947    2.1882 H   0  0  0  0  0  0  0  0  0  0  0  0
   -2.5964   -3.2301    2.4022 H   0  0  0  0  0  0  0  0  0  0  0  0
   -1.0412    0.1517    0.7482 N   0  0  0  0  0  0  0  0  0  0  0  0
   -0.6079    1.5223    0.6467 C   0  0  2  0  0  0  0  0  0  0  0  0
   -0.4505    1.8636   -0.8344 C   0  0  0  0  0  0  0  0  0  0  0  0
    0.6226    2.1986   -1.3321 O   0  0  0  0  0  0  0  0  0  0  0  0
    0.6761    1.8122    1.4610 C   0  0  2  0  0  0  0  0  0  0  0  0
    0.4666    1.6023    2.9771 C   0  0  0  0  0  0  0  0  0  0  0  0
    1.1908    3.2241    1.1509 C   0  0  0  0  0  0  0  0  0  0  0  0
    1.7630    1.6184    3.7769 C   0  0  0  0  0  0  0  0  0  0  0  0
   -1.9022   -0.1128    0.2753 H   0  0  0  0  0  0  0  0  0  0  0  0
   -1.4364    2.1283    1.0352 H   0  0  0  0  0  0  0  0  0  0  0  0
    1.4520    1.1084    1.1312 H   0  0  0  0  0  0  0  0  0  0  0  0
   -0.1772    2.3963    3.3724 H   0  0  0  0  0  0  0  0  0  0  0  0
   -0.0494    0.6530    3.1640 H   0  0  0  0  0  0  0  0  0  0  0  0
    0.4603    3.9807    1.4568 H   0  0  0  0  0  0  0  0  0  0  0  0
    2.1173    3.4360    1.6933 H   0  0  0  0  0  0  0  0  0  0  0  0
    1.3874    3.3541    0.0817 H   0  0  0  0  0  0  0  0  0  0  0  0
    2.4577    0.8464    3.4341 H   0  0  0  0  0  0  0  0  0  0  0  0
    1.5528    1.4254    4.8340 H   0  0  0  0  0  0  0  0  0  0  0  0
    2.2586    2.5915    3.7032 H   0  0  0  0  0  0  0  0  0  0  0  0
   -1.6394    1.7174   -1.5348 N   0  0  0  0  0  0  0  0  0  0  0  0
   -1.7579    1.9583   -2.9549 C   0  0  2  0  0  0  0  0  0  0  0  0
   -2.9051    1.1067   -3.4822 C   0  0  0  0  0  0  0  0  0  0  0  0
   -3.3100    0.0974   -2.9089 O   0  0  0  0  0  0  0  0  0  0  0  0
   -0.4617    1.6342   -3.6812 C   0  0  0  0  0  0  0  0  0  0  0  0
   -2.4677    1.4265   -1.0240 H   0  0  0  0  0  0  0  0  0  0  0  0
   -2.0039    3.0189   -3.0763 H   0  0  0  0  0  0  0  0  0  0  0  0
   -0.1990    0.5757   -3.5708 H   0  0  0  0  0  0  0  0  0  0  0  0
   -0.5441    1.8443   -4.7527 H   0  0  0  0  0  0  0  0  0  0  0  0
    0.3681    2.2261   -3.2804 H   0  0  0  0  0  0  0  0  0  0  0  0
   -3.3951    1.5817   -4.6907 N   0  0  0  0  0  0  0  0  0  0  0  0
   -4.4766    0.9390   -5.4002 C   0  0  0  0  0  0  0  0  0  0  0  0
   -3.0121    2.4364   -5.0838 H   0  0  0  0  0  0  0  0  0  0  0  0
   -4.0649    0.2187   -6.1225 H   0  0  0  0  0  0  0  0  0  0  0  0
   -5.1225    0.4109   -4.6834 H   0  0  0  0  0  0  0  0  0  0  0  0
   -5.0663    1.6981   -5.9351 H   0  0  0  0  0  0  0  0  0  0  0  0
  1  3  1  0  0  0  0
  1  7  1  0  0  0  0
  1  2  2  0  0  0  0
 37 38  1  0  0  0  0
 38 46  1  0  0  0  0
 38 39  2  0  0  0  0
  8  9  1  0  0  0  0
  9 17  1  0  0  0  0
  9 10  2  0  0  0  0
 18 19  1  0  0  0  0
 19 36  1  0  0  0  0
 19 20  2  0  0  0  0
 22 24  1  0  0  0  0
 37 40  1  0  0  0  0
  8 11  1  0  0  0  0
 21 23  1  0  0  0  0
 46 47  1  0  0  0  0
 21 22  1  0  0  0  0
 36 37  1  0  0  0  0
  7  8  1  0  0  0  0
 18 21  1  0  0  0  0
 17 18  1  0  0  0  0
  3  4  1  0  0  0  0
  3  5  1  0  0  0  0
  3  6  1  0  0  0  0
 24 33  1  0  0  0  0
 24 34  1  0  0  0  0
 24 35  1  0  0  0  0
 40 43  1  0  0  0  0
 40 44  1  0  0  0  0
 40 45  1  0  0  0  0
 11 14  1  0  0  0  0
 11 15  1  0  0  0  0
 11 16  1  0  0  0  0
 23 30  1  0  0  0  0
 23 31  1  0  0  0  0
 23 32  1  0  0  0  0
 47 49  1  0  0  0  0
 47 50  1  0  0  0  0
 47 51  1  0  0  0  0
 22 28  1  0  0  0  0
 22 29  1  0  0  0  0
 37 42  1  0  0  0  0
  8 13  1  0  0  0  0
 18 26  1  0  0  0  0
 21 27  1  0  0  0  0
 46 48  1  0  0  0  0
  7 12  1  0  0  0  0
 36 41  1  0  0  0  0
 17 25  1  0  0  0  0
M  END
$$$$

  -OEChem-05262214473D

 51 50  0     1  0  0  0  0  0999 V2000
    1.3524   -3.0009    1.4091 C   0  0  0  0  0  0  0  0  0  0  0  0
    1.8758   -1.9880    0.9598 O   0  0  0  0  0  0  0  0  0  0  0  0
    2.2030   -4.1782    1.7536 C   0  0  0  0  0  0  0  0  0  0  0  0
    2.3264   -4.8705    0.9053 H   0  0  0  0  0  0  0  0  0  0  0  0
    3.2257   -3.8876    2.0432 H   0  0  0  0  0  0  0  0  0  0  0  0
    1.8327   -4.8004    2.5839 H   0  0  0  0  0  0  0  0  0  0  0  0
    0.0005   -3.1873    1.6465 N   0  0  0  0  0  0  0  0  0  0  0  0
   -0.9949   -2.1807    1.3864 C   0  0  2  0  0  0  0  0  0  0  0  0
   -0.3083   -0.8216    1.4164 C   0  0  0  0  0  0  0  0  0  0  0  0
    0.7533   -0.6191    2.0022 O   0  0  0  0  0  0  0  0  0  0  0  0
   -2.1232   -2.2423    2.4042 C   0  0  0  0  0  0  0  0  0  0  0  0
   -0.3048   -4.0823    2.0245 H   0  0  0  0  0  0  0  0  0  0  0  0
   -1.3830   -2.3724    0.3801 H   0  0  0  0  0  0  0  0  0  0  0  0
   -1.7534   -2.0527    3.4185 H   0  0  0  0  0  0  0  0  0  0  0  0
   -2.8936   -1.4947    2.1882 H   0  0  0  0  0  0  0  0  0  0  0  0
   -2.5964   -3.2301    2.4022 H   0  0  0  0  0  0  0  0  0  0  0  0
   -1.0412    0.1517    0.7482 N   0  0  0  0  0  0  0  0  0  0  0  0
   -0.6079    1.5223    0.6467 C   0  0  2  0  0  0  0  0  0  0  0  0
   -0.4505    1.8636   -0.8344 C   0  0  0  0  0  0  0  0  0  0  0  0
    0.6437    1.9363   -1.3903 O   0  0  0  0  0  0  0  0  0  0  0  0
    0.6761    1.8122    1.4610 C   0  0  2  0  0  0  0  0  0  0  0  0
    0.4666    1.6023    2.9771 C   0  0  0  0  0  0  0  0  0  0  0  0
    1.1908    3.2241    1.1509 C   0  0  0  0  0  0  0  0  0  0  0  0
    1.7630    1.6184    3.7769 C   0  0  0  0  0  0  0  0  0  0  0  0
   -1.9022   -0.1128    0.2753 H   0  0  0  0  0  0  0  0  0  0  0  0
   -1.4364    2.1283    1.0352 H   0  0  0  0  0  0  0  0  0  0  0  0
    1.4520    1.1084    1.1312 H   0  0  0  0  0  0  0  0  0  0  0  0
   -0.1772    2.3963    3.3724 H   0  0  0  0  0  0  0  0  0  0  0  0
   -0.0494    0.6530    3.1640 H   0  0  0  0  0  0  0  0  0  0  0  0
    0.4603    3.9807    1.4568 H   0  0  0  0  0  0  0  0  0  0  0  0
    2.1173    3.4360    1.6933 H   0  0  0  0  0  0  0  0  0  0  0  0
    1.3874    3.3541    0.0817 H   0  0  0  0  0  0  0  0  0  0  0  0
    2.4577    0.8464    3.4341 H   0  0  0  0  0  0  0  0  0  0  0  0
    1.5528    1.4254    4.8340 H   0  0  0  0  0  0  0  0  0  0  0  0
    2.2586    2.5915    3.7032 H   0  0  0  0  0  0  0  0  0  0  0  0
   -1.6742    2.0433   -1.4634 N   0  0  0  0  0  0  0  0  0  0  0  0
   -1.8054    2.3544   -2.8686 C   0  0  2  0  0  0  0  0  0  0  0  0
   -3.1569    1.8352   -3.3411 C   0  0  0  0  0  0  0  0  0  0  0  0
   -3.7709    0.9404   -2.7637 O   0  0  0  0  0  0  0  0  0  0  0  0
   -0.6740    1.7413   -3.6790 C   0  0  0  0  0  0  0  0  0  0  0  0
   -2.5200    1.9516   -0.9086 H   0  0  0  0  0  0  0  0  0  0  0  0
   -1.7828    3.4463   -2.9543 H   0  0  0  0  0  0  0  0  0  0  0  0
   -0.6805    0.6477   -3.6054 H   0  0  0  0  0  0  0  0  0  0  0  0
   -0.7590    2.0017   -4.7392 H   0  0  0  0  0  0  0  0  0  0  0  0
    0.2987    2.0929   -3.3184 H   0  0  0  0  0  0  0  0  0  0  0  0
   -3.5766    2.4586   -4.5079 N   0  0  0  0  0  0  0  0  0  0  0  0
   -4.8219    2.1313   -5.1622 C   0  0  0  0  0  0  0  0  0  0  0  0
   -3.0128    3.2032   -4.9072 H   0  0  0  0  0  0  0  0  0  0  0  0
   -4.6447    1.3559   -5.9221 H   0  0  0  0  0  0  0  0  0  0  0  0
   -5.5400    1.7573   -4.4175 H   0  0  0  0  0  0  0  0  0  0  0  0
   -5.2298    3.0314   -5.6452 H   0  0  0  0  0  0  0  0  0  0  0  0
  1  3  1  0  0  0  0
  1  7  1  0  0  0  0
  1  2  2  0  0  0  0
 37 38  1  0  0  0  0
 38 46  1  0  0  0  0
 38 39  2  0  0  0  0
  8  9  1  0  0  0  0
  9 17  1  0  0  0  0
  9 10  2  0  0  0  0
 18 19  1  0  0  0  0
 19 36  1  0  0  0  0
 19 20  2  0  0  0  0
 22 24  1  0  0  0  0
 37 40  1  0  0  0  0
  8 11  1  0  0  0  0
 21 23  1  0  0  0  0
 46 47  1  0  0  0  0
 21 22  1  0  0  0  0
 36 37  1  0  0  0  0
  7  8  1  0  0  0  0
 18 21  1  0  0  0  0
 17 18  1  0  0  0  0
  3  4  1  0  0  0  0
  3  5  1  0  0  0  0
  3  6  1  0  0  0  0
 24 33  1  0  0  0  0
 24 34  1  0  0  0  0
 24 35  1  0  0  0  0
 40 43  1  0  0  0  0
 40 44  1  0  0  0  0
 40 45  1  0  0  0  0
 11 14  1  0  0  0  0
 11 15  1  0  0  0  0
 11 16  1  0  0  0  0
 23 30  1  0  0  0  0
 23 31  1  0  0  0  0
 23 32  1  0  0  0  0
 47 49  1  0  0  0  0
 47 50  1  0  0  0  0
 47 51  1  0  0  0  0
 22 28  1  0  0  0  0
 22 29  1  0  0  0  0
 37 42  1  0  0  0  0
  8 13  1  0  0  0  0
 18 26  1  0  0  0  0
 21 27  1  0  0  0  0
 46 48  1  0  0  0  0
  7 12  1  0  0  0  0
 36 41  1  0  0  0  0
 17 25  1  0  0  0  0
M  END
$$$$

  -OEChem-05262214473D

 51 50  0     1  0  0  0  0  0999 V2000
    1.3524   -3.0009    1.4091 C   0  0  0  0  0  0  0  0  0  0  0  0
    1.8758   -1.9880    0.9598 O   0  0  0  0  0  0  0  0  0  0  0  0
    2.2030   -4.1782    1.7536 C   0  0  0  0  0  0  0  0  0  0  0  0
    2.3264   -4.8705    0.9053 H   0  0  0  0  0  0  0  0  0  0  0  0
    3.2257   -3.8876    2.0432 H   0  0  0  0  0  0  0  0  0  0  0  0
    1.8327   -4.8004    2.5839 H   0  0  0  0  0  0  0  0  0  0  0  0
    0.0005   -3.1873    1.6465 N   0  0  0  0  0  0  0  0  0  0  0  0
   -0.9949   -2.1807    1.3864 C   0  0  2  0  0  0  0  0  0  0  0  0
   -0.3083   -0.8216    1.4164 C   0  0  0  0  0  0  0  0  0  0  0  0
    0.7533   -0.6191    2.0022 O   0  0  0  0  0  0  0  0  0  0  0  0
   -2.1232   -2.2423    2.4042 C   0  0  0  0  0  0  0  0  0  0  0  0
   -0.3048   -4.0823    2.0245 H   0  0  0  0  0  0  0  0  0  0  0  0
   -1.3830   -2.3724    0.3801 H   0  0  0  0  0  0  0  0  0  0  0  0
   -1.7534   -2.0527    3.4185 H   0  0  0  0  0  0  0  0  0  0  0  0
   -2.8936   -1.4947    2.1882 H   0  0  0  0  0  0  0  0  0  0  0  0
   -2.5964   -3.2301    2.4022 H   0  0  0  0  0  0  0  0  0  0  0  0
   -1.0412    0.1517    0.7482 N   0  0  0  0  0  0  0  0  0  0  0  0
   -0.6079    1.5223    0.6467 C   0  0  2  0  0  0  0  0  0  0  0  0
   -0.4505    1.8636   -0.8344 C   0  0  0  0  0  0  0  0  0  0  0  0
    0.5948    1.6792   -1.4547 O   0  0  0  0  0  0  0  0  0  0  0  0
    0.6761    1.8122    1.4610 C   0  0  2  0  0  0  0  0  0  0  0  0
    0.4666    1.6023    2.9771 C   0  0  0  0  0  0  0  0  0  0  0  0
    1.1908    3.2241    1.1509 C   0  0  0  0  0  0  0  0  0  0  0  0
    1.7630    1.6184    3.7769 C   0  0  0  0  0  0  0  0  0  0  0  0
   -1.9022   -0.1128    0.2753 H   0  0  0  0  0  0  0  0  0  0  0  0
   -1.4364    2.1283    1.0352 H   0  0  0  0  0  0  0  0  0  0  0  0
    1.4520    1.1084    1.1312 H   0  0  0  0  0  0  0  0  0  0  0  0
   -0.1772    2.3963    3.3724 H   0  0  0  0  0  0  0  0  0  0  0  0
   -0.0494    0.6530    3.1640 H   0  0  0  0  0  0  0  0  0  0  0  0
    0.4603    3.9807    1.4568 H   0  0  0  0  0  0  0  0  0  0  0  0
    2.1173    3.4360    1.6933 H   0  0  0  0  0  0  0  0  0  0  0  0
    1.3874    3.3541    0.0817 H   0  0  0  0  0  0  0  0  0  0  0  0
    2.4577    0.8464    3.4341 H   0  0  0  0  0  0  0  0  0  0  0  0
    1.5528    1.4254    4.8340 H   0  0  0  0  0  0  0  0  0  0  0  0
    2.2586    2.5915    3.7032 H   0  0  0  0  0  0  0  0  0  0  0  0
   -1.6220    2.3649   -1.3838 N   0  0  0  0  0  0  0  0  0  0  0  0
   -1.7469    2.7466   -2.7720 C   0  0  2  0  0  0  0  0  0  0  0  0
   -3.2092    2.5982   -3.1709 C   0  0  0  0  0  0  0  0  0  0  0  0
   -3.9962    1.8663   -2.5743 O   0  0  0  0  0  0  0  0  0  0  0  0
   -0.8520    1.8980   -3.6619 C   0  0  0  0  0  0  0  0  0  0  0  0
   -2.4321    2.4688   -0.7800 H   0  0  0  0  0  0  0  0  0  0  0  0
   -1.4549    3.8004   -2.8378 H   0  0  0  0  0  0  0  0  0  0  0  0
   -1.1295    0.8389   -3.6091 H   0  0  0  0  0  0  0  0  0  0  0  0
   -0.9263    2.2073   -4.7096 H   0  0  0  0  0  0  0  0  0  0  0  0
    0.1960    1.9827   -3.3548 H   0  0  0  0  0  0  0  0  0  0  0  0
   -3.5214    3.3461   -4.2975 N   0  0  0  0  0  0  0  0  0  0  0  0
   -4.8426    3.3631   -4.8805 C   0  0  0  0  0  0  0  0  0  0  0  0
   -2.8109    3.9393   -4.7161 H   0  0  0  0  0  0  0  0  0  0  0  0
   -4.9079    2.5944   -5.6647 H   0  0  0  0  0  0  0  0  0  0  0  0
   -5.5901    3.1556   -4.1007 H   0  0  0  0  0  0  0  0  0  0  0  0
   -5.0366    4.3526   -5.3202 H   0  0  0  0  0  0  0  0  0  0  0  0
  1  3  1  0  0  0  0
  1  7  1  0  0  0  0
  1  2  2  0  0  0  0
 37 38  1  0  0  0  0
 38 46  1  0  0  0  0
 38 39  2  0  0  0  0
  8  9  1  0  0  0  0
  9 17  1  0  0  0  0
  9 10  2  0  0  0  0
 18 19  1  0  0  0  0
 19 36  1  0  0  0  0
 19 20  2  0  0  0  0
 22 24  1  0  0  0  0
 37 40  1  0  0  0  0
  8 11  1  0  0  0  0
 21 23  1  0  0  0  0
 46 47  1  0  0  0  0
 21 22  1  0  0  0  0
 36 37  1  0  0  0  0
  7  8  1  0  0  0  0
 18 21  1  0  0  0  0
 17 18  1  0  0  0  0
  3  4  1  0  0  0  0
  3  5  1  0  0  0  0
  3  6  1  0  0  0  0
 24 33  1  0  0  0  0
 24 34  1  0  0  0  0
 24 35  1  0  0  0  0
 40 43  1  0  0  0  0
 40 44  1  0  0  0  0
 40 45  1  0  0  0  0
 11 14  1  0  0  0  0
 11 15  1  0  0  0  0
 11 16  1  0  0  0  0
 23 30  1  0  0  0  0
 23 31  1  0  0  0  0
 23 32  1  0  0  0  0
 47 49  1  0  0  0  0
 47 50  1  0  0  0  0
 47 51  1  0  0  0  0
 22 28  1  0  0  0  0
 22 29  1  0  0  0  0
 37 42  1  0  0  0  0
  8 13  1  0  0  0  0
 18 26  1  0  0  0  0
 21 27  1  0  0  0  0
 46 48  1  0  0  0  0
  7 12  1  0  0  0  0
 36 41  1  0  0  0  0
 17 25  1  0  0  0  0
M  END
$$$$

  -OEChem-05262214473D

 51 50  0     1  0  0  0  0  0999 V2000
    1.3524   -3.0009    1.4091 C   0  0  0  0  0  0  0  0  0  0  0  0
    1.8758   -1.9880    0.9598 O   0  0  0  0  0  0  0  0  0  0  0  0
    2.2030   -4.1782    1.7536 C   0  0  0  0  0  0  0  0  0  0  0  0
    2.3264   -4.8705    0.9053 H   0  0  0  0  0  0  0  0  0  0  0  0
    3.2257   -3.8876    2.0432 H   0  0  0  0  0  0  0  0  0  0  0  0
    1.8327   -4.8004    2.5839 H   0  0  0  0  0  0  0  0  0  0  0  0
    0.0005   -3.1873    1.6465 N   0  0  0  0  0  0  0  0  0  0  0  0
   -0.9949   -2.1807    1.3864 C   0  0  2  0  0  0  0  0  0  0  0  0
   -0.3083   -0.8216    1.4164 C   0  0  0  0  0  0  0  0  0  0  0  0
    0.7533   -0.6191    2.0022 O   0  0  0  0  0  0  0  0  0  0  0  0
   -2.1232   -2.2423    2.4042 C   0  0  0  0  0  0  0  0  0  0  0  0
   -0.3048   -4.0823    2.0245 H   0  0  0  0  0  0  0  0  0  0  0  0
   -1.3830   -2.3724    0.3801 H   0  0  0  0  0  0  0  0  0  0  0  0
   -1.7534   -2.0527    3.4185 H   0  0  0  0  0  0  0  0  0  0  0  0
   -2.8936   -1.4947    2.1882 H   0  0  0  0  0  0  0  0  0  0  0  0
   -2.5964   -3.2301    2.4022 H   0  0  0  0  0  0  0  0  0  0  0  0
   -1.0412    0.1517    0.7482 N   0  0  0  0  0  0  0  0  0  0  0  0
   -0.6079    1.5223    0.6467 C   0  0  2  0  0  0  0  0  0  0  0  0
   -0.4505    1.8636   -0.8344 C   0  0  0  0  0  0  0  0  0  0  0  0
    0.4794    1.4449   -1.5210 O   0  0  0  0  0  0  0  0  0  0  0  0
    0.6761    1.8122    1.4610 C   0  0  2  0  0  0  0  0  0  0  0  0
    0.4666    1.6023    2.9771 C   0  0  0  0  0  0  0  0  0  0  0  0
    1.1908    3.2241    1.1509 C   0  0  0  0  0  0  0  0  0  0  0  0
    1.7630    1.6184    3.7769 C   0  0  0  0  0  0  0  0  0  0  0  0
   -1.9022   -0.1128    0.2753 H   0  0  0  0  0  0  0  0  0  0  0  0
   -1.4364    2.1283    1.0352 H   0  0  0  0  0  0  0  0  0  0  0  0
    1.4520    1.1084    1.1312 H   0  0  0  0  0  0  0  0  0  0  0  0
   -0.1772    2.3963    3.3724 H   0  0  0  0  0  0  0  0  0  0  0  0
   -0.0494    0.6530    3.1640 H   0  0  0  0  0  0  0  0  0  0  0  0
    0.4603    3.9807    1.4568 H   0  0  0  0  0  0  0  0  0  0  0  0
    2.1173    3.4360    1.6933 H   0  0  0  0  0  0  0  0  0  0  0  0
    1.3874    3.3541    0.0817 H   0  0  0  0  0  0  0  0  0  0  0  0
    2.4577    0.8464    3.4341 H   0  0  0  0  0  0  0  0  0  0  0  0
    1.5528    1.4254    4.8340 H   0  0  0  0  0  0  0  0  0  0  0  0
    2.2586    2.5915    3.7032 H   0  0  0  0  0  0  0  0  0  0  0  0
   -1.4862    2.6604   -1.3013 N   0  0  0  0  0  0  0  0  0  0  0  0
   -1.5864    3.1082   -2.6717 C   0  0  2  0  0  0  0  0  0  0  0  0
   -3.0584    3.3439   -2.9830 C   0  0  0  0  0  0  0  0  0  0  0  0
   -3.9707    2.8122   -2.3536 O   0  0  0  0  0  0  0  0  0  0  0  0
   -0.9836    2.0936   -3.6308 C   0  0  0  0  0  0  0  0  0  0  0  0
   -2.2101    2.9430   -0.6472 H   0  0  0  0  0  0  0  0  0  0  0  0
   -1.0426    4.0571   -2.7349 H   0  0  0  0  0  0  0  0  0  0  0  0
   -1.5154    1.1363   -3.5816 H   0  0  0  0  0  0  0  0  0  0  0  0
   -1.0346    2.4471   -4.6659 H   0  0  0  0  0  0  0  0  0  0  0  0
    0.0671    1.9030   -3.3868 H   0  0  0  0  0  0  0  0  0  0  0  0
   -3.2332    4.1840   -4.0738 N   0  0  0  0  0  0  0  0  0  0  0  0
   -4.5373    4.5507   -4.5744 C   0  0  0  0  0  0  0  0  0  0  0  0
   -2.4202    4.5945   -4.5236 H   0  0  0  0  0  0  0  0  0  0  0  0
   -4.8365    3.8499   -5.3678 H   0  0  0  0  0  0  0  0  0  0  0  0
   -5.2694    4.5103   -3.7544 H   0  0  0  0  0  0  0  0  0  0  0  0
   -4.4996    5.5717   -4.9823 H   0  0  0  0  0  0  0  0  0  0  0  0
  1  3  1  0  0  0  0
  1  7  1  0  0  0  0
  1  2  2  0  0  0  0
 37 38  1  0  0  0  0
 38 46  1  0  0  0  0
 38 39  2  0  0  0  0
  8  9  1  0  0  0  0
  9 17  1  0  0  0  0
  9 10  2  0  0  0  0
 18 19  1  0  0  0  0
 19 36  1  0  0  0  0
 19 20  2  0  0  0  0
 22 24  1  0  0  0  0
 37 40  1  0  0  0  0
  8 11  1  0  0  0  0
 21 23  1  0  0  0  0
 46 47  1  0  0  0  0
 21 22  1  0  0  0  0
 36 37  1  0  0  0  0
  7  8  1  0  0  0  0
 18 21  1  0  0  0  0
 17 18  1  0  0  0  0
  3  4  1  0  0  0  0
  3  5  1  0  0  0  0
  3  6  1  0  0  0  0
 24 33  1  0  0  0  0
 24 34  1  0  0  0  0
 24 35  1  0  0  0  0
 40 43  1  0  0  0  0
 40 44  1  0  0  0  0
 40 45  1  0  0  0  0
 11 14  1  0  0  0  0
 11 15  1  0  0  0  0
 11 16  1  0  0  0  0
 23 30  1  0  0  0  0
 23 31  1  0  0  0  0
 23 32  1  0  0  0  0
 47 49  1  0  0  0  0
 47 50  1  0  0  0  0
 47 51  1  0  0  0  0
 22 28  1  0  0  0  0
 22 29  1  0  0  0  0
 37 42  1  0  0  0  0
  8 13  1  0  0  0  0
 18 26  1  0  0  0  0
 21 27  1  0  0  0  0
 46 48  1  0  0  0  0
  7 12  1  0  0  0  0
 36 41  1  0  0  0  0
 17 25  1  0  0  0  0
M  END
$$$$

  -OEChem-05262214473D

 51 50  0     1  0  0  0  0  0999 V2000
    1.3524   -3.0009    1.4091 C   0  0  0  0  0  0  0  0  0  0  0  0
    1.8758   -1.9880    0.9598 O   0  0  0  0  0  0  0  0  0  0  0  0
    2.2030   -4.1782    1.7536 C   0  0  0  0  0  0  0  0  0  0  0  0
    2.3264   -4.8705    0.9053 H   0  0  0  0  0  0  0  0  0  0  0  0
    3.2257   -3.8876    2.0432 H   0  0  0  0  0  0  0  0  0  0  0  0
    1.8327   -4.8004    2.5839 H   0  0  0  0  0  0  0  0  0  0  0  0
    0.0005   -3.1873    1.6465 N   0  0  0  0  0  0  0  0  0  0  0  0
   -0.9949   -2.1807    1.3864 C   0  0  2  0  0  0  0  0  0  0  0  0
   -0.3083   -0.8216    1.4164 C   0  0  0  0  0  0  0  0  0  0  0  0
    0.7533   -0.6191    2.0022 O   0  0  0  0  0  0  0  0  0  0  0  0
   -2.1232   -2.2423    2.4042 C   0  0  0  0  0  0  0  0  0  0  0  0
   -0.3048   -4.0823    2.0245 H   0  0  0  0  0  0  0  0  0  0  0  0
   -1.3830   -2.3724    0.3801 H   0  0  0  0  0  0  0  0  0  0  0  0
   -1.7534   -2.0527    3.4185 H   0  0  0  0  0  0  0  0  0  0  0  0
   -2.8936   -1.4947    2.1882 H   0  0  0  0  0  0  0  0  0  0  0  0
   -2.5964   -3.2301    2.4022 H   0  0  0  0  0  0  0  0  0  0  0  0
   -1.0412    0.1517    0.7482 N   0  0  0  0  0  0  0  0  0  0  0  0
   -0.6079    1.5223    0.6467 C   0  0  2  0  0  0  0  0  0  0  0  0
   -0.4505    1.8636   -0.8344 C   0  0  0  0  0  0  0  0  0  0  0  0
    0.3054    1.2493   -1.5846 O   0  0  0  0  0  0  0  0  0  0  0  0
    0.6761    1.8122    1.4610 C   0  0  2  0  0  0  0  0  0  0  0  0
    0.4666    1.6023    2.9771 C   0  0  0  0  0  0  0  0  0  0  0  0
    1.1908    3.2241    1.1509 C   0  0  0  0  0  0  0  0  0  0  0  0
    1.7630    1.6184    3.7769 C   0  0  0  0  0  0  0  0  0  0  0  0
   -1.9022   -0.1128    0.2753 H   0  0  0  0  0  0  0  0  0  0  0  0
   -1.4364    2.1283    1.0352 H   0  0  0  0  0  0  0  0  0  0  0  0
    1.4520    1.1084    1.1312 H   0  0  0  0  0  0  0  0  0  0  0  0
   -0.1772    2.3963    3.3724 H   0  0  0  0  0  0  0  0  0  0  0  0
   -0.0494    0.6530    3.1640 H   0  0  0  0  0  0  0  0  0  0  0  0
    0.4603    3.9807    1.4568 H   0  0  0  0  0  0  0  0  0  0  0  0
    2.1173    3.4360    1.6933 H   0  0  0  0  0  0  0  0  0  0  0  0
    1.3874    3.3541    0.0817 H   0  0  0  0  0  0  0  0  0  0  0  0
    2.4577    0.8464    3.4341 H   0  0  0  0  0  0  0  0  0  0  0  0
    1.5528    1.4254    4.8340 H   0  0  0  0  0  0  0  0  0  0  0  0
    2.2586    2.5915    3.7032 H   0  0  0  0  0  0  0  0  0  0  0  0
   -1.2762    2.9095   -1.2215 N   0  0  0  0  0  0  0  0  0  0  0  0
   -1.3348    3.4145   -2.5743 C   0  0  2  0  0  0  0  0  0  0  0  0
   -2.7149    4.0213   -2.7904 C   0  0  0  0  0  0  0  0  0  0  0  0
   -3.6960    3.7135   -2.1167 O   0  0  0  0  0  0  0  0  0  0  0  0
   -1.0599    2.3146   -3.5880 C   0  0  0  0  0  0  0  0  0  0  0  0
   -1.8690    3.3417   -0.5190 H   0  0  0  0  0  0  0  0  0  0  0  0
   -0.5741    4.1988   -2.6524 H   0  0  0  0  0  0  0  0  0  0  0  0
   -1.8120    1.5197   -3.5248 H   0  0  0  0  0  0  0  0  0  0  0  0
   -1.0765    2.7047   -4.6110 H   0  0  0  0  0  0  0  0  0  0  0  0
   -0.0793    1.8592   -3.4125 H   0  0  0  0  0  0  0  0  0  0  0  0
   -2.7317    4.9151   -3.8521 N   0  0  0  0  0  0  0  0  0  0  0  0
   -3.9268    5.6131   -4.2648 C   0  0  0  0  0  0  0  0  0  0  0  0
   -1.8673    5.1243   -4.3428 H   0  0  0  0  0  0  0  0  0  0  0  0
   -4.4354    5.0368   -5.0517 H   0  0  0  0  0  0  0  0  0  0  0  0
   -4.5998    5.7291   -3.4024 H   0  0  0  0  0  0  0  0  0  0  0  0
   -3.6557    6.6054   -4.6543 H   0  0  0  0  0  0  0  0  0  0  0  0
  1  3  1  0  0  0  0
  1  7  1  0  0  0  0
  1  2  2  0  0  0  0
 37 38  1  0  0  0  0
 38 46  1  0  0  0  0
 38 39  2  0  0  0  0
  8  9  1  0  0  0  0
  9 17  1  0  0  0  0
  9 10  2  0  0  0  0
 18 19  1  0  0  0  0
 19 36  1  0  0  0  0
 19 20  2  0  0  0  0
 22 24  1  0  0  0  0
 37 40  1  0  0  0  0
  8 11  1  0  0  0  0
 21 23  1  0  0  0  0
 46 47  1  0  0  0  0
 21 22  1  0  0  0  0
 36 37  1  0  0  0  0
  7  8  1  0  0  0  0
 18 21  1  0  0  0  0
 17 18  1  0  0  0  0
  3  4  1  0  0  0  0
  3  5  1  0  0  0  0
  3  6  1  0  0  0  0
 24 33  1  0  0  0  0
 24 34  1  0  0  0  0
 24 35  1  0  0  0  0
 40 43  1  0  0  0  0
 40 44  1  0  0  0  0
 40 45  1  0  0  0  0
 11 14  1  0  0  0  0
 11 15  1  0  0  0  0
 11 16  1  0  0  0  0
 23 30  1  0  0  0  0
 23 31  1  0  0  0  0
 23 32  1  0  0  0  0
 47 49  1  0  0  0  0
 47 50  1  0  0  0  0
 47 51  1  0  0  0  0
 22 28  1  0  0  0  0
 22 29  1  0  0  0  0
 37 42  1  0  0  0  0
  8 13  1  0  0  0  0
 18 26  1  0  0  0  0
 21 27  1  0  0  0  0
 46 48  1  0  0  0  0
  7 12  1  0  0  0  0
 36 41  1  0  0  0  0
 17 25  1  0  0  0  0
M  END
$$$$

  -OEChem-05262214473D

 51 50  0     1  0  0  0  0  0999 V2000
    1.3524   -3.0009    1.4091 C   0  0  0  0  0  0  0  0  0  0  0  0
    1.8758   -1.9880    0.9598 O   0  0  0  0  0  0  0  0  0  0  0  0
    2.2030   -4.1782    1.7536 C   0  0  0  0  0  0  0  0  0  0  0  0
    2.3264   -4.8705    0.9053 H   0  0  0  0  0  0  0  0  0  0  0  0
    3.2257   -3.8876    2.0432 H   0  0  0  0  0  0  0  0  0  0  0  0
    1.8327   -4.8004    2.5839 H   0  0  0  0  0  0  0  0  0  0  0  0
    0.0005   -3.1873    1.6465 N   0  0  0  0  0  0  0  0  0  0  0  0
   -0.9949   -2.1807    1.3864 C   0  0  2  0  0  0  0  0  0  0  0  0
   -0.3083   -0.8216    1.4164 C   0  0  0  0  0  0  0  0  0  0  0  0
    0.7533   -0.6191    2.0022 O   0  0  0  0  0  0  0  0  0  0  0  0
   -2.1232   -2.2423    2.4042 C   0  0  0  0  0  0  0  0  0  0  0  0
   -0.3048   -4.0823    2.0245 H   0  0  0  0  0  0  0  0  0  0  0  0
   -1.3830   -2.3724    0.3801 H   0  0  0  0  0  0  0  0  0  0  0  0
   -1.7534   -2.0527    3.4185 H   0  0  0  0  0  0  0  0  0  0  0  0
   -2.8936   -1.4947    2.1882 H   0  0  0  0  0  0  0  0  0  0  0  0
   -2.5964   -3.2301    2.4022 H   0  0  0  0  0  0  0  0  0  0  0  0
   -1.0412    0.1517    0.7482 N   0  0  0  0  0  0  0  0  0  0  0  0
   -0.6079    1.5223    0.6467 C   0  0  2  0  0  0  0  0  0  0  0  0
   -0.4505    1.8636   -0.8344 C   0  0  0  0  0  0  0  0  0  0  0  0
    0.0845    1.1057   -1.6412 O   0  0  0  0  0  0  0  0  0  0  0  0
    0.6761    1.8122    1.4610 C   0  0  2  0  0  0  0  0  0  0  0  0
    0.4666    1.6023    2.9771 C   0  0  0  0  0  0  0  0  0  0  0  0
    1.1908    3.2241    1.1509 C   0  0  0  0  0  0  0  0  0  0  0  0
    1.7630    1.6184    3.7769 C   0  0  0  0  0  0  0  0  0  0  0  0
   -1.9022   -0.1128    0.2753 H   0  0  0  0  0  0  0  0  0  0  0  0
   -1.4364    2.1283    1.0352 H   0  0  0  0  0  0  0  0  0  0  0  0
    1.4520    1.1084    1.1312 H   0  0  0  0  0  0  0  0  0  0  0  0
   -0.1772    2.3963    3.3724 H   0  0  0  0  0  0  0  0  0  0  0  0
   -0.0494    0.6530    3.1640 H   0  0  0  0  0  0  0  0  0  0  0  0
    0.4603    3.9807    1.4568 H   0  0  0  0  0  0  0  0  0  0  0  0
    2.1173    3.4360    1.6933 H   0  0  0  0  0  0  0  0  0  0  0  0
    1.3874    3.3541    0.0817 H   0  0  0  0  0  0  0  0  0  0  0  0
    2.4577    0.8464    3.4341 H   0  0  0  0  0  0  0  0  0  0  0  0
    1.5528    1.4254    4.8340 H   0  0  0  0  0  0  0  0  0  0  0  0
    2.2586    2.5915    3.7032 H   0  0  0  0  0  0  0  0  0  0  0  0
   -1.0062    3.0953   -1.1500 N   0  0  0  0  0  0  0  0  0  0  0  0
   -1.0094    3.6447   -2.4867 C   0  0  2  0  0  0  0  0  0  0  0  0
   -2.2020    4.5844   -2.6061 C   0  0  0  0  0  0  0  0  0  0  0  0
   -3.1908    4.5089   -1.8797 O   0  0  0  0  0  0  0  0  0  0  0  0
   -1.0757    2.5462   -3.5363 C   0  0  0  0  0  0  0  0  0  0  0  0
   -1.4320    3.6378   -0.4044 H   0  0  0  0  0  0  0  0  0  0  0  0
   -0.0812    4.2160   -2.5960 H   0  0  0  0  0  0  0  0  0  0  0  0
   -1.9990    1.9629   -3.4425 H   0  0  0  0  0  0  0  0  0  0  0  0
   -1.0492    2.9626   -4.5487 H   0  0  0  0  0  0  0  0  0  0  0  0
   -0.2332    1.8543   -3.4300 H   0  0  0  0  0  0  0  0  0  0  0  0
   -2.0510    5.4895   -3.6474 N   0  0  0  0  0  0  0  0  0  0  0  0
   -3.0527    6.4779   -3.9726 C   0  0  0  0  0  0  0  0  0  0  0  0
   -1.1898    5.4925   -4.1859 H   0  0  0  0  0  0  0  0  0  0  0  0
   -3.7320    6.0742   -4.7379 H   0  0  0  0  0  0  0  0  0  0  0  0
   -3.6269    6.7291   -3.0686 H   0  0  0  0  0  0  0  0  0  0  0  0
   -2.5621    7.3835   -4.3588 H   0  0  0  0  0  0  0  0  0  0  0  0
  1  3  1  0  0  0  0
  1  7  1  0  0  0  0
  1  2  2  0  0  0  0
 37 38  1  0  0  0  0
 38 46  1  0  0  0  0
 38 39  2  0  0  0  0
  8  9  1  0  0  0  0
  9 17  1  0  0  0  0
  9 10  2  0  0  0  0
 18 19  1  0  0  0  0
 19 36  1  0  0  0  0
 19 20  2  0  0  0  0
 22 24  1  0  0  0  0
 37 40  1  0  0  0  0
  8 11  1  0  0  0  0
 21 23  1  0  0  0  0
 46 47  1  0  0  0  0
 21 22  1  0  0  0  0
 36 37  1  0  0  0  0
  7  8  1  0  0  0  0
 18 21  1  0  0  0  0
 17 18  1  0  0  0  0
  3  4  1  0  0  0  0
  3  5  1  0  0  0  0
  3  6  1  0  0  0  0
 24 33  1  0  0  0  0
 24 34  1  0  0  0  0
 24 35  1  0  0  0  0
 40 43  1  0  0  0  0
 40 44  1  0  0  0  0
 40 45  1  0  0  0  0
 11 14  1  0  0  0  0
 11 15  1  0  0  0  0
 11 16  1  0  0  0  0
 23 30  1  0  0  0  0
 23 31  1  0  0  0  0
 23 32  1  0  0  0  0
 47 49  1  0  0  0  0
 47 50  1  0  0  0  0
 47 51  1  0  0  0  0
 22 28  1  0  0  0  0
 22 29  1  0  0  0  0
 37 42  1  0  0  0  0
  8 13  1  0  0  0  0
 18 26  1  0  0  0  0
 21 27  1  0  0  0  0
 46 48  1  0  0  0  0
  7 12  1  0  0  0  0
 36 41  1  0  0  0  0
 17 25  1  0  0  0  0
M  END
$$$$

  -OEChem-05262214473D

 51 50  0     1  0  0  0  0  0999 V2000
    1.3524   -3.0009    1.4091 C   0  0  0  0  0  0  0  0  0  0  0  0
    1.8758   -1.9880    0.9598 O   0  0  0  0  0  0  0  0  0  0  0  0
    2.2030   -4.1782    1.7536 C   0  0  0  0  0  0  0  0  0  0  0  0
    2.3264   -4.8705    0.9053 H   0  0  0  0  0  0  0  0  0  0  0  0
    3.2257   -3.8876    2.0432 H   0  0  0  0  0  0  0  0  0  0  0  0
    1.8327   -4.8004    2.5839 H   0  0  0  0  0  0  0  0  0  0  0  0
    0.0005   -3.1873    1.6465 N   0  0  0  0  0  0  0  0  0  0  0  0
   -0.9949   -2.1807    1.3864 C   0  0  2  0  0  0  0  0  0  0  0  0
   -0.3083   -0.8216    1.4164 C   0  0  0  0  0  0  0  0  0  0  0  0
    0.7533   -0.6191    2.0022 O   0  0  0  0  0  0  0  0  0  0  0  0
   -2.1232   -2.2423    2.4042 C   0  0  0  0  0  0  0  0  0  0  0  0
   -0.3048   -4.0823    2.0245 H   0  0  0  0  0  0  0  0  0  0  0  0
   -1.3830   -2.3724    0.3801 H   0  0  0  0  0  0  0  0  0  0  0  0
   -1.7534   -2.0527    3.4185 H   0  0  0  0  0  0  0  0  0  0  0  0
   -2.8936   -1.4947    2.1882 H   0  0  0  0  0  0  0  0  0  0  0  0
   -2.5964   -3.2301    2.4022 H   0  0  0  0  0  0  0  0  0  0  0  0
   -1.0412    0.1517    0.7482 N   0  0  0  0  0  0  0  0  0  0  0  0
   -0.6079    1.5223    0.6467 C   0  0  2  0  0  0  0  0  0  0  0  0
   -0.4505    1.8636   -0.8344 C   0  0  0  0  0  0  0  0  0  0  0  0
   -0.1682    1.0239   -1.6869 O   0  0  0  0  0  0  0  0  0  0  0  0
    0.6761    1.8122    1.4610 C   0  0  2  0  0  0  0  0  0  0  0  0
    0.4666    1.6023    2.9771 C   0  0  0  0  0  0  0  0  0  0  0  0
    1.1908    3.2241    1.1509 C   0  0  0  0  0  0  0  0  0  0  0  0
    1.7630    1.6184    3.7769 C   0  0  0  0  0  0  0  0  0  0  0  0
   -1.9022   -0.1128    0.2753 H   0  0  0  0  0  0  0  0  0  0  0  0
   -1.4364    2.1283    1.0352 H   0  0  0  0  0  0  0  0  0  0  0  0
    1.4520    1.1084    1.1312 H   0  0  0  0  0  0  0  0  0  0  0  0
   -0.1772    2.3963    3.3724 H   0  0  0  0  0  0  0  0  0  0  0  0
   -0.0494    0.6530    3.1640 H   0  0  0  0  0  0  0  0  0  0  0  0
    0.4603    3.9807    1.4568 H   0  0  0  0  0  0  0  0  0  0  0  0
    2.1173    3.4360    1.6933 H   0  0  0  0  0  0  0  0  0  0  0  0
    1.3874    3.3541    0.0817 H   0  0  0  0  0  0  0  0  0  0  0  0
    2.4577    0.8464    3.4341 H   0  0  0  0  0  0  0  0  0  0  0  0
    1.5528    1.4254    4.8340 H   0  0  0  0  0  0  0  0  0  0  0  0
    2.2586    2.5915    3.7032 H   0  0  0  0  0  0  0  0  0  0  0  0
   -0.6947    3.2052   -1.0916 N   0  0  0  0  0  0  0  0  0  0  0  0
   -0.6323    3.7831   -2.4147 C   0  0  2  0  0  0  0  0  0  0  0  0
   -1.5547    4.9946   -2.4428 C   0  0  0  0  0  0  0  0  0  0  0  0
   -2.4896    5.1442   -1.6588 O   0  0  0  0  0  0  0  0  0  0  0  0
   -1.0298    2.7724   -3.4793 C   0  0  0  0  0  0  0  0  0  0  0  0
   -0.9291    3.8112   -0.3109 H   0  0  0  0  0  0  0  0  0  0  0  0
    0.4025    4.1075   -2.5696 H   0  0  0  0  0  0  0  0  0  0  0  0
   -2.0637    2.4357   -3.3404 H   0  0  0  0  0  0  0  0  0  0  0  0
   -0.9546    3.2032   -4.4832 H   0  0  0  0  0  0  0  0  0  0  0  0
   -0.3841    1.8886   -3.4381 H   0  0  0  0  0  0  0  0  0  0  0  0
   -1.2377    5.8681   -3.4737 N   0  0  0  0  0  0  0  0  0  0  0  0
   -1.9745    7.0861   -3.7178 C   0  0  0  0  0  0  0  0  0  0  0  0
   -0.4340    5.6740   -4.0638 H   0  0  0  0  0  0  0  0  0  0  0  0
   -2.7741    6.8914   -4.4477 H   0  0  0  0  0  0  0  0  0  0  0  0
   -2.4169    7.4420   -2.7757 H   0  0  0  0  0  0  0  0  0  0  0  0
   -1.2936    7.8529   -4.1158 H   0  0  0  0  0  0  0  0  0  0  0  0
  1  3  1  0  0  0  0
  1  7  1  0  0  0  0
  1  2  2  0  0  0  0
 37 38  1  0  0  0  0
 38 46  1  0  0  0  0
 38 39  2  0  0  0  0
  8  9  1  0  0  0  0
  9 17  1  0  0  0  0
  9 10  2  0  0  0  0
 18 19  1  0  0  0  0
 19 36  1  0  0  0  0
 19 20  2  0  0  0  0
 22 24  1  0  0  0  0
 37 40  1  0  0  0  0
  8 11  1  0  0  0  0
 21 23  1  0  0  0  0
 46 47  1  0  0  0  0
 21 22  1  0  0  0  0
 36 37  1  0  0  0  0
  7  8  1  0  0  0  0
 18 21  1  0  0  0  0
 17 18  1  0  0  0  0
  3  4  1  0  0  0  0
  3  5  1  0  0  0  0
  3  6  1  0  0  0  0
 24 33  1  0  0  0  0
 24 34  1  0  0  0  0
 24 35  1  0  0  0  0
 40 43  1  0  0  0  0
 40 44  1  0  0  0  0
 40 45  1  0  0  0  0
 11 14  1  0  0  0  0
 11 15  1  0  0  0  0
 11 16  1  0  0  0  0
 23 30  1  0  0  0  0
 23 31  1  0  0  0  0
 23 32  1  0  0  0  0
 47 49  1  0  0  0  0
 47 50  1  0  0  0  0
 47 51  1  0  0  0  0
 22 28  1  0  0  0  0
 22 29  1  0  0  0  0
 37 42  1  0  0  0  0
  8 13  1  0  0  0  0
 18 26  1  0  0  0  0
 21 27  1  0  0  0  0
 46 48  1  0  0  0  0
  7 12  1  0  0  0  0
 36 41  1  0  0  0  0
 17 25  1  0  0  0  0
M  END
$$$$

  -OEChem-05262214473D

 51 50  0     1  0  0  0  0  0999 V2000
    1.3524   -3.0009    1.4091 C   0  0  0  0  0  0  0  0  0  0  0  0
    1.8758   -1.9880    0.9598 O   0  0  0  0  0  0  0  0  0  0  0  0
    2.2030   -4.1782    1.7536 C   0  0  0  0  0  0  0  0  0  0  0  0
    2.3264   -4.8705    0.9053 H   0  0  0  0  0  0  0  0  0  0  0  0
    3.2257   -3.8876    2.0432 H   0  0  0  0  0  0  0  0  0  0  0  0
    1.8327   -4.8004    2.5839 H   0  0  0  0  0  0  0  0  0  0  0  0
    0.0005   -3.1873    1.6465 N   0  0  0  0  0  0  0  0  0  0  0  0
   -0.9949   -2.1807    1.3864 C   0  0  2  0  0  0  0  0  0  0  0  0
   -0.3083   -0.8216    1.4164 C   0  0  0  0  0  0  0  0  0  0  0  0
    0.7533   -0.6191    2.0022 O   0  0  0  0  0  0  0  0  0  0  0  0
   -2.1232   -2.2423    2.4042 C   0  0  0  0  0  0  0  0  0  0  0  0
   -0.3048   -4.0823    2.0245 H   0  0  0  0  0  0  0  0  0  0  0  0
   -1.3830   -2.3724    0.3801 H   0  0  0  0  0  0  0  0  0  0  0  0
   -1.7534   -2.0527    3.4185 H   0  0  0  0  0  0  0  0  0  0  0  0
   -2.8936   -1.4947    2.1882 H   0  0  0  0  0  0  0  0  0  0  0  0
   -2.5964   -3.2301    2.4022 H   0  0  0  0  0  0  0  0  0  0  0  0
   -1.0412    0.1517    0.7482 N   0  0  0  0  0  0  0  0  0  0  0  0
   -0.6079    1.5223    0.6467 C   0  0  2  0  0  0  0  0  0  0  0  0
   -0.4505    1.8636   -0.8344 C   0  0  0  0  0  0  0  0  0  0  0  0
   -0.4354    1.0095   -1.7186 O   0  0  0  0  0  0  0  0  0  0  0  0
    0.6761    1.8122    1.4610 C   0  0  2  0  0  0  0  0  0  0  0  0
    0.4666    1.6023    2.9771 C   0  0  0  0  0  0  0  0  0  0  0  0
    1.1908    3.2241    1.1509 C   0  0  0  0  0  0  0  0  0  0  0  0
    1.7630    1.6184    3.7769 C   0  0  0  0  0  0  0  0  0  0  0  0
   -1.9022   -0.1128    0.2753 H   0  0  0  0  0  0  0  0  0  0  0  0
   -1.4364    2.1283    1.0352 H   0  0  0  0  0  0  0  0  0  0  0  0
    1.4520    1.1084    1.1312 H   0  0  0  0  0  0  0  0  0  0  0  0
   -0.1772    2.3963    3.3724 H   0  0  0  0  0  0  0  0  0  0  0  0
   -0.0494    0.6530    3.1640 H   0  0  0  0  0  0  0  0  0  0  0  0
    0.4603    3.9807    1.4568 H   0  0  0  0  0  0  0  0  0  0  0  0
    2.1173    3.4360    1.6933 H   0  0  0  0  0  0  0  0  0  0  0  0
    1.3874    3.3541    0.0817 H   0  0  0  0  0  0  0  0  0  0  0  0
    2.4577    0.8464    3.4341 H   0  0  0  0  0  0  0  0  0  0  0  0
    1.5528    1.4254    4.8340 H   0  0  0  0  0  0  0  0  0  0  0  0
    2.2586    2.5915    3.7032 H   0  0  0  0  0  0  0  0  0  0  0  0
   -0.3629    3.2316   -1.0502 N   0  0  0  0  0  0  0  0  0  0  0  0
   -0.2291    3.8202   -2.3633 C   0  0  2  0  0  0  0  0  0  0  0  0
   -0.8170    5.2241   -2.3115 C   0  0  0  0  0  0  0  0  0  0  0  0
   -1.6401    5.5760   -1.4690 O   0  0  0  0  0  0  0  0  0  0  0  0
   -0.9255    2.9779   -3.4208 C   0  0  0  0  0  0  0  0  0  0  0  0
   -0.3943    3.8500   -0.2452 H   0  0  0  0  0  0  0  0  0  0  0  0
    0.8440    3.8806   -2.5750 H   0  0  0  0  0  0  0  0  0  0  0  0
   -2.0017    2.9060   -3.2255 H   0  0  0  0  0  0  0  0  0  0  0  0
   -0.7990    3.4101   -4.4190 H   0  0  0  0  0  0  0  0  0  0  0  0
   -0.5217    1.9598   -3.4363 H   0  0  0  0  0  0  0  0  0  0  0  0
   -0.3470    6.0252   -3.3428 N   0  0  0  0  0  0  0  0  0  0  0  0
   -0.7658    7.3963   -3.5179 C   0  0  0  0  0  0  0  0  0  0  0  0
    0.3486    5.6564   -3.9846 H   0  0  0  0  0  0  0  0  0  0  0  0
   -1.6271    7.4328   -4.2011 H   0  0  0  0  0  0  0  0  0  0  0  0
   -1.0525    7.8192   -2.5437 H   0  0  0  0  0  0  0  0  0  0  0  0
    0.0635    7.9815   -3.9419 H   0  0  0  0  0  0  0  0  0  0  0  0
  1  3  1  0  0  0  0
  1  7  1  0  0  0  0
  1  2  2  0  0  0  0
 37 38  1  0  0  0  0
 38 46  1  0  0  0  0
 38 39  2  0  0  0  0
  8  9  1  0  0  0  0
  9 17  1  0  0  0  0
  9 10  2  0  0  0  0
 18 19  1  0  0  0  0
 19 36  1  0  0  0  0
 19 20  2  0  0  0  0
 22 24  1  0  0  0  0
 37 40  1  0  0  0  0
  8 11  1  0  0  0  0
 21 23  1  0  0  0  0
 46 47  1  0  0  0  0
 21 22  1  0  0  0  0
 36 37  1  0  0  0  0
  7  8  1  0  0  0  0
 18 21  1  0  0  0  0
 17 18  1  0  0  0  0
  3  4  1  0  0  0  0
  3  5  1  0  0  0  0
  3  6  1  0  0  0  0
 24 33  1  0  0  0  0
 24 34  1  0  0  0  0
 24 35  1  0  0  0  0
 40 43  1  0  0  0  0
 40 44  1  0  0  0  0
 40 45  1  0  0  0  0
 11 14  1  0  0  0  0
 11 15  1  0  0  0  0
 11 16  1  0  0  0  0
 23 30  1  0  0  0  0
 23 31  1  0  0  0  0
 23 32  1  0  0  0  0
 47 49  1  0  0  0  0
 47 50  1  0  0  0  0
 47 51  1  0  0  0  0
 22 28  1  0  0  0  0
 22 29  1  0  0  0  0
 37 42  1  0  0  0  0
  8 13  1  0  0  0  0
 18 26  1  0  0  0  0
 21 27  1  0  0  0  0
 46 48  1  0  0  0  0
  7 12  1  0  0  0  0
 36 41  1  0  0  0  0
 17 25  1  0  0  0  0
M  END
$$$$

  -OEChem-05262214473D

 51 50  0     1  0  0  0  0  0999 V2000
    1.3524   -3.0009    1.4091 C   0  0  0  0  0  0  0  0  0  0  0  0
    1.8758   -1.9880    0.9598 O   0  0  0  0  0  0  0  0  0  0  0  0
    2.2030   -4.1782    1.7536 C   0  0  0  0  0  0  0  0  0  0  0  0
    2.3264   -4.8705    0.9053 H   0  0  0  0  0  0  0  0  0  0  0  0
    3.2257   -3.8876    2.0432 H   0  0  0  0  0  0  0  0  0  0  0  0
    1.8327   -4.8004    2.5839 H   0  0  0  0  0  0  0  0  0  0  0  0
    0.0005   -3.1873    1.6465 N   0  0  0  0  0  0  0  0  0  0  0  0
   -0.9949   -2.1807    1.3864 C   0  0  2  0  0  0  0  0  0  0  0  0
   -0.3083   -0.8216    1.4164 C   0  0  0  0  0  0  0  0  0  0  0  0
    0.7533   -0.6191    2.0022 O   0  0  0  0  0  0  0  0  0  0  0  0
   -2.1232   -2.2423    2.4042 C   0  0  0  0  0  0  0  0  0  0  0  0
   -0.3048   -4.0823    2.0245 H   0  0  0  0  0  0  0  0  0  0  0  0
   -1.3830   -2.3724    0.3801 H   0  0  0  0  0  0  0  0  0  0  0  0
   -1.7534   -2.0527    3.4185 H   0  0  0  0  0  0  0  0  0  0  0  0
   -2.8936   -1.4947    2.1882 H   0  0  0  0  0  0  0  0  0  0  0  0
   -2.5964   -3.2301    2.4022 H   0  0  0  0  0  0  0  0  0  0  0  0
   -1.0412    0.1517    0.7482 N   0  0  0  0  0  0  0  0  0  0  0  0
   -0.6079    1.5223    0.6467 C   0  0  2  0  0  0  0  0  0  0  0  0
   -0.8094    1.9798   -0.7973 C   0  0  0  0  0  0  0  0  0  0  0  0
   -1.2933    1.2565   -1.6656 O   0  0  0  0  0  0  0  0  0  0  0  0
    0.8442    1.7351    1.1383 C   0  0  2  0  0  0  0  0  0  0  0  0
    1.0075    1.4062    2.6388 C   0  0  0  0  0  0  0  0  0  0  0  0
    1.3064    3.1629    0.8183 C   0  0  0  0  0  0  0  0  0  0  0  0
    2.4605    1.3473    3.0927 C   0  0  0  0  0  0  0  0  0  0  0  0
   -1.9022   -0.1128    0.2753 H   0  0  0  0  0  0  0  0  0  0  0  0
   -1.2984    2.1023    1.2724 H   0  0  0  0  0  0  0  0  0  0  0  0
    1.4955    1.0535    0.5749 H   0  0  0  0  0  0  0  0  0  0  0  0
    0.5029    2.1715    3.2397 H   0  0  0  0  0  0  0  0  0  0  0  0
    0.5268    0.4495    2.8751 H   0  0  0  0  0  0  0  0  0  0  0  0
    0.6947    3.8988    1.3513 H   0  0  0  0  0  0  0  0  0  0  0  0
    2.3432    3.3228    1.1295 H   0  0  0  0  0  0  0  0  0  0  0  0
    1.2381    3.3765   -0.2534 H   0  0  0  0  0  0  0  0  0  0  0  0
    3.0279    0.5993    2.5316 H   0  0  0  0  0  0  0  0  0  0  0  0
    2.5109    1.0720    4.1513 H   0  0  0  0  0  0  0  0  0  0  0  0
    2.9499    2.3188    2.9727 H   0  0  0  0  0  0  0  0  0  0  0  0
   -0.4162    3.2967   -0.9892 N   0  0  0  0  0  0  0  0  0  0  0  0
   -0.5213    3.9786   -2.2590 C   0  0  2  0  0  0  0  0  0  0  0  0
   -0.6565    5.4701   -1.9822 C   0  0  0  0  0  0  0  0  0  0  0  0
   -1.0621    5.9197   -0.9124 O   0  0  0  0  0  0  0  0  0  0  0  0
   -1.7039    3.4661   -3.0661 C   0  0  0  0  0  0  0  0  0  0  0  0
   -0.0356    3.8068   -0.1976 H   0  0  0  0  0  0  0  0  0  0  0  0
    0.4138    3.7898   -2.7977 H   0  0  0  0  0  0  0  0  0  0  0  0
   -2.6498    3.6465   -2.5423 H   0  0  0  0  0  0  0  0  0  0  0  0
   -1.7653    3.9635   -4.0397 H   0  0  0  0  0  0  0  0  0  0  0  0
   -1.6200    2.3877   -3.2387 H   0  0  0  0  0  0  0  0  0  0  0  0
   -0.3119    6.2389   -3.0851 N   0  0  0  0  0  0  0  0  0  0  0  0
   -0.3688    7.6821   -3.0779 C   0  0  0  0  0  0  0  0  0  0  0  0
    0.0320    5.7823   -3.9247 H   0  0  0  0  0  0  0  0  0  0  0  0
   -1.3490    8.0127   -3.4519 H   0  0  0  0  0  0  0  0  0  0  0  0
   -0.2253    8.0494   -2.0510 H   0  0  0  0  0  0  0  0  0  0  0  0
    0.4249    8.0834   -3.7252 H   0  0  0  0  0  0  0  0  0  0  0  0
  1  3  1  0  0  0  0
  1  7  1  0  0  0  0
  1  2  2  0  0  0  0
 37 38  1  0  0  0  0
 38 46  1  0  0  0  0
 38 39  2  0  0  0  0
  8  9  1  0  0  0  0
  9 17  1  0  0  0  0
  9 10  2  0  0  0  0
 18 19  1  0  0  0  0
 19 36  1  0  0  0  0
 19 20  2  0  0  0  0
 22 24  1  0  0  0  0
 37 40  1  0  0  0  0
  8 11  1  0  0  0  0
 21 23  1  0  0  0  0
 46 47  1  0  0  0  0
 21 22  1  0  0  0  0
 36 37  1  0  0  0  0
  7  8  1  0  0  0  0
 18 21  1  0  0  0  0
 17 18  1  0  0  0  0
  3  4  1  0  0  0  0
  3  5  1  0  0  0  0
  3  6  1  0  0  0  0
 24 33  1  0  0  0  0
 24 34  1  0  0  0  0
 24 35  1  0  0  0  0
 40 43  1  0  0  0  0
 40 44  1  0  0  0  0
 40 45  1  0  0  0  0
 11 14  1  0  0  0  0
 11 15  1  0  0  0  0
 11 16  1  0  0  0  0
 23 30  1  0  0  0  0
 23 31  1  0  0  0  0
 23 32  1  0  0  0  0
 47 49  1  0  0  0  0
 47 50  1  0  0  0  0
 47 51  1  0  0  0  0
 22 28  1  0  0  0  0
 22 29  1  0  0  0  0
 37 42  1  0  0  0  0
  8 13  1  0  0  0  0
 18 26  1  0  0  0  0
 21 27  1  0  0  0  0
 46 48  1  0  0  0  0
  7 12  1  0  0  0  0
 36 41  1  0  0  0  0
 17 25  1  0  0  0  0
M  END
$$$$

  -OEChem-05262214473D

 51 50  0     1  0  0  0  0  0999 V2000
    1.3524   -3.0009    1.4091 C   0  0  0  0  0  0  0  0  0  0  0  0
    1.8758   -1.9880    0.9598 O   0  0  0  0  0  0  0  0  0  0  0  0
    2.2030   -4.1782    1.7536 C   0  0  0  0  0  0  0  0  0  0  0  0
    2.3264   -4.8705    0.9053 H   0  0  0  0  0  0  0  0  0  0  0  0
    3.2257   -3.8876    2.0432 H   0  0  0  0  0  0  0  0  0  0  0  0
    1.8327   -4.8004    2.5839 H   0  0  0  0  0  0  0  0  0  0  0  0
    0.0005   -3.1873    1.6465 N   0  0  0  0  0  0  0  0  0  0  0  0
   -0.9949   -2.1807    1.3864 C   0  0  2  0  0  0  0  0  0  0  0  0
   -0.3083   -0.8216    1.4164 C   0  0  0  0  0  0  0  0  0  0  0  0
    0.7533   -0.6191    2.0022 O   0  0  0  0  0  0  0  0  0  0  0  0
   -2.1232   -2.2423    2.4042 C   0  0  0  0  0  0  0  0  0  0  0  0
   -0.3048   -4.0823    2.0245 H   0  0  0  0  0  0  0  0  0  0  0  0
   -1.3830   -2.3724    0.3801 H   0  0  0  0  0  0  0  0  0  0  0  0
   -1.7534   -2.0527    3.4185 H   0  0  0  0  0  0  0  0  0  0  0  0
   -2.8936   -1.4947    2.1882 H   0  0  0  0  0  0  0  0  0  0  0  0
   -2.5964   -3.2301    2.4022 H   0  0  0  0  0  0  0  0  0  0  0  0
   -1.0412    0.1517    0.7482 N   0  0  0  0  0  0  0  0  0  0  0  0
   -0.6079    1.5223    0.6467 C   0  0  2  0  0  0  0  0  0  0  0  0
   -0.8094    1.9798   -0.7973 C   0  0  0  0  0  0  0  0  0  0  0  0
   -1.5241    1.3767   -1.5953 O   0  0  0  0  0  0  0  0  0  0  0  0
    0.8442    1.7351    1.1383 C   0  0  2  0  0  0  0  0  0  0  0  0
    1.0075    1.4062    2.6388 C   0  0  0  0  0  0  0  0  0  0  0  0
    1.3064    3.1629    0.8183 C   0  0  0  0  0  0  0  0  0  0  0  0
    2.4605    1.3473    3.0927 C   0  0  0  0  0  0  0  0  0  0  0  0
   -1.9022   -0.1128    0.2753 H   0  0  0  0  0  0  0  0  0  0  0  0
   -1.2984    2.1023    1.2724 H   0  0  0  0  0  0  0  0  0  0  0  0
    1.4955    1.0535    0.5749 H   0  0  0  0  0  0  0  0  0  0  0  0
    0.5029    2.1715    3.2397 H   0  0  0  0  0  0  0  0  0  0  0  0
    0.5268    0.4495    2.8751 H   0  0  0  0  0  0  0  0  0  0  0  0
    0.6947    3.8988    1.3513 H   0  0  0  0  0  0  0  0  0  0  0  0
    2.3432    3.3228    1.1295 H   0  0  0  0  0  0  0  0  0  0  0  0
    1.2381    3.3765   -0.2534 H   0  0  0  0  0  0  0  0  0  0  0  0
    3.0279    0.5993    2.5316 H   0  0  0  0  0  0  0  0  0  0  0  0
    2.5109    1.0720    4.1513 H   0  0  0  0  0  0  0  0  0  0  0  0
    2.9499    2.3188    2.9727 H   0  0  0  0  0  0  0  0  0  0  0  0
   -0.1248    3.1545   -1.0749 N   0  0  0  0  0  0  0  0  0  0  0  0
   -0.1642    3.8099   -2.3623 C   0  0  2  0  0  0  0  0  0  0  0  0
    0.0905    5.2952   -2.1418 C   0  0  0  0  0  0  0  0  0  0  0  0
   -0.1047    5.8568   -1.0659 O   0  0  0  0  0  0  0  0  0  0  0  0
   -1.4979    3.5845   -3.0573 C   0  0  0  0  0  0  0  0  0  0  0  0
    0.4319    3.5746   -0.3364 H   0  0  0  0  0  0  0  0  0  0  0  0
    0.6496    3.3839   -2.9592 H   0  0  0  0  0  0  0  0  0  0  0  0
   -2.3254    4.0046   -2.4741 H   0  0  0  0  0  0  0  0  0  0  0  0
   -1.5158    4.0577   -4.0446 H   0  0  0  0  0  0  0  0  0  0  0  0
   -1.6932    2.5147   -3.1883 H   0  0  0  0  0  0  0  0  0  0  0  0
    0.5204    5.9284   -3.2995 N   0  0  0  0  0  0  0  0  0  0  0  0
    0.8170    7.3410   -3.3514 C   0  0  0  0  0  0  0  0  0  0  0  0
    0.6731    5.3809   -4.1413 H   0  0  0  0  0  0  0  0  0  0  0  0
   -0.0805    7.8933   -3.6667 H   0  0  0  0  0  0  0  0  0  0  0  0
    1.1290    7.6868   -2.3548 H   0  0  0  0  0  0  0  0  0  0  0  0
    1.6289    7.5189   -4.0720 H   0  0  0  0  0  0  0  0  0  0  0  0
  1  3  1  0  0  0  0
  1  7  1  0  0  0  0
  1  2  2  0  0  0  0
 37 38  1  0  0  0  0
 38 46  1  0  0  0  0
 38 39  2  0  0  0  0
  8  9  1  0  0  0  0
  9 17  1  0  0  0  0
  9 10  2  0  0  0  0
 18 19  1  0  0  0  0
 19 36  1  0  0  0  0
 19 20  2  0  0  0  0
 22 24  1  0  0  0  0
 37 40  1  0  0  0  0
  8 11  1  0  0  0  0
 21 23  1  0  0  0  0
 46 47  1  0  0  0  0
 21 22  1  0  0  0  0
 36 37  1  0  0  0  0
  7  8  1  0  0  0  0
 18 21  1  0  0  0  0
 17 18  1  0  0  0  0
  3  4  1  0  0  0  0
  3  5  1  0  0  0  0
  3  6  1  0  0  0  0
 24 33  1  0  0  0  0
 24 34  1  0  0  0  0
 24 35  1  0  0  0  0
 40 43  1  0  0  0  0
 40 44  1  0  0  0  0
 40 45  1  0  0  0  0
 11 14  1  0  0  0  0
 11 15  1  0  0  0  0
 11 16  1  0  0  0  0
 23 30  1  0  0  0  0
 23 31  1  0  0  0  0
 23 32  1  0  0  0  0
 47 49  1  0  0  0  0
 47 50  1  0  0  0  0
 47 51  1  0  0  0  0
 22 28  1  0  0  0  0
 22 29  1  0  0  0  0
 37 42  1  0  0  0  0
  8 13  1  0  0  0  0
 18 26  1  0  0  0  0
 21 27  1  0  0  0  0
 46 48  1  0  0  0  0
  7 12  1  0  0  0  0
 36 41  1  0  0  0  0
 17 25  1  0  0  0  0
M  END
$$$$

  -OEChem-05262214473D

 51 50  0     1  0  0  0  0  0999 V2000
    1.3524   -3.0009    1.4091 C   0  0  0  0  0  0  0  0  0  0  0  0
    1.8758   -1.9880    0.9598 O   0  0  0  0  0  0  0  0  0  0  0  0
    2.2030   -4.1782    1.7536 C   0  0  0  0  0  0  0  0  0  0  0  0
    2.3264   -4.8705    0.9053 H   0  0  0  0  0  0  0  0  0  0  0  0
    3.2257   -3.8876    2.0432 H   0  0  0  0  0  0  0  0  0  0  0  0
    1.8327   -4.8004    2.5839 H   0  0  0  0  0  0  0  0  0  0  0  0
    0.0005   -3.1873    1.6465 N   0  0  0  0  0  0  0  0  0  0  0  0
   -0.9949   -2.1807    1.3864 C   0  0  2  0  0  0  0  0  0  0  0  0
   -0.3083   -0.8216    1.4164 C   0  0  0  0  0  0  0  0  0  0  0  0
    0.7533   -0.6191    2.0022 O   0  0  0  0  0  0  0  0  0  0  0  0
   -2.1232   -2.2423    2.4042 C   0  0  0  0  0  0  0  0  0  0  0  0
   -0.3048   -4.0823    2.0245 H   0  0  0  0  0  0  0  0  0  0  0  0
   -1.3830   -2.3724    0.3801 H   0  0  0  0  0  0  0  0  0  0  0  0
   -1.7534   -2.0527    3.4185 H   0  0  0  0  0  0  0  0  0  0  0  0
   -2.8936   -1.4947    2.1882 H   0  0  0  0  0  0  0  0  0  0  0  0
   -2.5964   -3.2301    2.4022 H   0  0  0  0  0  0  0  0  0  0  0  0
   -1.0412    0.1517    0.7482 N   0  0  0  0  0  0  0  0  0  0  0  0
   -0.6079    1.5223    0.6467 C   0  0  2  0  0  0  0  0  0  0  0  0
   -0.8094    1.9798   -0.7973 C   0  0  0  0  0  0  0  0  0  0  0  0
   -1.7121    1.5516   -1.5137 O   0  0  0  0  0  0  0  0  0  0  0  0
    0.8442    1.7351    1.1383 C   0  0  2  0  0  0  0  0  0  0  0  0
    1.0075    1.4062    2.6388 C   0  0  0  0  0  0  0  0  0  0  0  0
    1.3064    3.1629    0.8183 C   0  0  0  0  0  0  0  0  0  0  0  0
    2.4605    1.3473    3.0927 C   0  0  0  0  0  0  0  0  0  0  0  0
   -1.9022   -0.1128    0.2753 H   0  0  0  0  0  0  0  0  0  0  0  0
   -1.2984    2.1023    1.2724 H   0  0  0  0  0  0  0  0  0  0  0  0
    1.4955    1.0535    0.5749 H   0  0  0  0  0  0  0  0  0  0  0  0
    0.5029    2.1715    3.2397 H   0  0  0  0  0  0  0  0  0  0  0  0
    0.5268    0.4495    2.8751 H   0  0  0  0  0  0  0  0  0  0  0  0
    0.6947    3.8988    1.3513 H   0  0  0  0  0  0  0  0  0  0  0  0
    2.3432    3.3228    1.1295 H   0  0  0  0  0  0  0  0  0  0  0  0
    1.2381    3.3765   -0.2534 H   0  0  0  0  0  0  0  0  0  0  0  0
    3.0279    0.5993    2.5316 H   0  0  0  0  0  0  0  0  0  0  0  0
    2.5109    1.0720    4.1513 H   0  0  0  0  0  0  0  0  0  0  0  0
    2.9499    2.3188    2.9727 H   0  0  0  0  0  0  0  0  0  0  0  0
    0.1153    2.9429   -1.1754 N   0  0  0  0  0  0  0  0  0  0  0  0
    0.1314    3.5562   -2.4839 C   0  0  2  0  0  0  0  0  0  0  0  0
    0.7569    4.9381   -2.3479 C   0  0  0  0  0  0  0  0  0  0  0  0
    0.7927    5.5567   -1.2862 O   0  0  0  0  0  0  0  0  0  0  0  0
   -1.2693    3.6487   -3.0689 C   0  0  0  0  0  0  0  0  0  0  0  0
    0.8159    3.2311   -0.4988 H   0  0  0  0  0  0  0  0  0  0  0  0
    0.7655    2.9286   -3.1196 H   0  0  0  0  0  0  0  0  0  0  0  0
   -1.9192    4.2736   -2.4455 H   0  0  0  0  0  0  0  0  0  0  0  0
   -1.2522    4.0875   -4.0720 H   0  0  0  0  0  0  0  0  0  0  0  0
   -1.7290    2.6569   -3.1383 H   0  0  0  0  0  0  0  0  0  0  0  0
    1.2318    5.4177   -3.5606 N   0  0  0  0  0  0  0  0  0  0  0  0
    1.8579    6.7122   -3.6958 C   0  0  0  0  0  0  0  0  0  0  0  0
    1.1774    4.8290   -4.3866 H   0  0  0  0  0  0  0  0  0  0  0  0
    1.0990    7.4604   -3.9684 H   0  0  0  0  0  0  0  0  0  0  0  0
    2.3249    6.9950   -2.7409 H   0  0  0  0  0  0  0  0  0  0  0  0
    2.6269    6.6673   -4.4810 H   0  0  0  0  0  0  0  0  0  0  0  0
  1  3  1  0  0  0  0
  1  7  1  0  0  0  0
  1  2  2  0  0  0  0
 37 38  1  0  0  0  0
 38 46  1  0  0  0  0
 38 39  2  0  0  0  0
  8  9  1  0  0  0  0
  9 17  1  0  0  0  0
  9 10  2  0  0  0  0
 18 19  1  0  0  0  0
 19 36  1  0  0  0  0
 19 20  2  0  0  0  0
 22 24  1  0  0  0  0
 37 40  1  0  0  0  0
  8 11  1  0  0  0  0
 21 23  1  0  0  0  0
 46 47  1  0  0  0  0
 21 22  1  0  0  0  0
 36 37  1  0  0  0  0
  7  8  1  0  0  0  0
 18 21  1  0  0  0  0
 17 18  1  0  0  0  0
  3  4  1  0  0  0  0
  3  5  1  0  0  0  0
  3  6  1  0  0  0  0
 24 33  1  0  0  0  0
 24 34  1  0  0  0  0
 24 35  1  0  0  0  0
 40 43  1  0  0  0  0
 40 44  1  0  0  0  0
 40 45  1  0  0  0  0
 11 14  1  0  0  0  0
 11 15  1  0  0  0  0
 11 16  1  0  0  0  0
 23 30  1  0  0  0  0
 23 31  1  0  0  0  0
 23 32  1  0  0  0  0
 47 49  1  0  0  0  0
 47 50  1  0  0  0  0
 47 51  1  0  0  0  0
 22 28  1  0  0  0  0
 22 29  1  0  0  0  0
 37 42  1  0  0  0  0
  8 13  1  0  0  0  0
 18 26  1  0  0  0  0
 21 27  1  0  0  0  0
 46 48  1  0  0  0  0
  7 12  1  0  0  0  0
 36 41  1  0  0  0  0
 17 25  1  0  0  0  0
M  END
$$$$

  -OEChem-05262214473D

 51 50  0     1  0  0  0  0  0999 V2000
    1.3524   -3.0009    1.4091 C   0  0  0  0  0  0  0  0  0  0  0  0
    1.8758   -1.9880    0.9598 O   0  0  0  0  0  0  0  0  0  0  0  0
    2.2030   -4.1782    1.7536 C   0  0  0  0  0  0  0  0  0  0  0  0
    2.3264   -4.8705    0.9053 H   0  0  0  0  0  0  0  0  0  0  0  0
    3.2257   -3.8876    2.0432 H   0  0  0  0  0  0  0  0  0  0  0  0
    1.8327   -4.8004    2.5839 H   0  0  0  0  0  0  0  0  0  0  0  0
    0.0005   -3.1873    1.6465 N   0  0  0  0  0  0  0  0  0  0  0  0
   -0.9949   -2.1807    1.3864 C   0  0  2  0  0  0  0  0  0  0  0  0
   -0.3083   -0.8216    1.4164 C   0  0  0  0  0  0  0  0  0  0  0  0
    0.7533   -0.6191    2.0022 O   0  0  0  0  0  0  0  0  0  0  0  0
   -2.1232   -2.2423    2.4042 C   0  0  0  0  0  0  0  0  0  0  0  0
   -0.3048   -4.0823    2.0245 H   0  0  0  0  0  0  0  0  0  0  0  0
   -1.3830   -2.3724    0.3801 H   0  0  0  0  0  0  0  0  0  0  0  0
   -1.7534   -2.0527    3.4185 H   0  0  0  0  0  0  0  0  0  0  0  0
   -2.8936   -1.4947    2.1882 H   0  0  0  0  0  0  0  0  0  0  0  0
   -2.5964   -3.2301    2.4022 H   0  0  0  0  0  0  0  0  0  0  0  0
   -1.0412    0.1517    0.7482 N   0  0  0  0  0  0  0  0  0  0  0  0
   -0.6079    1.5223    0.6467 C   0  0  2  0  0  0  0  0  0  0  0  0
   -0.8094    1.9798   -0.7973 C   0  0  0  0  0  0  0  0  0  0  0  0
   -1.8446    1.7694   -1.4262 O   0  0  0  0  0  0  0  0  0  0  0  0
    0.8442    1.7351    1.1383 C   0  0  2  0  0  0  0  0  0  0  0  0
    1.0075    1.4062    2.6388 C   0  0  0  0  0  0  0  0  0  0  0  0
    1.3064    3.1629    0.8183 C   0  0  0  0  0  0  0  0  0  0  0  0
    2.4605    1.3473    3.0927 C   0  0  0  0  0  0  0  0  0  0  0  0
   -1.9022   -0.1128    0.2753 H   0  0  0  0  0  0  0  0  0  0  0  0
   -1.2984    2.1023    1.2724 H   0  0  0  0  0  0  0  0  0  0  0  0
    1.4955    1.0535    0.5749 H   0  0  0  0  0  0  0  0  0  0  0  0
    0.5029    2.1715    3.2397 H   0  0  0  0  0  0  0  0  0  0  0  0
    0.5268    0.4495    2.8751 H   0  0  0  0  0  0  0  0  0  0  0  0
    0.6947    3.8988    1.3513 H   0  0  0  0  0  0  0  0  0  0  0  0
    2.3432    3.3228    1.1295 H   0  0  0  0  0  0  0  0  0  0  0  0
    1.2381    3.3765   -0.2534 H   0  0  0  0  0  0  0  0  0  0  0  0
    3.0279    0.5993    2.5316 H   0  0  0  0  0  0  0  0  0  0  0  0
    2.5109    1.0720    4.1513 H   0  0  0  0  0  0  0  0  0  0  0  0
    2.9499    2.3188    2.9727 H   0  0  0  0  0  0  0  0  0  0  0  0
    0.2877    2.6763   -1.2839 N   0  0  0  0  0  0  0  0  0  0  0  0
    0.3455    3.2346   -2.6156 C   0  0  2  0  0  0  0  0  0  0  0  0
    1.2973    4.4232   -2.5864 C   0  0  0  0  0  0  0  0  0  0  0  0
    1.5691    5.0398   -1.5583 O   0  0  0  0  0  0  0  0  0  0  0  0
   -1.0336    3.6544   -3.0999 C   0  0  0  0  0  0  0  0  0  0  0  0
    1.0902    2.7999   -0.6737 H   0  0  0  0  0  0  0  0  0  0  0  0
    0.7538    2.4550   -3.2680 H   0  0  0  0  0  0  0  0  0  0  0  0
   -1.4588    4.4350   -2.4586 H   0  0  0  0  0  0  0  0  0  0  0  0
   -0.9923    4.0508   -4.1198 H   0  0  0  0  0  0  0  0  0  0  0  0
   -1.7248    2.8047   -3.0920 H   0  0  0  0  0  0  0  0  0  0  0  0
    1.7738    4.7414   -3.8505 N   0  0  0  0  0  0  0  0  0  0  0  0
    2.6827    5.8385   -4.0877 C   0  0  0  0  0  0  0  0  0  0  0  0
    1.5105    4.1641   -4.6437 H   0  0  0  0  0  0  0  0  0  0  0  0
    2.1089    6.7435   -4.3364 H   0  0  0  0  0  0  0  0  0  0  0  0
    3.2810    6.0210   -3.1828 H   0  0  0  0  0  0  0  0  0  0  0  0
    3.3509    5.5866   -4.9244 H   0  0  0  0  0  0  0  0  0  0  0  0
  1  3  1  0  0  0  0
  1  7  1  0  0  0  0
  1  2  2  0  0  0  0
 37 38  1  0  0  0  0
 38 46  1  0  0  0  0
 38 39  2  0  0  0  0
  8  9  1  0  0  0  0
  9 17  1  0  0  0  0
  9 10  2  0  0  0  0
 18 19  1  0  0  0  0
 19 36  1  0  0  0  0
 19 20  2  0  0  0  0
 22 24  1  0  0  0  0
 37 40  1  0  0  0  0
  8 11  1  0  0  0  0
 21 23  1  0  0  0  0
 46 47  1  0  0  0  0
 21 22  1  0  0  0  0
 36 37  1  0  0  0  0
  7  8  1  0  0  0  0
 18 21  1  0  0  0  0
 17 18  1  0  0  0  0
  3  4  1  0  0  0  0
  3  5  1  0  0  0  0
  3  6  1  0  0  0  0
 24 33  1  0  0  0  0
 24 34  1  0  0  0  0
 24 35  1  0  0  0  0
 40 43  1  0  0  0  0
 40 44  1  0  0  0  0
 40 45  1  0  0  0  0
 11 14  1  0  0  0  0
 11 15  1  0  0  0  0
 11 16  1  0  0  0  0
 23 30  1  0  0  0  0
 23 31  1  0  0  0  0
 23 32  1  0  0  0  0
 47 49  1  0  0  0  0
 47 50  1  0  0  0  0
 47 51  1  0  0  0  0
 22 28  1  0  0  0  0
 22 29  1  0  0  0  0
 37 42  1  0  0  0  0
  8 13  1  0  0  0  0
 18 26  1  0  0  0  0
 21 27  1  0  0  0  0
 46 48  1  0  0  0  0
  7 12  1  0  0  0  0
 36 41  1  0  0  0  0
 17 25  1  0  0  0  0
M  END
$$$$

  -OEChem-05262214473D

 51 50  0     1  0  0  0  0  0999 V2000
    1.3524   -3.0009    1.4091 C   0  0  0  0  0  0  0  0  0  0  0  0
    1.8758   -1.9880    0.9598 O   0  0  0  0  0  0  0  0  0  0  0  0
    2.2030   -4.1782    1.7536 C   0  0  0  0  0  0  0  0  0  0  0  0
    2.3264   -4.8705    0.9053 H   0  0  0  0  0  0  0  0  0  0  0  0
    3.2257   -3.8876    2.0432 H   0  0  0  0  0  0  0  0  0  0  0  0
    1.8327   -4.8004    2.5839 H   0  0  0  0  0  0  0  0  0  0  0  0
    0.0005   -3.1873    1.6465 N   0  0  0  0  0  0  0  0  0  0  0  0
   -0.9949   -2.1807    1.3864 C   0  0  2  0  0  0  0  0  0  0  0  0
   -0.3083   -0.8216    1.4164 C   0  0  0  0  0  0  0  0  0  0  0  0
    0.7533   -0.6191    2.0022 O   0  0  0  0  0  0  0  0  0  0  0  0
   -2.1232   -2.2423    2.4042 C   0  0  0  0  0  0  0  0  0  0  0  0
   -0.3048   -4.0823    2.0245 H   0  0  0  0  0  0  0  0  0  0  0  0
   -1.3830   -2.3724    0.3801 H   0  0  0  0  0  0  0  0  0  0  0  0
   -1.7534   -2.0527    3.4185 H   0  0  0  0  0  0  0  0  0  0  0  0
   -2.8936   -1.4947    2.1882 H   0  0  0  0  0  0  0  0  0  0  0  0
   -2.5964   -3.2301    2.4022 H   0  0  0  0  0  0  0  0  0  0  0  0
   -1.0412    0.1517    0.7482 N   0  0  0  0  0  0  0  0  0  0  0  0
   -0.6079    1.5223    0.6467 C   0  0  2  0  0  0  0  0  0  0  0  0
   -0.8094    1.9798   -0.7973 C   0  0  0  0  0  0  0  0  0  0  0  0
   -1.9125    2.0151   -1.3389 O   0  0  0  0  0  0  0  0  0  0  0  0
    0.8442    1.7351    1.1383 C   0  0  2  0  0  0  0  0  0  0  0  0
    1.0075    1.4062    2.6388 C   0  0  0  0  0  0  0  0  0  0  0  0
    1.3064    3.1629    0.8183 C   0  0  0  0  0  0  0  0  0  0  0  0
    2.4605    1.3473    3.0927 C   0  0  0  0  0  0  0  0  0  0  0  0
   -1.9022   -0.1128    0.2753 H   0  0  0  0  0  0  0  0  0  0  0  0
   -1.2984    2.1023    1.2724 H   0  0  0  0  0  0  0  0  0  0  0  0
    1.4955    1.0535    0.5749 H   0  0  0  0  0  0  0  0  0  0  0  0
    0.5029    2.1715    3.2397 H   0  0  0  0  0  0  0  0  0  0  0  0
    0.5268    0.4495    2.8751 H   0  0  0  0  0  0  0  0  0  0  0  0
    0.6947    3.8988    1.3513 H   0  0  0  0  0  0  0  0  0  0  0  0
    2.3432    3.3228    1.1295 H   0  0  0  0  0  0  0  0  0  0  0  0
    1.2381    3.3765   -0.2534 H   0  0  0  0  0  0  0  0  0  0  0  0
    3.0279    0.5993    2.5316 H   0  0  0  0  0  0  0  0  0  0  0  0
    2.5109    1.0720    4.1513 H   0  0  0  0  0  0  0  0  0  0  0  0
    2.9499    2.3188    2.9727 H   0  0  0  0  0  0  0  0  0  0  0  0
    0.3806    2.3730   -1.3930 N   0  0  0  0  0  0  0  0  0  0  0  0
    0.4634    2.8672   -2.7485 C   0  0  2  0  0  0  0  0  0  0  0  0
    1.6748    3.7856   -2.8411 C   0  0  0  0  0  0  0  0  0  0  0  0
    2.1716    4.3413   -1.8636 O   0  0  0  0  0  0  0  0  0  0  0  0
   -0.8070    3.6013   -3.1484 C   0  0  0  0  0  0  0  0  0  0  0  0
    1.2362    2.3104   -0.8491 H   0  0  0  0  0  0  0  0  0  0  0  0
    0.6151    1.9954   -3.3943 H   0  0  0  0  0  0  0  0  0  0  0  0
   -0.9757    4.4779   -2.5124 H   0  0  0  0  0  0  0  0  0  0  0  0
   -0.7540    3.9502   -4.1850 H   0  0  0  0  0  0  0  0  0  0  0  0
   -1.6811    2.9481   -3.0527 H   0  0  0  0  0  0  0  0  0  0  0  0
    2.1095    3.9457   -4.1494 N   0  0  0  0  0  0  0  0  0  0  0  0
    3.2354    4.7795   -4.5003 C   0  0  0  0  0  0  0  0  0  0  0  0
    1.6498    3.4317   -4.8952 H   0  0  0  0  0  0  0  0  0  0  0  0
    2.8806    5.7914   -4.7457 H   0  0  0  0  0  0  0  0  0  0  0  0
    3.9320    4.8314   -3.6506 H   0  0  0  0  0  0  0  0  0  0  0  0
    3.7516    4.3506   -5.3719 H   0  0  0  0  0  0  0  0  0  0  0  0
  1  3  1  0  0  0  0
  1  7  1  0  0  0  0
  1  2  2  0  0  0  0
 37 38  1  0  0  0  0
 38 46  1  0  0  0  0
 38 39  2  0  0  0  0
  8  9  1  0  0  0  0
  9 17  1  0  0  0  0
  9 10  2  0  0  0  0
 18 19  1  0  0  0  0
 19 36  1  0  0  0  0
 19 20  2  0  0  0  0
 22 24  1  0  0  0  0
 37 40  1  0  0  0  0
  8 11  1  0  0  0  0
 21 23  1  0  0  0  0
 46 47  1  0  0  0  0
 21 22  1  0  0  0  0
 36 37  1  0  0  0  0
  7  8  1  0  0  0  0
 18 21  1  0  0  0  0
 17 18  1  0  0  0  0
  3  4  1  0  0  0  0
  3  5  1  0  0  0  0
  3  6  1  0  0  0  0
 24 33  1  0  0  0  0
 24 34  1  0  0  0  0
 24 35  1  0  0  0  0
 40 43  1  0  0  0  0
 40 44  1  0  0  0  0
 40 45  1  0  0  0  0
 11 14  1  0  0  0  0
 11 15  1  0  0  0  0
 11 16  1  0  0  0  0
 23 30  1  0  0  0  0
 23 31  1  0  0  0  0
 23 32  1  0  0  0  0
 47 49  1  0  0  0  0
 47 50  1  0  0  0  0
 47 51  1  0  0  0  0
 22 28  1  0  0  0  0
 22 29  1  0  0  0  0
 37 42  1  0  0  0  0
  8 13  1  0  0  0  0
 18 26  1  0  0  0  0
 21 27  1  0  0  0  0
 46 48  1  0  0  0  0
  7 12  1  0  0  0  0
 36 41  1  0  0  0  0
 17 25  1  0  0  0  0
M  END
$$$$

  -OEChem-05262214473D

 51 50  0     1  0  0  0  0  0999 V2000
    1.3524   -3.0009    1.4091 C   0  0  0  0  0  0  0  0  0  0  0  0
    1.8758   -1.9880    0.9598 O   0  0  0  0  0  0  0  0  0  0  0  0
    2.2030   -4.1782    1.7536 C   0  0  0  0  0  0  0  0  0  0  0  0
    2.3264   -4.8705    0.9053 H   0  0  0  0  0  0  0  0  0  0  0  0
    3.2257   -3.8876    2.0432 H   0  0  0  0  0  0  0  0  0  0  0  0
    1.8327   -4.8004    2.5839 H   0  0  0  0  0  0  0  0  0  0  0  0
    0.0005   -3.1873    1.6465 N   0  0  0  0  0  0  0  0  0  0  0  0
   -0.9949   -2.1807    1.3864 C   0  0  2  0  0  0  0  0  0  0  0  0
   -0.3083   -0.8216    1.4164 C   0  0  0  0  0  0  0  0  0  0  0  0
    0.7533   -0.6191    2.0022 O   0  0  0  0  0  0  0  0  0  0  0  0
   -2.1232   -2.2423    2.4042 C   0  0  0  0  0  0  0  0  0  0  0  0
   -0.3048   -4.0823    2.0245 H   0  0  0  0  0  0  0  0  0  0  0  0
   -1.3830   -2.3724    0.3801 H   0  0  0  0  0  0  0  0  0  0  0  0
   -1.7534   -2.0527    3.4185 H   0  0  0  0  0  0  0  0  0  0  0  0
   -2.8936   -1.4947    2.1882 H   0  0  0  0  0  0  0  0  0  0  0  0
   -2.5964   -3.2301    2.4022 H   0  0  0  0  0  0  0  0  0  0  0  0
   -1.0412    0.1517    0.7482 N   0  0  0  0  0  0  0  0  0  0  0  0
   -0.6079    1.5223    0.6467 C   0  0  2  0  0  0  0  0  0  0  0  0
   -0.8094    1.9798   -0.7973 C   0  0  0  0  0  0  0  0  0  0  0  0
   -1.9113    2.2720   -1.2577 O   0  0  0  0  0  0  0  0  0  0  0  0
    0.8442    1.7351    1.1383 C   0  0  2  0  0  0  0  0  0  0  0  0
    1.0075    1.4062    2.6388 C   0  0  0  0  0  0  0  0  0  0  0  0
    1.3064    3.1629    0.8183 C   0  0  0  0  0  0  0  0  0  0  0  0
    2.4605    1.3473    3.0927 C   0  0  0  0  0  0  0  0  0  0  0  0
   -1.9022   -0.1128    0.2753 H   0  0  0  0  0  0  0  0  0  0  0  0
   -1.2984    2.1023    1.2724 H   0  0  0  0  0  0  0  0  0  0  0  0
    1.4955    1.0535    0.5749 H   0  0  0  0  0  0  0  0  0  0  0  0
    0.5029    2.1715    3.2397 H   0  0  0  0  0  0  0  0  0  0  0  0
    0.5268    0.4495    2.8751 H   0  0  0  0  0  0  0  0  0  0  0  0
    0.6947    3.8988    1.3513 H   0  0  0  0  0  0  0  0  0  0  0  0
    2.3432    3.3228    1.1295 H   0  0  0  0  0  0  0  0  0  0  0  0
    1.2381    3.3765   -0.2534 H   0  0  0  0  0  0  0  0  0  0  0  0
    3.0279    0.5993    2.5316 H   0  0  0  0  0  0  0  0  0  0  0  0
    2.5109    1.0720    4.1513 H   0  0  0  0  0  0  0  0  0  0  0  0
    2.9499    2.3188    2.9727 H   0  0  0  0  0  0  0  0  0  0  0  0
    0.3877    2.0536   -1.4952 N   0  0  0  0  0  0  0  0  0  0  0  0
    0.4771    2.4789   -2.8734 C   0  0  2  0  0  0  0  0  0  0  0  0
    1.8638    3.0686   -3.0946 C   0  0  0  0  0  0  0  0  0  0  0  0
    2.5590    3.5089   -2.1814 O   0  0  0  0  0  0  0  0  0  0  0  0
   -0.6049    3.4928   -3.2110 C   0  0  0  0  0  0  0  0  0  0  0  0
    1.2438    1.7958   -1.0132 H   0  0  0  0  0  0  0  0  0  0  0  0
    0.3589    1.5810   -3.4898 H   0  0  0  0  0  0  0  0  0  0  0  0
   -0.5027    4.3994   -2.6033 H   0  0  0  0  0  0  0  0  0  0  0  0
   -0.5535    3.7926   -4.2629 H   0  0  0  0  0  0  0  0  0  0  0  0
   -1.6007    3.0772   -3.0230 H   0  0  0  0  0  0  0  0  0  0  0  0
    2.2160    3.0849   -4.4370 N   0  0  0  0  0  0  0  0  0  0  0  0
    3.4783    3.6073   -4.9056 C   0  0  0  0  0  0  0  0  0  0  0  0
    1.5856    2.6816   -5.1239 H   0  0  0  0  0  0  0  0  0  0  0  0
    3.3615    4.6690   -5.1684 H   0  0  0  0  0  0  0  0  0  0  0  0
    4.2336    3.5071   -4.1122 H   0  0  0  0  0  0  0  0  0  0  0  0
    3.8016    3.0435   -5.7930 H   0  0  0  0  0  0  0  0  0  0  0  0
  1  3  1  0  0  0  0
  1  7  1  0  0  0  0
  1  2  2  0  0  0  0
 37 38  1  0  0  0  0
 38 46  1  0  0  0  0
 38 39  2  0  0  0  0
  8  9  1  0  0  0  0
  9 17  1  0  0  0  0
  9 10  2  0  0  0  0
 18 19  1  0  0  0  0
 19 36  1  0  0  0  0
 19 20  2  0  0  0  0
 22 24  1  0  0  0  0
 37 40  1  0  0  0  0
  8 11  1  0  0  0  0
 21 23  1  0  0  0  0
 46 47  1  0  0  0  0
 21 22  1  0  0  0  0
 36 37  1  0  0  0  0
  7  8  1  0  0  0  0
 18 21  1  0  0  0  0
 17 18  1  0  0  0  0
  3  4  1  0  0  0  0
  3  5  1  0  0  0  0
  3  6  1  0  0  0  0
 24 33  1  0  0  0  0
 24 34  1  0  0  0  0
 24 35  1  0  0  0  0
 40 43  1  0  0  0  0
 40 44  1  0  0  0  0
 40 45  1  0  0  0  0
 11 14  1  0  0  0  0
 11 15  1  0  0  0  0
 11 16  1  0  0  0  0
 23 30  1  0  0  0  0
 23 31  1  0  0  0  0
 23 32  1  0  0  0  0
 47 49  1  0  0  0  0
 47 50  1  0  0  0  0
 47 51  1  0  0  0  0
 22 28  1  0  0  0  0
 22 29  1  0  0  0  0
 37 42  1  0  0  0  0
  8 13  1  0  0  0  0
 18 26  1  0  0  0  0
 21 27  1  0  0  0  0
 46 48  1  0  0  0  0
  7 12  1  0  0  0  0
 36 41  1  0  0  0  0
 17 25  1  0  0  0  0
M  END
$$$$

  -OEChem-05262214473D

 51 50  0     1  0  0  0  0  0999 V2000
    1.3524   -3.0009    1.4091 C   0  0  0  0  0  0  0  0  0  0  0  0
    1.8758   -1.9880    0.9598 O   0  0  0  0  0  0  0  0  0  0  0  0
    2.2030   -4.1782    1.7536 C   0  0  0  0  0  0  0  0  0  0  0  0
    2.3264   -4.8705    0.9053 H   0  0  0  0  0  0  0  0  0  0  0  0
    3.2257   -3.8876    2.0432 H   0  0  0  0  0  0  0  0  0  0  0  0
    1.8327   -4.8004    2.5839 H   0  0  0  0  0  0  0  0  0  0  0  0
    0.0005   -3.1873    1.6465 N   0  0  0  0  0  0  0  0  0  0  0  0
   -0.9949   -2.1807    1.3864 C   0  0  2  0  0  0  0  0  0  0  0  0
   -0.3083   -0.8216    1.4164 C   0  0  0  0  0  0  0  0  0  0  0  0
    0.7533   -0.6191    2.0022 O   0  0  0  0  0  0  0  0  0  0  0  0
   -2.1232   -2.2423    2.4042 C   0  0  0  0  0  0  0  0  0  0  0  0
   -0.3048   -4.0823    2.0245 H   0  0  0  0  0  0  0  0  0  0  0  0
   -1.3830   -2.3724    0.3801 H   0  0  0  0  0  0  0  0  0  0  0  0
   -1.7534   -2.0527    3.4185 H   0  0  0  0  0  0  0  0  0  0  0  0
   -2.8936   -1.4947    2.1882 H   0  0  0  0  0  0  0  0  0  0  0  0
   -2.5964   -3.2301    2.4022 H   0  0  0  0  0  0  0  0  0  0  0  0
   -1.0412    0.1517    0.7482 N   0  0  0  0  0  0  0  0  0  0  0  0
   -0.6079    1.5223    0.6467 C   0  0  2  0  0  0  0  0  0  0  0  0
   -0.8094    1.9798   -0.7973 C   0  0  0  0  0  0  0  0  0  0  0  0
   -1.8409    2.5226   -1.1881 O   0  0  0  0  0  0  0  0  0  0  0  0
    0.8442    1.7351    1.1383 C   0  0  2  0  0  0  0  0  0  0  0  0
    1.0075    1.4062    2.6388 C   0  0  0  0  0  0  0  0  0  0  0  0
    1.3064    3.1629    0.8183 C   0  0  0  0  0  0  0  0  0  0  0  0
    2.4605    1.3473    3.0927 C   0  0  0  0  0  0  0  0  0  0  0  0
   -1.9022   -0.1128    0.2753 H   0  0  0  0  0  0  0  0  0  0  0  0
   -1.2984    2.1023    1.2724 H   0  0  0  0  0  0  0  0  0  0  0  0
    1.4955    1.0535    0.5749 H   0  0  0  0  0  0  0  0  0  0  0  0
    0.5029    2.1715    3.2397 H   0  0  0  0  0  0  0  0  0  0  0  0
    0.5268    0.4495    2.8751 H   0  0  0  0  0  0  0  0  0  0  0  0
    0.6947    3.8988    1.3513 H   0  0  0  0  0  0  0  0  0  0  0  0
    2.3432    3.3228    1.1295 H   0  0  0  0  0  0  0  0  0  0  0  0
    1.2381    3.3765   -0.2534 H   0  0  0  0  0  0  0  0  0  0  0  0
    3.0279    0.5993    2.5316 H   0  0  0  0  0  0  0  0  0  0  0  0
    2.5109    1.0720    4.1513 H   0  0  0  0  0  0  0  0  0  0  0  0
    2.9499    2.3188    2.9727 H   0  0  0  0  0  0  0  0  0  0  0  0
    0.3086    1.7398   -1.5835 N   0  0  0  0  0  0  0  0  0  0  0  0
    0.3858    2.0962   -2.9819 C   0  0  2  0  0  0  0  0  0  0  0  0
    1.8514    2.3212   -3.3297 C   0  0  0  0  0  0  0  0  0  0  0  0
    2.7050    2.5992   -2.4900 O   0  0  0  0  0  0  0  0  0  0  0  0
   -0.4410    3.3365   -3.2833 C   0  0  0  0  0  0  0  0  0  0  0  0
    1.1127    1.2913   -1.1548 H   0  0  0  0  0  0  0  0  0  0  0  0
    0.0027    1.2402   -3.5481 H   0  0  0  0  0  0  0  0  0  0  0  0
   -0.0721    4.2047   -2.7251 H   0  0  0  0  0  0  0  0  0  0  0  0
   -0.4044    3.5886   -4.3483 H   0  0  0  0  0  0  0  0  0  0  0  0
   -1.4892    3.1833   -3.0049 H   0  0  0  0  0  0  0  0  0  0  0  0
    2.0860    2.2175   -4.6937 N   0  0  0  0  0  0  0  0  0  0  0  0
    3.3948    2.4018   -5.2759 C   0  0  0  0  0  0  0  0  0  0  0  0
    1.3225    1.9649   -5.3142 H   0  0  0  0  0  0  0  0  0  0  0  0
    3.5186    3.4529   -5.5756 H   0  0  0  0  0  0  0  0  0  0  0  0
    4.1653    2.1383   -4.5363 H   0  0  0  0  0  0  0  0  0  0  0  0
    3.4976    1.7542   -6.1591 H   0  0  0  0  0  0  0  0  0  0  0  0
  1  3  1  0  0  0  0
  1  7  1  0  0  0  0
  1  2  2  0  0  0  0
 37 38  1  0  0  0  0
 38 46  1  0  0  0  0
 38 39  2  0  0  0  0
  8  9  1  0  0  0  0
  9 17  1  0  0  0  0
  9 10  2  0  0  0  0
 18 19  1  0  0  0  0
 19 36  1  0  0  0  0
 19 20  2  0  0  0  0
 22 24  1  0  0  0  0
 37 40  1  0  0  0  0
  8 11  1  0  0  0  0
 21 23  1  0  0  0  0
 46 47  1  0  0  0  0
 21 22  1  0  0  0  0
 36 37  1  0  0  0  0
  7  8  1  0  0  0  0
 18 21  1  0  0  0  0
 17 18  1  0  0  0  0
  3  4  1  0  0  0  0
  3  5  1  0  0  0  0
  3  6  1  0  0  0  0
 24 33  1  0  0  0  0
 24 34  1  0  0  0  0
 24 35  1  0  0  0  0
 40 43  1  0  0  0  0
 40 44  1  0  0  0  0
 40 45  1  0  0  0  0
 11 14  1  0  0  0  0
 11 15  1  0  0  0  0
 11 16  1  0  0  0  0
 23 30  1  0  0  0  0
 23 31  1  0  0  0  0
 23 32  1  0  0  0  0
 47 49  1  0  0  0  0
 47 50  1  0  0  0  0
 47 51  1  0  0  0  0
 22 28  1  0  0  0  0
 22 29  1  0  0  0  0
 37 42  1  0  0  0  0
  8 13  1  0  0  0  0
 18 26  1  0  0  0  0
 21 27  1  0  0  0  0
 46 48  1  0  0  0  0
  7 12  1  0  0  0  0
 36 41  1  0  0  0  0
 17 25  1  0  0  0  0
M  END
$$$$

  -OEChem-05262214473D

 51 50  0     1  0  0  0  0  0999 V2000
    1.3524   -3.0009    1.4091 C   0  0  0  0  0  0  0  0  0  0  0  0
    1.8758   -1.9880    0.9598 O   0  0  0  0  0  0  0  0  0  0  0  0
    2.2030   -4.1782    1.7536 C   0  0  0  0  0  0  0  0  0  0  0  0
    2.3264   -4.8705    0.9053 H   0  0  0  0  0  0  0  0  0  0  0  0
    3.2257   -3.8876    2.0432 H   0  0  0  0  0  0  0  0  0  0  0  0
    1.8327   -4.8004    2.5839 H   0  0  0  0  0  0  0  0  0  0  0  0
    0.0005   -3.1873    1.6465 N   0  0  0  0  0  0  0  0  0  0  0  0
   -0.9949   -2.1807    1.3864 C   0  0  2  0  0  0  0  0  0  0  0  0
   -0.3083   -0.8216    1.4164 C   0  0  0  0  0  0  0  0  0  0  0  0
    0.7533   -0.6191    2.0022 O   0  0  0  0  0  0  0  0  0  0  0  0
   -2.1232   -2.2423    2.4042 C   0  0  0  0  0  0  0  0  0  0  0  0
   -0.3048   -4.0823    2.0245 H   0  0  0  0  0  0  0  0  0  0  0  0
   -1.3830   -2.3724    0.3801 H   0  0  0  0  0  0  0  0  0  0  0  0
   -1.7534   -2.0527    3.4185 H   0  0  0  0  0  0  0  0  0  0  0  0
   -2.8936   -1.4947    2.1882 H   0  0  0  0  0  0  0  0  0  0  0  0
   -2.5964   -3.2301    2.4022 H   0  0  0  0  0  0  0  0  0  0  0  0
   -1.0412    0.1517    0.7482 N   0  0  0  0  0  0  0  0  0  0  0  0
   -0.6079    1.5223    0.6467 C   0  0  2  0  0  0  0  0  0  0  0  0
   -0.8094    1.9798   -0.7973 C   0  0  0  0  0  0  0  0  0  0  0  0
   -1.7063    2.7499   -1.1348 O   0  0  0  0  0  0  0  0  0  0  0  0
    0.8442    1.7351    1.1383 C   0  0  2  0  0  0  0  0  0  0  0  0
    1.0075    1.4062    2.6388 C   0  0  0  0  0  0  0  0  0  0  0  0
    1.3064    3.1629    0.8183 C   0  0  0  0  0  0  0  0  0  0  0  0
    2.4605    1.3473    3.0927 C   0  0  0  0  0  0  0  0  0  0  0  0
   -1.9022   -0.1128    0.2753 H   0  0  0  0  0  0  0  0  0  0  0  0
   -1.2984    2.1023    1.2724 H   0  0  0  0  0  0  0  0  0  0  0  0
    1.4955    1.0535    0.5749 H   0  0  0  0  0  0  0  0  0  0  0  0
    0.5029    2.1715    3.2397 H   0  0  0  0  0  0  0  0  0  0  0  0
    0.5268    0.4495    2.8751 H   0  0  0  0  0  0  0  0  0  0  0  0
    0.6947    3.8988    1.3513 H   0  0  0  0  0  0  0  0  0  0  0  0
    2.3432    3.3228    1.1295 H   0  0  0  0  0  0  0  0  0  0  0  0
    1.2381    3.3765   -0.2534 H   0  0  0  0  0  0  0  0  0  0  0  0
    3.0279    0.5993    2.5316 H   0  0  0  0  0  0  0  0  0  0  0  0
    2.5109    1.0720    4.1513 H   0  0  0  0  0  0  0  0  0  0  0  0
    2.9499    2.3188    2.9727 H   0  0  0  0  0  0  0  0  0  0  0  0
    0.1485    1.4531   -1.6520 N   0  0  0  0  0  0  0  0  0  0  0  0
    0.1955    1.7452   -3.0666 C   0  0  2  0  0  0  0  0  0  0  0  0
    1.6383    1.5943   -3.5303 C   0  0  0  0  0  0  0  0  0  0  0  0
    2.5996    1.6743   -2.7683 O   0  0  0  0  0  0  0  0  0  0  0  0
   -0.3265    3.1430   -3.3606 C   0  0  0  0  0  0  0  0  0  0  0  0
    0.8516    0.8312   -1.2641 H   0  0  0  0  0  0  0  0  0  0  0  0
   -0.4292    0.9961   -3.5652 H   0  0  0  0  0  0  0  0  0  0  0  0
    0.2869    3.9072   -2.8694 H   0  0  0  0  0  0  0  0  0  0  0  0
   -0.3169    3.3522   -4.4354 H   0  0  0  0  0  0  0  0  0  0  0  0
   -1.3542    3.2591   -2.9997 H   0  0  0  0  0  0  0  0  0  0  0  0
    1.7284    1.4027   -4.9019 N   0  0  0  0  0  0  0  0  0  0  0  0
    2.9906    1.2452   -5.5859 C   0  0  0  0  0  0  0  0  0  0  0  0
    0.8783    1.3305   -5.4532 H   0  0  0  0  0  0  0  0  0  0  0  0
    3.3415    2.2259   -5.9397 H   0  0  0  0  0  0  0  0  0  0  0  0
    3.7317    0.8185   -4.8940 H   0  0  0  0  0  0  0  0  0  0  0  0
    2.8603    0.5708   -6.4451 H   0  0  0  0  0  0  0  0  0  0  0  0
  1  3  1  0  0  0  0
  1  7  1  0  0  0  0
  1  2  2  0  0  0  0
 37 38  1  0  0  0  0
 38 46  1  0  0  0  0
 38 39  2  0  0  0  0
  8  9  1  0  0  0  0
  9 17  1  0  0  0  0
  9 10  2  0  0  0  0
 18 19  1  0  0  0  0
 19 36  1  0  0  0  0
 19 20  2  0  0  0  0
 22 24  1  0  0  0  0
 37 40  1  0  0  0  0
  8 11  1  0  0  0  0
 21 23  1  0  0  0  0
 46 47  1  0  0  0  0
 21 22  1  0  0  0  0
 36 37  1  0  0  0  0
  7  8  1  0  0  0  0
 18 21  1  0  0  0  0
 17 18  1  0  0  0  0
  3  4  1  0  0  0  0
  3  5  1  0  0  0  0
  3  6  1  0  0  0  0
 24 33  1  0  0  0  0
 24 34  1  0  0  0  0
 24 35  1  0  0  0  0
 40 43  1  0  0  0  0
 40 44  1  0  0  0  0
 40 45  1  0  0  0  0
 11 14  1  0  0  0  0
 11 15  1  0  0  0  0
 11 16  1  0  0  0  0
 23 30  1  0  0  0  0
 23 31  1  0  0  0  0
 23 32  1  0  0  0  0
 47 49  1  0  0  0  0
 47 50  1  0  0  0  0
 47 51  1  0  0  0  0
 22 28  1  0  0  0  0
 22 29  1  0  0  0  0
 37 42  1  0  0  0  0
  8 13  1  0  0  0  0
 18 26  1  0  0  0  0
 21 27  1  0  0  0  0
 46 48  1  0  0  0  0
  7 12  1  0  0  0  0
 36 41  1  0  0  0  0
 17 25  1  0  0  0  0
M  END
$$$$

  -OEChem-05262214473D

 51 50  0     1  0  0  0  0  0999 V2000
    1.3524   -3.0009    1.4091 C   0  0  0  0  0  0  0  0  0  0  0  0
    1.8758   -1.9880    0.9598 O   0  0  0  0  0  0  0  0  0  0  0  0
    2.2030   -4.1782    1.7536 C   0  0  0  0  0  0  0  0  0  0  0  0
    2.3264   -4.8705    0.9053 H   0  0  0  0  0  0  0  0  0  0  0  0
    3.2257   -3.8876    2.0432 H   0  0  0  0  0  0  0  0  0  0  0  0
    1.8327   -4.8004    2.5839 H   0  0  0  0  0  0  0  0  0  0  0  0
    0.0005   -3.1873    1.6465 N   0  0  0  0  0  0  0  0  0  0  0  0
   -0.9949   -2.1807    1.3864 C   0  0  2  0  0  0  0  0  0  0  0  0
   -0.3083   -0.8216    1.4164 C   0  0  0  0  0  0  0  0  0  0  0  0
    0.7533   -0.6191    2.0022 O   0  0  0  0  0  0  0  0  0  0  0  0
   -2.1232   -2.2423    2.4042 C   0  0  0  0  0  0  0  0  0  0  0  0
   -0.3048   -4.0823    2.0245 H   0  0  0  0  0  0  0  0  0  0  0  0
   -1.3830   -2.3724    0.3801 H   0  0  0  0  0  0  0  0  0  0  0  0
   -1.7534   -2.0527    3.4185 H   0  0  0  0  0  0  0  0  0  0  0  0
   -2.8936   -1.4947    2.1882 H   0  0  0  0  0  0  0  0  0  0  0  0
   -2.5964   -3.2301    2.4022 H   0  0  0  0  0  0  0  0  0  0  0  0
   -1.0412    0.1517    0.7482 N   0  0  0  0  0  0  0  0  0  0  0  0
   -0.6079    1.5223    0.6467 C   0  0  2  0  0  0  0  0  0  0  0  0
   -0.8094    1.9798   -0.7973 C   0  0  0  0  0  0  0  0  0  0  0  0
   -1.5165    2.9384   -1.1016 O   0  0  0  0  0  0  0  0  0  0  0  0
    0.8442    1.7351    1.1383 C   0  0  2  0  0  0  0  0  0  0  0  0
    1.0075    1.4062    2.6388 C   0  0  0  0  0  0  0  0  0  0  0  0
    1.3064    3.1629    0.8183 C   0  0  0  0  0  0  0  0  0  0  0  0
    2.4605    1.3473    3.0927 C   0  0  0  0  0  0  0  0  0  0  0  0
   -1.9022   -0.1128    0.2753 H   0  0  0  0  0  0  0  0  0  0  0  0
   -1.2984    2.1023    1.2724 H   0  0  0  0  0  0  0  0  0  0  0  0
    1.4955    1.0535    0.5749 H   0  0  0  0  0  0  0  0  0  0  0  0
    0.5029    2.1715    3.2397 H   0  0  0  0  0  0  0  0  0  0  0  0
    0.5268    0.4495    2.8751 H   0  0  0  0  0  0  0  0  0  0  0  0
    0.6947    3.8988    1.3513 H   0  0  0  0  0  0  0  0  0  0  0  0
    2.3432    3.3228    1.1295 H   0  0  0  0  0  0  0  0  0  0  0  0
    1.2381    3.3765   -0.2534 H   0  0  0  0  0  0  0  0  0  0  0  0
    3.0279    0.5993    2.5316 H   0  0  0  0  0  0  0  0  0  0  0  0
    2.5109    1.0720    4.1513 H   0  0  0  0  0  0  0  0  0  0  0  0
    2.9499    2.3188    2.9727 H   0  0  0  0  0  0  0  0  0  0  0  0
   -0.0816    1.2130   -1.6960 N   0  0  0  0  0  0  0  0  0  0  0  0
   -0.0807    1.4498   -3.1217 C   0  0  2  0  0  0  0  0  0  0  0  0
    1.2392    0.9374   -3.6827 C   0  0  0  0  0  0  0  0  0  0  0  0
    2.2501    0.7972   -2.9975 O   0  0  0  0  0  0  0  0  0  0  0  0
   -0.2693    2.9254   -3.4375 C   0  0  0  0  0  0  0  0  0  0  0  0
    0.4785    0.4470   -1.3338 H   0  0  0  0  0  0  0  0  0  0  0  0
   -0.9074    0.8654   -3.5399 H   0  0  0  0  0  0  0  0  0  0  0  0
    0.5496    3.5271   -3.0265 H   0  0  0  0  0  0  0  0  0  0  0  0
   -0.2970    3.0994   -4.5183 H   0  0  0  0  0  0  0  0  0  0  0  0
   -1.2048    3.2995   -3.0078 H   0  0  0  0  0  0  0  0  0  0  0  0
    1.1675    0.6961   -5.0476 N   0  0  0  0  0  0  0  0  0  0  0  0
    2.2933    0.2162   -5.8146 C   0  0  0  0  0  0  0  0  0  0  0  0
    0.2833    0.8217   -5.5315 H   0  0  0  0  0  0  0  0  0  0  0  0
    2.8420    1.0716   -6.2357 H   0  0  0  0  0  0  0  0  0  0  0  0
    2.9623   -0.3625   -5.1609 H   0  0  0  0  0  0  0  0  0  0  0  0
    1.9331   -0.4262   -6.6316 H   0  0  0  0  0  0  0  0  0  0  0  0
  1  3  1  0  0  0  0
  1  7  1  0  0  0  0
  1  2  2  0  0  0  0
 37 38  1  0  0  0  0
 38 46  1  0  0  0  0
 38 39  2  0  0  0  0
  8  9  1  0  0  0  0
  9 17  1  0  0  0  0
  9 10  2  0  0  0  0
 18 19  1  0  0  0  0
 19 36  1  0  0  0  0
 19 20  2  0  0  0  0
 22 24  1  0  0  0  0
 37 40  1  0  0  0  0
  8 11  1  0  0  0  0
 21 23  1  0  0  0  0
 46 47  1  0  0  0  0
 21 22  1  0  0  0  0
 36 37  1  0  0  0  0
  7  8  1  0  0  0  0
 18 21  1  0  0  0  0
 17 18  1  0  0  0  0
  3  4  1  0  0  0  0
  3  5  1  0  0  0  0
  3  6  1  0  0  0  0
 24 33  1  0  0  0  0
 24 34  1  0  0  0  0
 24 35  1  0  0  0  0
 40 43  1  0  0  0  0
 40 44  1  0  0  0  0
 40 45  1  0  0  0  0
 11 14  1  0  0  0  0
 11 15  1  0  0  0  0
 11 16  1  0  0  0  0
 23 30  1  0  0  0  0
 23 31  1  0  0  0  0
 23 32  1  0  0  0  0
 47 49  1  0  0  0  0
 47 50  1  0  0  0  0
 47 51  1  0  0  0  0
 22 28  1  0  0  0  0
 22 29  1  0  0  0  0
 37 42  1  0  0  0  0
  8 13  1  0  0  0  0
 18 26  1  0  0  0  0
 21 27  1  0  0  0  0
 46 48  1  0  0  0  0
  7 12  1  0  0  0  0
 36 41  1  0  0  0  0
 17 25  1  0  0  0  0
M  END
$$$$

  -OEChem-05262214473D

 51 50  0     1  0  0  0  0  0999 V2000
    1.3524   -3.0009    1.4091 C   0  0  0  0  0  0  0  0  0  0  0  0
    1.8758   -1.9880    0.9598 O   0  0  0  0  0  0  0  0  0  0  0  0
    2.2030   -4.1782    1.7536 C   0  0  0  0  0  0  0  0  0  0  0  0
    2.3264   -4.8705    0.9053 H   0  0  0  0  0  0  0  0  0  0  0  0
    3.2257   -3.8876    2.0432 H   0  0  0  0  0  0  0  0  0  0  0  0
    1.8327   -4.8004    2.5839 H   0  0  0  0  0  0  0  0  0  0  0  0
    0.0005   -3.1873    1.6465 N   0  0  0  0  0  0  0  0  0  0  0  0
   -0.9949   -2.1807    1.3864 C   0  0  2  0  0  0  0  0  0  0  0  0
   -0.3083   -0.8216    1.4164 C   0  0  0  0  0  0  0  0  0  0  0  0
    0.7533   -0.6191    2.0022 O   0  0  0  0  0  0  0  0  0  0  0  0
   -2.1232   -2.2423    2.4042 C   0  0  0  0  0  0  0  0  0  0  0  0
   -0.3048   -4.0823    2.0245 H   0  0  0  0  0  0  0  0  0  0  0  0
   -1.3830   -2.3724    0.3801 H   0  0  0  0  0  0  0  0  0  0  0  0
   -1.7534   -2.0527    3.4185 H   0  0  0  0  0  0  0  0  0  0  0  0
   -2.8936   -1.4947    2.1882 H   0  0  0  0  0  0  0  0  0  0  0  0
   -2.5964   -3.2301    2.4022 H   0  0  0  0  0  0  0  0  0  0  0  0
   -1.0412    0.1517    0.7482 N   0  0  0  0  0  0  0  0  0  0  0  0
   -0.6079    1.5223    0.6467 C   0  0  2  0  0  0  0  0  0  0  0  0
   -0.8094    1.9798   -0.7973 C   0  0  0  0  0  0  0  0  0  0  0  0
   -1.2846    3.0751   -1.0906 O   0  0  0  0  0  0  0  0  0  0  0  0
    0.8442    1.7351    1.1383 C   0  0  2  0  0  0  0  0  0  0  0  0
    1.0075    1.4062    2.6388 C   0  0  0  0  0  0  0  0  0  0  0  0
    1.3064    3.1629    0.8183 C   0  0  0  0  0  0  0  0  0  0  0  0
    2.4605    1.3473    3.0927 C   0  0  0  0  0  0  0  0  0  0  0  0
   -1.9022   -0.1128    0.2753 H   0  0  0  0  0  0  0  0  0  0  0  0
   -1.2984    2.1023    1.2724 H   0  0  0  0  0  0  0  0  0  0  0  0
    1.4955    1.0535    0.5749 H   0  0  0  0  0  0  0  0  0  0  0  0
    0.5029    2.1715    3.2397 H   0  0  0  0  0  0  0  0  0  0  0  0
    0.5268    0.4495    2.8751 H   0  0  0  0  0  0  0  0  0  0  0  0
    0.6947    3.8988    1.3513 H   0  0  0  0  0  0  0  0  0  0  0  0
    2.3432    3.3228    1.1295 H   0  0  0  0  0  0  0  0  0  0  0  0
    1.2381    3.3765   -0.2534 H   0  0  0  0  0  0  0  0  0  0  0  0
    3.0279    0.5993    2.5316 H   0  0  0  0  0  0  0  0  0  0  0  0
    2.5109    1.0720    4.1513 H   0  0  0  0  0  0  0  0  0  0  0  0
    2.9499    2.3188    2.9727 H   0  0  0  0  0  0  0  0  0  0  0  0
   -0.3659    1.0358   -1.7125 N   0  0  0  0  0  0  0  0  0  0  0  0
   -0.4240    1.2302   -3.1434 C   0  0  2  0  0  0  0  0  0  0  0  0
    0.6812    0.3953   -3.7766 C   0  0  0  0  0  0  0  0  0  0  0  0
    1.6801    0.0276   -3.1618 O   0  0  0  0  0  0  0  0  0  0  0  0
   -0.2731    2.6986   -3.5089 C   0  0  0  0  0  0  0  0  0  0  0  0
    0.0187    0.1647   -1.3591 H   0  0  0  0  0  0  0  0  0  0  0  0
   -1.3994    0.8569   -3.4739 H   0  0  0  0  0  0  0  0  0  0  0  0
    0.6982    3.0903   -3.1856 H   0  0  0  0  0  0  0  0  0  0  0  0
   -0.3459    2.8476   -4.5912 H   0  0  0  0  0  0  0  0  0  0  0  0
   -1.0512    3.3017   -3.0285 H   0  0  0  0  0  0  0  0  0  0  0  0
    0.4417    0.1457   -5.1207 N   0  0  0  0  0  0  0  0  0  0  0  0
    1.3504   -0.6149   -5.9464 C   0  0  0  0  0  0  0  0  0  0  0  0
   -0.4219    0.4730   -5.5435 H   0  0  0  0  0  0  0  0  0  0  0  0
    2.0544    0.0686   -6.4436 H   0  0  0  0  0  0  0  0  0  0  0  0
    1.9097   -1.3242   -5.3187 H   0  0  0  0  0  0  0  0  0  0  0  0
    0.7791   -1.1688   -6.7059 H   0  0  0  0  0  0  0  0  0  0  0  0
  1  3  1  0  0  0  0
  1  7  1  0  0  0  0
  1  2  2  0  0  0  0
 37 38  1  0  0  0  0
 38 46  1  0  0  0  0
 38 39  2  0  0  0  0
  8  9  1  0  0  0  0
  9 17  1  0  0  0  0
  9 10  2  0  0  0  0
 18 19  1  0  0  0  0
 19 36  1  0  0  0  0
 19 20  2  0  0  0  0
 22 24  1  0  0  0  0
 37 40  1  0  0  0  0
  8 11  1  0  0  0  0
 21 23  1  0  0  0  0
 46 47  1  0  0  0  0
 21 22  1  0  0  0  0
 36 37  1  0  0  0  0
  7  8  1  0  0  0  0
 18 21  1  0  0  0  0
 17 18  1  0  0  0  0
  3  4  1  0  0  0  0
  3  5  1  0  0  0  0
  3  6  1  0  0  0  0
 24 33  1  0  0  0  0
 24 34  1  0  0  0  0
 24 35  1  0  0  0  0
 40 43  1  0  0  0  0
 40 44  1  0  0  0  0
 40 45  1  0  0  0  0
 11 14  1  0  0  0  0
 11 15  1  0  0  0  0
 11 16  1  0  0  0  0
 23 30  1  0  0  0  0
 23 31  1  0  0  0  0
 23 32  1  0  0  0  0
 47 49  1  0  0  0  0
 47 50  1  0  0  0  0
 47 51  1  0  0  0  0
 22 28  1  0  0  0  0
 22 29  1  0  0  0  0
 37 42  1  0  0  0  0
  8 13  1  0  0  0  0
 18 26  1  0  0  0  0
 21 27  1  0  0  0  0
 46 48  1  0  0  0  0
  7 12  1  0  0  0  0
 36 41  1  0  0  0  0
 17 25  1  0  0  0  0
M  END
$$$$

  -OEChem-05262214473D

 51 50  0     1  0  0  0  0  0999 V2000
    1.3524   -3.0009    1.4091 C   0  0  0  0  0  0  0  0  0  0  0  0
    1.8758   -1.9880    0.9598 O   0  0  0  0  0  0  0  0  0  0  0  0
    2.2030   -4.1782    1.7536 C   0  0  0  0  0  0  0  0  0  0  0  0
    2.3264   -4.8705    0.9053 H   0  0  0  0  0  0  0  0  0  0  0  0
    3.2257   -3.8876    2.0432 H   0  0  0  0  0  0  0  0  0  0  0  0
    1.8327   -4.8004    2.5839 H   0  0  0  0  0  0  0  0  0  0  0  0
    0.0005   -3.1873    1.6465 N   0  0  0  0  0  0  0  0  0  0  0  0
   -0.9949   -2.1807    1.3864 C   0  0  2  0  0  0  0  0  0  0  0  0
   -0.3083   -0.8216    1.4164 C   0  0  0  0  0  0  0  0  0  0  0  0
    0.7533   -0.6191    2.0022 O   0  0  0  0  0  0  0  0  0  0  0  0
   -2.1232   -2.2423    2.4042 C   0  0  0  0  0  0  0  0  0  0  0  0
   -0.3048   -4.0823    2.0245 H   0  0  0  0  0  0  0  0  0  0  0  0
   -1.3830   -2.3724    0.3801 H   0  0  0  0  0  0  0  0  0  0  0  0
   -1.7534   -2.0527    3.4185 H   0  0  0  0  0  0  0  0  0  0  0  0
   -2.8936   -1.4947    2.1882 H   0  0  0  0  0  0  0  0  0  0  0  0
   -2.5964   -3.2301    2.4022 H   0  0  0  0  0  0  0  0  0  0  0  0
   -1.0412    0.1517    0.7482 N   0  0  0  0  0  0  0  0  0  0  0  0
   -0.6079    1.5223    0.6467 C   0  0  2  0  0  0  0  0  0  0  0  0
   -0.8094    1.9798   -0.7973 C   0  0  0  0  0  0  0  0  0  0  0  0
   -1.0263    3.1508   -1.1027 O   0  0  0  0  0  0  0  0  0  0  0  0
    0.8442    1.7351    1.1383 C   0  0  2  0  0  0  0  0  0  0  0  0
    1.0075    1.4062    2.6388 C   0  0  0  0  0  0  0  0  0  0  0  0
    1.3064    3.1629    0.8183 C   0  0  0  0  0  0  0  0  0  0  0  0
    2.4605    1.3473    3.0927 C   0  0  0  0  0  0  0  0  0  0  0  0
   -1.9022   -0.1128    0.2753 H   0  0  0  0  0  0  0  0  0  0  0  0
   -1.2984    2.1023    1.2724 H   0  0  0  0  0  0  0  0  0  0  0  0
    1.4955    1.0535    0.5749 H   0  0  0  0  0  0  0  0  0  0  0  0
    0.5029    2.1715    3.2397 H   0  0  0  0  0  0  0  0  0  0  0  0
    0.5268    0.4495    2.8751 H   0  0  0  0  0  0  0  0  0  0  0  0
    0.6947    3.8988    1.3513 H   0  0  0  0  0  0  0  0  0  0  0  0
    2.3432    3.3228    1.1295 H   0  0  0  0  0  0  0  0  0  0  0  0
    1.2381    3.3765   -0.2534 H   0  0  0  0  0  0  0  0  0  0  0  0
    3.0279    0.5993    2.5316 H   0  0  0  0  0  0  0  0  0  0  0  0
    2.5109    1.0720    4.1513 H   0  0  0  0  0  0  0  0  0  0  0  0
    2.9499    2.3188    2.9727 H   0  0  0  0  0  0  0  0  0  0  0  0
   -0.6852    0.9336   -1.7003 N   0  0  0  0  0  0  0  0  0  0  0  0
   -0.8110    1.1012   -3.1302 C   0  0  2  0  0  0  0  0  0  0  0  0
    0.0024    0.0050   -3.8056 C   0  0  0  0  0  0  0  0  0  0  0  0
    0.9287   -0.5819   -3.2501 O   0  0  0  0  0  0  0  0  0  0  0  0
   -0.3379    2.4781   -3.5697 C   0  0  0  0  0  0  0  0  0  0  0  0
   -0.4965    0.0036   -1.3383 H   0  0  0  0  0  0  0  0  0  0  0  0
   -1.8716    0.9713   -3.3718 H   0  0  0  0  0  0  0  0  0  0  0  0
    0.7226    2.6266   -3.3359 H   0  0  0  0  0  0  0  0  0  0  0  0
   -0.4605    2.6138   -4.6493 H   0  0  0  0  0  0  0  0  0  0  0  0
   -0.9040    3.2656   -3.0605 H   0  0  0  0  0  0  0  0  0  0  0  0
   -0.3997   -0.2109   -5.1163 N   0  0  0  0  0  0  0  0  0  0  0  0
    0.2261   -1.1916   -5.9723 C   0  0  0  0  0  0  0  0  0  0  0  0
   -1.1893    0.3082   -5.4887 H   0  0  0  0  0  0  0  0  0  0  0  0
    1.0321   -0.7145   -6.5491 H   0  0  0  0  0  0  0  0  0  0  0  0
    0.6454   -2.0011   -5.3568 H   0  0  0  0  0  0  0  0  0  0  0  0
   -0.5228   -1.6065   -6.6630 H   0  0  0  0  0  0  0  0  0  0  0  0
  1  3  1  0  0  0  0
  1  7  1  0  0  0  0
  1  2  2  0  0  0  0
 37 38  1  0  0  0  0
 38 46  1  0  0  0  0
 38 39  2  0  0  0  0
  8  9  1  0  0  0  0
  9 17  1  0  0  0  0
  9 10  2  0  0  0  0
 18 19  1  0  0  0  0
 19 36  1  0  0  0  0
 19 20  2  0  0  0  0
 22 24  1  0  0  0  0
 37 40  1  0  0  0  0
  8 11  1  0  0  0  0
 21 23  1  0  0  0  0
 46 47  1  0  0  0  0
 21 22  1  0  0  0  0
 36 37  1  0  0  0  0
  7  8  1  0  0  0  0
 18 21  1  0  0  0  0
 17 18  1  0  0  0  0
  3  4  1  0  0  0  0
  3  5  1  0  0  0  0
  3  6  1  0  0  0  0
 24 33  1  0  0  0  0
 24 34  1  0  0  0  0
 24 35  1  0  0  0  0
 40 43  1  0  0  0  0
 40 44  1  0  0  0  0
 40 45  1  0  0  0  0
 11 14  1  0  0  0  0
 11 15  1  0  0  0  0
 11 16  1  0  0  0  0
 23 30  1  0  0  0  0
 23 31  1  0  0  0  0
 23 32  1  0  0  0  0
 47 49  1  0  0  0  0
 47 50  1  0  0  0  0
 47 51  1  0  0  0  0
 22 28  1  0  0  0  0
 22 29  1  0  0  0  0
 37 42  1  0  0  0  0
  8 13  1  0  0  0  0
 18 26  1  0  0  0  0
 21 27  1  0  0  0  0
 46 48  1  0  0  0  0
  7 12  1  0  0  0  0
 36 41  1  0  0  0  0
 17 25  1  0  0  0  0
M  END
$$$$

  -OEChem-05262214473D

 51 50  0     1  0  0  0  0  0999 V2000
    1.3524   -3.0009    1.4091 C   0  0  0  0  0  0  0  0  0  0  0  0
    1.8758   -1.9880    0.9598 O   0  0  0  0  0  0  0  0  0  0  0  0
    2.2030   -4.1782    1.7536 C   0  0  0  0  0  0  0  0  0  0  0  0
    2.3264   -4.8705    0.9053 H   0  0  0  0  0  0  0  0  0  0  0  0
    3.2257   -3.8876    2.0432 H   0  0  0  0  0  0  0  0  0  0  0  0
    1.8327   -4.8004    2.5839 H   0  0  0  0  0  0  0  0  0  0  0  0
    0.0005   -3.1873    1.6465 N   0  0  0  0  0  0  0  0  0  0  0  0
   -0.9949   -2.1807    1.3864 C   0  0  2  0  0  0  0  0  0  0  0  0
   -0.3083   -0.8216    1.4164 C   0  0  0  0  0  0  0  0  0  0  0  0
    0.7533   -0.6191    2.0022 O   0  0  0  0  0  0  0  0  0  0  0  0
   -2.1232   -2.2423    2.4042 C   0  0  0  0  0  0  0  0  0  0  0  0
   -0.3048   -4.0823    2.0245 H   0  0  0  0  0  0  0  0  0  0  0  0
   -1.3830   -2.3724    0.3801 H   0  0  0  0  0  0  0  0  0  0  0  0
   -1.7534   -2.0527    3.4185 H   0  0  0  0  0  0  0  0  0  0  0  0
   -2.8936   -1.4947    2.1882 H   0  0  0  0  0  0  0  0  0  0  0  0
   -2.5964   -3.2301    2.4022 H   0  0  0  0  0  0  0  0  0  0  0  0
   -1.0412    0.1517    0.7482 N   0  0  0  0  0  0  0  0  0  0  0  0
   -0.6079    1.5223    0.6467 C   0  0  2  0  0  0  0  0  0  0  0  0
   -0.8094    1.9798   -0.7973 C   0  0  0  0  0  0  0  0  0  0  0  0
   -0.7591    3.1603   -1.1369 O   0  0  0  0  0  0  0  0  0  0  0  0
    0.8442    1.7351    1.1383 C   0  0  2  0  0  0  0  0  0  0  0  0
    1.0075    1.4062    2.6388 C   0  0  0  0  0  0  0  0  0  0  0  0
    1.3064    3.1629    0.8183 C   0  0  0  0  0  0  0  0  0  0  0  0
    2.4605    1.3473    3.0927 C   0  0  0  0  0  0  0  0  0  0  0  0
   -1.9022   -0.1128    0.2753 H   0  0  0  0  0  0  0  0  0  0  0  0
   -1.2984    2.1023    1.2724 H   0  0  0  0  0  0  0  0  0  0  0  0
    1.4955    1.0535    0.5749 H   0  0  0  0  0  0  0  0  0  0  0  0
    0.5029    2.1715    3.2397 H   0  0  0  0  0  0  0  0  0  0  0  0
    0.5268    0.4495    2.8751 H   0  0  0  0  0  0  0  0  0  0  0  0
    0.6947    3.8988    1.3513 H   0  0  0  0  0  0  0  0  0  0  0  0
    2.3432    3.3228    1.1295 H   0  0  0  0  0  0  0  0  0  0  0  0
    1.2381    3.3765   -0.2534 H   0  0  0  0  0  0  0  0  0  0  0  0
    3.0279    0.5993    2.5316 H   0  0  0  0  0  0  0  0  0  0  0  0
    2.5109    1.0720    4.1513 H   0  0  0  0  0  0  0  0  0  0  0  0
    2.9499    2.3188    2.9727 H   0  0  0  0  0  0  0  0  0  0  0  0
   -1.0176    0.9134   -1.6603 N   0  0  0  0  0  0  0  0  0  0  0  0
   -1.2153    1.0718   -3.0832 C   0  0  2  0  0  0  0  0  0  0  0  0
   -0.7510   -0.2071   -3.7677 C   0  0  0  0  0  0  0  0  0  0  0  0
    0.0469   -0.9899   -3.2563 O   0  0  0  0  0  0  0  0  0  0  0  0
   -0.4591    2.2788   -3.6159 C   0  0  0  0  0  0  0  0  0  0  0  0
   -1.0319   -0.0253   -1.2727 H   0  0  0  0  0  0  0  0  0  0  0  0
   -2.2917    1.2008   -3.2405 H   0  0  0  0  0  0  0  0  0  0  0  0
    0.6212    2.1677   -3.4671 H   0  0  0  0  0  0  0  0  0  0  0  0
   -0.6328    2.4141   -4.6886 H   0  0  0  0  0  0  0  0  0  0  0  0
   -0.7730    3.1935   -3.1016 H   0  0  0  0  0  0  0  0  0  0  0  0
   -1.2993   -0.3495   -5.0347 N   0  0  0  0  0  0  0  0  0  0  0  0
   -1.0030   -1.4745   -5.8905 C   0  0  0  0  0  0  0  0  0  0  0  0
   -1.9666    0.3387   -5.3706 H   0  0  0  0  0  0  0  0  0  0  0  0
   -0.1550   -1.2246   -6.5451 H   0  0  0  0  0  0  0  0  0  0  0  0
   -0.7443   -2.3470   -5.2725 H   0  0  0  0  0  0  0  0  0  0  0  0
   -1.8842   -1.7093   -6.5056 H   0  0  0  0  0  0  0  0  0  0  0  0
  1  3  1  0  0  0  0
  1  7  1  0  0  0  0
  1  2  2  0  0  0  0
 37 38  1  0  0  0  0
 38 46  1  0  0  0  0
 38 39  2  0  0  0  0
  8  9  1  0  0  0  0
  9 17  1  0  0  0  0
  9 10  2  0  0  0  0
 18 19  1  0  0  0  0
 19 36  1  0  0  0  0
 19 20  2  0  0  0  0
 22 24  1  0  0  0  0
 37 40  1  0  0  0  0
  8 11  1  0  0  0  0
 21 23  1  0  0  0  0
 46 47  1  0  0  0  0
 21 22  1  0  0  0  0
 36 37  1  0  0  0  0
  7  8  1  0  0  0  0
 18 21  1  0  0  0  0
 17 18  1  0  0  0  0
  3  4  1  0  0  0  0
  3  5  1  0  0  0  0
  3  6  1  0  0  0  0
 24 33  1  0  0  0  0
 24 34  1  0  0  0  0
 24 35  1  0  0  0  0
 40 43  1  0  0  0  0
 40 44  1  0  0  0  0
 40 45  1  0  0  0  0
 11 14  1  0  0  0  0
 11 15  1  0  0  0  0
 11 16  1  0  0  0  0
 23 30  1  0  0  0  0
 23 31  1  0  0  0  0
 23 32  1  0  0  0  0
 47 49  1  0  0  0  0
 47 50  1  0  0  0  0
 47 51  1  0  0  0  0
 22 28  1  0  0  0  0
 22 29  1  0  0  0  0
 37 42  1  0  0  0  0
  8 13  1  0  0  0  0
 18 26  1  0  0  0  0
 21 27  1  0  0  0  0
 46 48  1  0  0  0  0
  7 12  1  0  0  0  0
 36 41  1  0  0  0  0
 17 25  1  0  0  0  0
M  END
$$$$

  -OEChem-05262214473D

 51 50  0     1  0  0  0  0  0999 V2000
    1.3524   -3.0009    1.4091 C   0  0  0  0  0  0  0  0  0  0  0  0
    1.8758   -1.9880    0.9598 O   0  0  0  0  0  0  0  0  0  0  0  0
    2.2030   -4.1782    1.7536 C   0  0  0  0  0  0  0  0  0  0  0  0
    2.3264   -4.8705    0.9053 H   0  0  0  0  0  0  0  0  0  0  0  0
    3.2257   -3.8876    2.0432 H   0  0  0  0  0  0  0  0  0  0  0  0
    1.8327   -4.8004    2.5839 H   0  0  0  0  0  0  0  0  0  0  0  0
    0.0005   -3.1873    1.6465 N   0  0  0  0  0  0  0  0  0  0  0  0
   -0.9949   -2.1807    1.3864 C   0  0  2  0  0  0  0  0  0  0  0  0
   -0.3083   -0.8216    1.4164 C   0  0  0  0  0  0  0  0  0  0  0  0
    0.7533   -0.6191    2.0022 O   0  0  0  0  0  0  0  0  0  0  0  0
   -2.1232   -2.2423    2.4042 C   0  0  0  0  0  0  0  0  0  0  0  0
   -0.3048   -4.0823    2.0245 H   0  0  0  0  0  0  0  0  0  0  0  0
   -1.3830   -2.3724    0.3801 H   0  0  0  0  0  0  0  0  0  0  0  0
   -1.7534   -2.0527    3.4185 H   0  0  0  0  0  0  0  0  0  0  0  0
   -2.8936   -1.4947    2.1882 H   0  0  0  0  0  0  0  0  0  0  0  0
   -2.5964   -3.2301    2.4022 H   0  0  0  0  0  0  0  0  0  0  0  0
   -1.0412    0.1517    0.7482 N   0  0  0  0  0  0  0  0  0  0  0  0
   -0.6079    1.5223    0.6467 C   0  0  2  0  0  0  0  0  0  0  0  0
   -0.8094    1.9798   -0.7973 C   0  0  0  0  0  0  0  0  0  0  0  0
   -0.5014    3.1030   -1.1910 O   0  0  0  0  0  0  0  0  0  0  0  0
    0.8442    1.7351    1.1383 C   0  0  2  0  0  0  0  0  0  0  0  0
    1.0075    1.4062    2.6388 C   0  0  0  0  0  0  0  0  0  0  0  0
    1.3064    3.1629    0.8183 C   0  0  0  0  0  0  0  0  0  0  0  0
    2.4605    1.3473    3.0927 C   0  0  0  0  0  0  0  0  0  0  0  0
   -1.9022   -0.1128    0.2753 H   0  0  0  0  0  0  0  0  0  0  0  0
   -1.2984    2.1023    1.2724 H   0  0  0  0  0  0  0  0  0  0  0  0
    1.4955    1.0535    0.5749 H   0  0  0  0  0  0  0  0  0  0  0  0
    0.5029    2.1715    3.2397 H   0  0  0  0  0  0  0  0  0  0  0  0
    0.5268    0.4495    2.8751 H   0  0  0  0  0  0  0  0  0  0  0  0
    0.6947    3.8988    1.3513 H   0  0  0  0  0  0  0  0  0  0  0  0
    2.3432    3.3228    1.1295 H   0  0  0  0  0  0  0  0  0  0  0  0
    1.2381    3.3765   -0.2534 H   0  0  0  0  0  0  0  0  0  0  0  0
    3.0279    0.5993    2.5316 H   0  0  0  0  0  0  0  0  0  0  0  0
    2.5109    1.0720    4.1513 H   0  0  0  0  0  0  0  0  0  0  0  0
    2.9499    2.3188    2.9727 H   0  0  0  0  0  0  0  0  0  0  0  0
   -1.3406    0.9766   -1.5953 N   0  0  0  0  0  0  0  0  0  0  0  0
   -1.6094    1.1438   -3.0054 C   0  0  2  0  0  0  0  0  0  0  0  0
   -1.5277   -0.2263   -3.6654 C   0  0  0  0  0  0  0  0  0  0  0  0
   -0.9051   -1.1686   -3.1801 O   0  0  0  0  0  0  0  0  0  0  0  0
   -0.6285    2.1144   -3.6444 C   0  0  0  0  0  0  0  0  0  0  0  0
   -1.5510    0.0800   -1.1670 H   0  0  0  0  0  0  0  0  0  0  0  0
   -2.6313    1.5297   -3.0889 H   0  0  0  0  0  0  0  0  0  0  0  0
    0.4008    1.7447   -3.5704 H   0  0  0  0  0  0  0  0  0  0  0  0
   -0.8511    2.2619   -4.7063 H   0  0  0  0  0  0  0  0  0  0  0  0
   -0.6674    3.0905   -3.1490 H   0  0  0  0  0  0  0  0  0  0  0  0
   -2.1958   -0.2604   -4.8814 N   0  0  0  0  0  0  0  0  0  0  0  0
   -2.2530   -1.4444   -5.7066 C   0  0  0  0  0  0  0  0  0  0  0  0
   -2.7009    0.5623   -5.1973 H   0  0  0  0  0  0  0  0  0  0  0  0
   -1.4261   -1.4269   -6.4318 H   0  0  0  0  0  0  0  0  0  0  0  0
   -2.1646   -2.3383   -5.0716 H   0  0  0  0  0  0  0  0  0  0  0  0
   -3.2121   -1.4702   -6.2446 H   0  0  0  0  0  0  0  0  0  0  0  0
  1  3  1  0  0  0  0
  1  7  1  0  0  0  0
  1  2  2  0  0  0  0
 37 38  1  0  0  0  0
 38 46  1  0  0  0  0
 38 39  2  0  0  0  0
  8  9  1  0  0  0  0
  9 17  1  0  0  0  0
  9 10  2  0  0  0  0
 18 19  1  0  0  0  0
 19 36  1  0  0  0  0
 19 20  2  0  0  0  0
 22 24  1  0  0  0  0
 37 40  1  0  0  0  0
  8 11  1  0  0  0  0
 21 23  1  0  0  0  0
 46 47  1  0  0  0  0
 21 22  1  0  0  0  0
 36 37  1  0  0  0  0
  7  8  1  0  0  0  0
 18 21  1  0  0  0  0
 17 18  1  0  0  0  0
  3  4  1  0  0  0  0
  3  5  1  0  0  0  0
  3  6  1  0  0  0  0
 24 33  1  0  0  0  0
 24 34  1  0  0  0  0
 24 35  1  0  0  0  0
 40 43  1  0  0  0  0
 40 44  1  0  0  0  0
 40 45  1  0  0  0  0
 11 14  1  0  0  0  0
 11 15  1  0  0  0  0
 11 16  1  0  0  0  0
 23 30  1  0  0  0  0
 23 31  1  0  0  0  0
 23 32  1  0  0  0  0
 47 49  1  0  0  0  0
 47 50  1  0  0  0  0
 47 51  1  0  0  0  0
 22 28  1  0  0  0  0
 22 29  1  0  0  0  0
 37 42  1  0  0  0  0
  8 13  1  0  0  0  0
 18 26  1  0  0  0  0
 21 27  1  0  0  0  0
 46 48  1  0  0  0  0
  7 12  1  0  0  0  0
 36 41  1  0  0  0  0
 17 25  1  0  0  0  0
M  END
$$$$

  -OEChem-05262214473D

 51 50  0     1  0  0  0  0  0999 V2000
    1.3524   -3.0009    1.4091 C   0  0  0  0  0  0  0  0  0  0  0  0
    1.8758   -1.9880    0.9598 O   0  0  0  0  0  0  0  0  0  0  0  0
    2.2030   -4.1782    1.7536 C   0  0  0  0  0  0  0  0  0  0  0  0
    2.3264   -4.8705    0.9053 H   0  0  0  0  0  0  0  0  0  0  0  0
    3.2257   -3.8876    2.0432 H   0  0  0  0  0  0  0  0  0  0  0  0
    1.8327   -4.8004    2.5839 H   0  0  0  0  0  0  0  0  0  0  0  0
    0.0005   -3.1873    1.6465 N   0  0  0  0  0  0  0  0  0  0  0  0
   -0.9949   -2.1807    1.3864 C   0  0  2  0  0  0  0  0  0  0  0  0
   -0.3083   -0.8216    1.4164 C   0  0  0  0  0  0  0  0  0  0  0  0
    0.7533   -0.6191    2.0022 O   0  0  0  0  0  0  0  0  0  0  0  0
   -2.1232   -2.2423    2.4042 C   0  0  0  0  0  0  0  0  0  0  0  0
   -0.3048   -4.0823    2.0245 H   0  0  0  0  0  0  0  0  0  0  0  0
   -1.3830   -2.3724    0.3801 H   0  0  0  0  0  0  0  0  0  0  0  0
   -1.7534   -2.0527    3.4185 H   0  0  0  0  0  0  0  0  0  0  0  0
   -2.8936   -1.4947    2.1882 H   0  0  0  0  0  0  0  0  0  0  0  0
   -2.5964   -3.2301    2.4022 H   0  0  0  0  0  0  0  0  0  0  0  0
   -1.0412    0.1517    0.7482 N   0  0  0  0  0  0  0  0  0  0  0  0
   -0.6079    1.5223    0.6467 C   0  0  2  0  0  0  0  0  0  0  0  0
   -0.8094    1.9798   -0.7973 C   0  0  0  0  0  0  0  0  0  0  0  0
   -0.2707    2.9828   -1.2613 O   0  0  0  0  0  0  0  0  0  0  0  0
    0.8442    1.7351    1.1383 C   0  0  2  0  0  0  0  0  0  0  0  0
    1.0075    1.4062    2.6388 C   0  0  0  0  0  0  0  0  0  0  0  0
    1.3064    3.1629    0.8183 C   0  0  0  0  0  0  0  0  0  0  0  0
    2.4605    1.3473    3.0927 C   0  0  0  0  0  0  0  0  0  0  0  0
   -1.9022   -0.1128    0.2753 H   0  0  0  0  0  0  0  0  0  0  0  0
   -1.2984    2.1023    1.2724 H   0  0  0  0  0  0  0  0  0  0  0  0
    1.4955    1.0535    0.5749 H   0  0  0  0  0  0  0  0  0  0  0  0
    0.5029    2.1715    3.2397 H   0  0  0  0  0  0  0  0  0  0  0  0
    0.5268    0.4495    2.8751 H   0  0  0  0  0  0  0  0  0  0  0  0
    0.6947    3.8988    1.3513 H   0  0  0  0  0  0  0  0  0  0  0  0
    2.3432    3.3228    1.1295 H   0  0  0  0  0  0  0  0  0  0  0  0
    1.2381    3.3765   -0.2534 H   0  0  0  0  0  0  0  0  0  0  0  0
    3.0279    0.5993    2.5316 H   0  0  0  0  0  0  0  0  0  0  0  0
    2.5109    1.0720    4.1513 H   0  0  0  0  0  0  0  0  0  0  0  0
    2.9499    2.3188    2.9727 H   0  0  0  0  0  0  0  0  0  0  0  0
   -1.6321    1.1188   -1.5095 N   0  0  0  0  0  0  0  0  0  0  0  0
   -1.9665    1.3124   -2.9021 C   0  0  2  0  0  0  0  0  0  0  0  0
   -2.2747   -0.0514   -3.5058 C   0  0  0  0  0  0  0  0  0  0  0  0
   -1.8625   -1.1057   -3.0266 O   0  0  0  0  0  0  0  0  0  0  0  0
   -0.8345    1.9960   -3.6531 C   0  0  0  0  0  0  0  0  0  0  0  0
   -2.0185    0.3122   -1.0282 H   0  0  0  0  0  0  0  0  0  0  0  0
   -2.8671    1.9356   -2.9274 H   0  0  0  0  0  0  0  0  0  0  0  0
    0.0764    1.3865   -3.6386 H   0  0  0  0  0  0  0  0  0  0  0  0
   -1.1006    2.1678   -4.7013 H   0  0  0  0  0  0  0  0  0  0  0  0
   -0.5942    2.9636   -3.1994 H   0  0  0  0  0  0  0  0  0  0  0  0
   -3.0281    0.0500   -4.6669 N   0  0  0  0  0  0  0  0  0  0  0  0
   -3.4388   -1.1034   -5.4331 C   0  0  0  0  0  0  0  0  0  0  0  0
   -3.3420    0.9637   -4.9807 H   0  0  0  0  0  0  0  0  0  0  0  0
   -2.6946   -1.3074   -6.2170 H   0  0  0  0  0  0  0  0  0  0  0  0
   -3.5189   -1.9757   -4.7678 H   0  0  0  0  0  0  0  0  0  0  0  0
   -4.4160   -0.9057   -5.8978 H   0  0  0  0  0  0  0  0  0  0  0  0
  1  3  1  0  0  0  0
  1  7  1  0  0  0  0
  1  2  2  0  0  0  0
 37 38  1  0  0  0  0
 38 46  1  0  0  0  0
 38 39  2  0  0  0  0
  8  9  1  0  0  0  0
  9 17  1  0  0  0  0
  9 10  2  0  0  0  0
 18 19  1  0  0  0  0
 19 36  1  0  0  0  0
 19 20  2  0  0  0  0
 22 24  1  0  0  0  0
 37 40  1  0  0  0  0
  8 11  1  0  0  0  0
 21 23  1  0  0  0  0
 46 47  1  0  0  0  0
 21 22  1  0  0  0  0
 36 37  1  0  0  0  0
  7  8  1  0  0  0  0
 18 21  1  0  0  0  0
 17 18  1  0  0  0  0
  3  4  1  0  0  0  0
  3  5  1  0  0  0  0
  3  6  1  0  0  0  0
 24 33  1  0  0  0  0
 24 34  1  0  0  0  0
 24 35  1  0  0  0  0
 40 43  1  0  0  0  0
 40 44  1  0  0  0  0
 40 45  1  0  0  0  0
 11 14  1  0  0  0  0
 11 15  1  0  0  0  0
 11 16  1  0  0  0  0
 23 30  1  0  0  0  0
 23 31  1  0  0  0  0
 23 32  1  0  0  0  0
 47 49  1  0  0  0  0
 47 50  1  0  0  0  0
 47 51  1  0  0  0  0
 22 28  1  0  0  0  0
 22 29  1  0  0  0  0
 37 42  1  0  0  0  0
  8 13  1  0  0  0  0
 18 26  1  0  0  0  0
 21 27  1  0  0  0  0
 46 48  1  0  0  0  0
  7 12  1  0  0  0  0
 36 41  1  0  0  0  0
 17 25  1  0  0  0  0
M  END
$$$$

  -OEChem-05262214473D

 51 50  0     1  0  0  0  0  0999 V2000
    1.3524   -3.0009    1.4091 C   0  0  0  0  0  0  0  0  0  0  0  0
    1.8758   -1.9880    0.9598 O   0  0  0  0  0  0  0  0  0  0  0  0
    2.2030   -4.1782    1.7536 C   0  0  0  0  0  0  0  0  0  0  0  0
    2.3264   -4.8705    0.9053 H   0  0  0  0  0  0  0  0  0  0  0  0
    3.2257   -3.8876    2.0432 H   0  0  0  0  0  0  0  0  0  0  0  0
    1.8327   -4.8004    2.5839 H   0  0  0  0  0  0  0  0  0  0  0  0
    0.0005   -3.1873    1.6465 N   0  0  0  0  0  0  0  0  0  0  0  0
   -0.9949   -2.1807    1.3864 C   0  0  2  0  0  0  0  0  0  0  0  0
   -0.3083   -0.8216    1.4164 C   0  0  0  0  0  0  0  0  0  0  0  0
    0.7533   -0.6191    2.0022 O   0  0  0  0  0  0  0  0  0  0  0  0
   -2.1232   -2.2423    2.4042 C   0  0  0  0  0  0  0  0  0  0  0  0
   -0.3048   -4.0823    2.0245 H   0  0  0  0  0  0  0  0  0  0  0  0
   -1.3830   -2.3724    0.3801 H   0  0  0  0  0  0  0  0  0  0  0  0
   -1.7534   -2.0527    3.4185 H   0  0  0  0  0  0  0  0  0  0  0  0
   -2.8936   -1.4947    2.1882 H   0  0  0  0  0  0  0  0  0  0  0  0
   -2.5964   -3.2301    2.4022 H   0  0  0  0  0  0  0  0  0  0  0  0
   -1.0412    0.1517    0.7482 N   0  0  0  0  0  0  0  0  0  0  0  0
   -0.6079    1.5223    0.6467 C   0  0  2  0  0  0  0  0  0  0  0  0
   -0.8094    1.9798   -0.7973 C   0  0  0  0  0  0  0  0  0  0  0  0
   -0.0827    2.8079   -1.3430 O   0  0  0  0  0  0  0  0  0  0  0  0
    0.8442    1.7351    1.1383 C   0  0  2  0  0  0  0  0  0  0  0  0
    1.0075    1.4062    2.6388 C   0  0  0  0  0  0  0  0  0  0  0  0
    1.3064    3.1629    0.8183 C   0  0  0  0  0  0  0  0  0  0  0  0
    2.4605    1.3473    3.0927 C   0  0  0  0  0  0  0  0  0  0  0  0
   -1.9022   -0.1128    0.2753 H   0  0  0  0  0  0  0  0  0  0  0  0
   -1.2984    2.1023    1.2724 H   0  0  0  0  0  0  0  0  0  0  0  0
    1.4955    1.0535    0.5749 H   0  0  0  0  0  0  0  0  0  0  0  0
    0.5029    2.1715    3.2397 H   0  0  0  0  0  0  0  0  0  0  0  0
    0.5268    0.4495    2.8751 H   0  0  0  0  0  0  0  0  0  0  0  0
    0.6947    3.8988    1.3513 H   0  0  0  0  0  0  0  0  0  0  0  0
    2.3432    3.3228    1.1295 H   0  0  0  0  0  0  0  0  0  0  0  0
    1.2381    3.3765   -0.2534 H   0  0  0  0  0  0  0  0  0  0  0  0
    3.0279    0.5993    2.5316 H   0  0  0  0  0  0  0  0  0  0  0  0
    2.5109    1.0720    4.1513 H   0  0  0  0  0  0  0  0  0  0  0  0
    2.9499    2.3188    2.9727 H   0  0  0  0  0  0  0  0  0  0  0  0
   -1.8722    1.3304   -1.4090 N   0  0  0  0  0  0  0  0  0  0  0  0
   -2.2621    1.5662   -2.7805 C   0  0  2  0  0  0  0  0  0  0  0  0
   -2.9411    0.3057   -3.2997 C   0  0  0  0  0  0  0  0  0  0  0  0
   -2.7599   -0.8056   -2.8063 O   0  0  0  0  0  0  0  0  0  0  0  0
   -1.0631    1.9318   -3.6416 C   0  0  0  0  0  0  0  0  0  0  0  0
   -2.4025    0.6557   -0.8658 H   0  0  0  0  0  0  0  0  0  0  0  0
   -2.9830    2.3909   -2.7670 H   0  0  0  0  0  0  0  0  0  0  0  0
   -0.3298    1.1175   -3.6672 H   0  0  0  0  0  0  0  0  0  0  0  0
   -1.3642    2.1380   -4.6740 H   0  0  0  0  0  0  0  0  0  0  0  0
   -0.5584    2.8214   -3.2495 H   0  0  0  0  0  0  0  0  0  0  0  0
   -3.7395    0.5608   -4.4059 N   0  0  0  0  0  0  0  0  0  0  0  0
   -4.4796   -0.4746   -5.0886 C   0  0  0  0  0  0  0  0  0  0  0  0
   -3.8463    1.5156   -4.7355 H   0  0  0  0  0  0  0  0  0  0  0  0
   -3.8741   -0.8745   -5.9153 H   0  0  0  0  0  0  0  0  0  0  0  0
   -4.7149   -1.2839   -4.3817 H   0  0  0  0  0  0  0  0  0  0  0  0
   -5.4140   -0.0541   -5.4888 H   0  0  0  0  0  0  0  0  0  0  0  0
  1  3  1  0  0  0  0
  1  7  1  0  0  0  0
  1  2  2  0  0  0  0
 37 38  1  0  0  0  0
 38 46  1  0  0  0  0
 38 39  2  0  0  0  0
  8  9  1  0  0  0  0
  9 17  1  0  0  0  0
  9 10  2  0  0  0  0
 18 19  1  0  0  0  0
 19 36  1  0  0  0  0
 19 20  2  0  0  0  0
 22 24  1  0  0  0  0
 37 40  1  0  0  0  0
  8 11  1  0  0  0  0
 21 23  1  0  0  0  0
 46 47  1  0  0  0  0
 21 22  1  0  0  0  0
 36 37  1  0  0  0  0
  7  8  1  0  0  0  0
 18 21  1  0  0  0  0
 17 18  1  0  0  0  0
  3  4  1  0  0  0  0
  3  5  1  0  0  0  0
  3  6  1  0  0  0  0
 24 33  1  0  0  0  0
 24 34  1  0  0  0  0
 24 35  1  0  0  0  0
 40 43  1  0  0  0  0
 40 44  1  0  0  0  0
 40 45  1  0  0  0  0
 11 14  1  0  0  0  0
 11 15  1  0  0  0  0
 11 16  1  0  0  0  0
 23 30  1  0  0  0  0
 23 31  1  0  0  0  0
 23 32  1  0  0  0  0
 47 49  1  0  0  0  0
 47 50  1  0  0  0  0
 47 51  1  0  0  0  0
 22 28  1  0  0  0  0
 22 29  1  0  0  0  0
 37 42  1  0  0  0  0
  8 13  1  0  0  0  0
 18 26  1  0  0  0  0
 21 27  1  0  0  0  0
 46 48  1  0  0  0  0
  7 12  1  0  0  0  0
 36 41  1  0  0  0  0
 17 25  1  0  0  0  0
M  END
$$$$

  -OEChem-05262214473D

 51 50  0     1  0  0  0  0  0999 V2000
    1.3524   -3.0009    1.4091 C   0  0  0  0  0  0  0  0  0  0  0  0
    1.8758   -1.9880    0.9598 O   0  0  0  0  0  0  0  0  0  0  0  0
    2.2030   -4.1782    1.7536 C   0  0  0  0  0  0  0  0  0  0  0  0
    2.3264   -4.8705    0.9053 H   0  0  0  0  0  0  0  0  0  0  0  0
    3.2257   -3.8876    2.0432 H   0  0  0  0  0  0  0  0  0  0  0  0
    1.8327   -4.8004    2.5839 H   0  0  0  0  0  0  0  0  0  0  0  0
    0.0005   -3.1873    1.6465 N   0  0  0  0  0  0  0  0  0  0  0  0
   -0.9949   -2.1807    1.3864 C   0  0  2  0  0  0  0  0  0  0  0  0
   -0.3083   -0.8216    1.4164 C   0  0  0  0  0  0  0  0  0  0  0  0
    0.7533   -0.6191    2.0022 O   0  0  0  0  0  0  0  0  0  0  0  0
   -2.1232   -2.2423    2.4042 C   0  0  0  0  0  0  0  0  0  0  0  0
   -0.3048   -4.0823    2.0245 H   0  0  0  0  0  0  0  0  0  0  0  0
   -1.3830   -2.3724    0.3801 H   0  0  0  0  0  0  0  0  0  0  0  0
   -1.7534   -2.0527    3.4185 H   0  0  0  0  0  0  0  0  0  0  0  0
   -2.8936   -1.4947    2.1882 H   0  0  0  0  0  0  0  0  0  0  0  0
   -2.5964   -3.2301    2.4022 H   0  0  0  0  0  0  0  0  0  0  0  0
   -1.0412    0.1517    0.7482 N   0  0  0  0  0  0  0  0  0  0  0  0
   -0.6079    1.5223    0.6467 C   0  0  2  0  0  0  0  0  0  0  0  0
   -0.8094    1.9798   -0.7973 C   0  0  0  0  0  0  0  0  0  0  0  0
    0.0498    2.5902   -1.4304 O   0  0  0  0  0  0  0  0  0  0  0  0
    0.8442    1.7351    1.1383 C   0  0  2  0  0  0  0  0  0  0  0  0
    1.0075    1.4062    2.6388 C   0  0  0  0  0  0  0  0  0  0  0  0
    1.3064    3.1629    0.8183 C   0  0  0  0  0  0  0  0  0  0  0  0
    2.4605    1.3473    3.0927 C   0  0  0  0  0  0  0  0  0  0  0  0
   -1.9022   -0.1128    0.2753 H   0  0  0  0  0  0  0  0  0  0  0  0
   -1.2984    2.1023    1.2724 H   0  0  0  0  0  0  0  0  0  0  0  0
    1.4955    1.0535    0.5749 H   0  0  0  0  0  0  0  0  0  0  0  0
    0.5029    2.1715    3.2397 H   0  0  0  0  0  0  0  0  0  0  0  0
    0.5268    0.4495    2.8751 H   0  0  0  0  0  0  0  0  0  0  0  0
    0.6947    3.8988    1.3513 H   0  0  0  0  0  0  0  0  0  0  0  0
    2.3432    3.3228    1.1295 H   0  0  0  0  0  0  0  0  0  0  0  0
    1.2381    3.3765   -0.2534 H   0  0  0  0  0  0  0  0  0  0  0  0
    3.0279    0.5993    2.5316 H   0  0  0  0  0  0  0  0  0  0  0  0
    2.5109    1.0720    4.1513 H   0  0  0  0  0  0  0  0  0  0  0  0
    2.9499    2.3188    2.9727 H   0  0  0  0  0  0  0  0  0  0  0  0
   -2.0445    1.5969   -1.3005 N   0  0  0  0  0  0  0  0  0  0  0  0
   -2.4762    1.8877   -2.6487 C   0  0  2  0  0  0  0  0  0  0  0  0
   -3.4814    0.8206   -3.0612 C   0  0  0  0  0  0  0  0  0  0  0  0
   -3.5363   -0.2887   -2.5342 O   0  0  0  0  0  0  0  0  0  0  0  0
   -1.2988    1.9261   -3.6105 C   0  0  0  0  0  0  0  0  0  0  0  0
   -2.6768    1.0869   -0.6909 H   0  0  0  0  0  0  0  0  0  0  0  0
   -2.9713    2.8645   -2.6186 H   0  0  0  0  0  0  0  0  0  0  0  0
   -0.7902    0.9561   -3.6541 H   0  0  0  0  0  0  0  0  0  0  0  0
   -1.6241    2.1746   -4.6261 H   0  0  0  0  0  0  0  0  0  0  0  0
   -0.5626    2.6735   -3.2957 H   0  0  0  0  0  0  0  0  0  0  0  0
   -4.2815    1.2371   -4.1160 N   0  0  0  0  0  0  0  0  0  0  0  0
   -5.3045    0.3991   -4.6968 C   0  0  0  0  0  0  0  0  0  0  0  0
   -4.1794    2.1805   -4.4784 H   0  0  0  0  0  0  0  0  0  0  0  0
   -4.8840   -0.1576   -5.5473 H   0  0  0  0  0  0  0  0  0  0  0  0
   -5.6709   -0.3099   -3.9398 H   0  0  0  0  0  0  0  0  0  0  0  0
   -6.1380    1.0265   -5.0454 H   0  0  0  0  0  0  0  0  0  0  0  0
  1  3  1  0  0  0  0
  1  7  1  0  0  0  0
  1  2  2  0  0  0  0
 37 38  1  0  0  0  0
 38 46  1  0  0  0  0
 38 39  2  0  0  0  0
  8  9  1  0  0  0  0
  9 17  1  0  0  0  0
  9 10  2  0  0  0  0
 18 19  1  0  0  0  0
 19 36  1  0  0  0  0
 19 20  2  0  0  0  0
 22 24  1  0  0  0  0
 37 40  1  0  0  0  0
  8 11  1  0  0  0  0
 21 23  1  0  0  0  0
 46 47  1  0  0  0  0
 21 22  1  0  0  0  0
 36 37  1  0  0  0  0
  7  8  1  0  0  0  0
 18 21  1  0  0  0  0
 17 18  1  0  0  0  0
  3  4  1  0  0  0  0
  3  5  1  0  0  0  0
  3  6  1  0  0  0  0
 24 33  1  0  0  0  0
 24 34  1  0  0  0  0
 24 35  1  0  0  0  0
 40 43  1  0  0  0  0
 40 44  1  0  0  0  0
 40 45  1  0  0  0  0
 11 14  1  0  0  0  0
 11 15  1  0  0  0  0
 11 16  1  0  0  0  0
 23 30  1  0  0  0  0
 23 31  1  0  0  0  0
 23 32  1  0  0  0  0
 47 49  1  0  0  0  0
 47 50  1  0  0  0  0
 47 51  1  0  0  0  0
 22 28  1  0  0  0  0
 22 29  1  0  0  0  0
 37 42  1  0  0  0  0
  8 13  1  0  0  0  0
 18 26  1  0  0  0  0
 21 27  1  0  0  0  0
 46 48  1  0  0  0  0
  7 12  1  0  0  0  0
 36 41  1  0  0  0  0
 17 25  1  0  0  0  0
M  END
$$$$

  -OEChem-05262214473D

 51 50  0     1  0  0  0  0  0999 V2000
    1.3524   -3.0009    1.4091 C   0  0  0  0  0  0  0  0  0  0  0  0
    1.8758   -1.9880    0.9598 O   0  0  0  0  0  0  0  0  0  0  0  0
    2.2030   -4.1782    1.7536 C   0  0  0  0  0  0  0  0  0  0  0  0
    2.3264   -4.8705    0.9053 H   0  0  0  0  0  0  0  0  0  0  0  0
    3.2257   -3.8876    2.0432 H   0  0  0  0  0  0  0  0  0  0  0  0
    1.8327   -4.8004    2.5839 H   0  0  0  0  0  0  0  0  0  0  0  0
    0.0005   -3.1873    1.6465 N   0  0  0  0  0  0  0  0  0  0  0  0
   -0.9949   -2.1807    1.3864 C   0  0  2  0  0  0  0  0  0  0  0  0
   -0.3083   -0.8216    1.4164 C   0  0  0  0  0  0  0  0  0  0  0  0
    0.7533   -0.6191    2.0022 O   0  0  0  0  0  0  0  0  0  0  0  0
   -2.1232   -2.2423    2.4042 C   0  0  0  0  0  0  0  0  0  0  0  0
   -0.3048   -4.0823    2.0245 H   0  0  0  0  0  0  0  0  0  0  0  0
   -1.3830   -2.3724    0.3801 H   0  0  0  0  0  0  0  0  0  0  0  0
   -1.7534   -2.0527    3.4185 H   0  0  0  0  0  0  0  0  0  0  0  0
   -2.8936   -1.4947    2.1882 H   0  0  0  0  0  0  0  0  0  0  0  0
   -2.5964   -3.2301    2.4022 H   0  0  0  0  0  0  0  0  0  0  0  0
   -1.0412    0.1517    0.7482 N   0  0  0  0  0  0  0  0  0  0  0  0
   -0.6079    1.5223    0.6467 C   0  0  2  0  0  0  0  0  0  0  0  0
   -0.8094    1.9798   -0.7973 C   0  0  0  0  0  0  0  0  0  0  0  0
    0.1177    2.3445   -1.5178 O   0  0  0  0  0  0  0  0  0  0  0  0
    0.8442    1.7351    1.1383 C   0  0  2  0  0  0  0  0  0  0  0  0
    1.0075    1.4062    2.6388 C   0  0  0  0  0  0  0  0  0  0  0  0
    1.3064    3.1629    0.8183 C   0  0  0  0  0  0  0  0  0  0  0  0
    2.4605    1.3473    3.0927 C   0  0  0  0  0  0  0  0  0  0  0  0
   -1.9022   -0.1128    0.2753 H   0  0  0  0  0  0  0  0  0  0  0  0
   -1.2984    2.1023    1.2724 H   0  0  0  0  0  0  0  0  0  0  0  0
    1.4955    1.0535    0.5749 H   0  0  0  0  0  0  0  0  0  0  0  0
    0.5029    2.1715    3.2397 H   0  0  0  0  0  0  0  0  0  0  0  0
    0.5268    0.4495    2.8751 H   0  0  0  0  0  0  0  0  0  0  0  0
    0.6947    3.8988    1.3513 H   0  0  0  0  0  0  0  0  0  0  0  0
    2.3432    3.3228    1.1295 H   0  0  0  0  0  0  0  0  0  0  0  0
    1.2381    3.3765   -0.2534 H   0  0  0  0  0  0  0  0  0  0  0  0
    3.0279    0.5993    2.5316 H   0  0  0  0  0  0  0  0  0  0  0  0
    2.5109    1.0720    4.1513 H   0  0  0  0  0  0  0  0  0  0  0  0
    2.9499    2.3188    2.9727 H   0  0  0  0  0  0  0  0  0  0  0  0
   -2.1374    1.9003   -1.1915 N   0  0  0  0  0  0  0  0  0  0  0  0
   -2.5941    2.2552   -2.5159 C   0  0  2  0  0  0  0  0  0  0  0  0
   -3.8590    1.4582   -2.8065 C   0  0  0  0  0  0  0  0  0  0  0  0
   -4.1388    0.4098   -2.2289 O   0  0  0  0  0  0  0  0  0  0  0  0
   -1.5254    1.9793   -3.5621 C   0  0  0  0  0  0  0  0  0  0  0  0
   -2.8228    1.5764   -0.5154 H   0  0  0  0  0  0  0  0  0  0  0  0
   -2.8326    3.3241   -2.4923 H   0  0  0  0  0  0  0  0  0  0  0  0
   -1.2733    0.9132   -3.6003 H   0  0  0  0  0  0  0  0  0  0  0  0
   -1.8623    2.2752   -4.5610 H   0  0  0  0  0  0  0  0  0  0  0  0
   -0.6063    2.5302   -3.3350 H   0  0  0  0  0  0  0  0  0  0  0  0
   -4.6171    2.0327   -3.8171 N   0  0  0  0  0  0  0  0  0  0  0  0
   -5.8572    1.4581   -4.2841 C   0  0  0  0  0  0  0  0  0  0  0  0
   -4.3186    2.9129   -4.2269 H   0  0  0  0  0  0  0  0  0  0  0  0
   -5.6557    0.7945   -5.1380 H   0  0  0  0  0  0  0  0  0  0  0  0
   -6.3219    0.8797   -3.4721 H   0  0  0  0  0  0  0  0  0  0  0  0
   -6.5387    2.2626   -4.5979 H   0  0  0  0  0  0  0  0  0  0  0  0
  1  3  1  0  0  0  0
  1  7  1  0  0  0  0
  1  2  2  0  0  0  0
 37 38  1  0  0  0  0
 38 46  1  0  0  0  0
 38 39  2  0  0  0  0
  8  9  1  0  0  0  0
  9 17  1  0  0  0  0
  9 10  2  0  0  0  0
 18 19  1  0  0  0  0
 19 36  1  0  0  0  0
 19 20  2  0  0  0  0
 22 24  1  0  0  0  0
 37 40  1  0  0  0  0
  8 11  1  0  0  0  0
 21 23  1  0  0  0  0
 46 47  1  0  0  0  0
 21 22  1  0  0  0  0
 36 37  1  0  0  0  0
  7  8  1  0  0  0  0
 18 21  1  0  0  0  0
 17 18  1  0  0  0  0
  3  4  1  0  0  0  0
  3  5  1  0  0  0  0
  3  6  1  0  0  0  0
 24 33  1  0  0  0  0
 24 34  1  0  0  0  0
 24 35  1  0  0  0  0
 40 43  1  0  0  0  0
 40 44  1  0  0  0  0
 40 45  1  0  0  0  0
 11 14  1  0  0  0  0
 11 15  1  0  0  0  0
 11 16  1  0  0  0  0
 23 30  1  0  0  0  0
 23 31  1  0  0  0  0
 23 32  1  0  0  0  0
 47 49  1  0  0  0  0
 47 50  1  0  0  0  0
 47 51  1  0  0  0  0
 22 28  1  0  0  0  0
 22 29  1  0  0  0  0
 37 42  1  0  0  0  0
  8 13  1  0  0  0  0
 18 26  1  0  0  0  0
 21 27  1  0  0  0  0
 46 48  1  0  0  0  0
  7 12  1  0  0  0  0
 36 41  1  0  0  0  0
 17 25  1  0  0  0  0
M  END
$$$$

  -OEChem-05262214473D

 51 50  0     1  0  0  0  0  0999 V2000
    1.3524   -3.0009    1.4091 C   0  0  0  0  0  0  0  0  0  0  0  0
    1.8758   -1.9880    0.9598 O   0  0  0  0  0  0  0  0  0  0  0  0
    2.2030   -4.1782    1.7536 C   0  0  0  0  0  0  0  0  0  0  0  0
    2.3264   -4.8705    0.9053 H   0  0  0  0  0  0  0  0  0  0  0  0
    3.2257   -3.8876    2.0432 H   0  0  0  0  0  0  0  0  0  0  0  0
    1.8327   -4.8004    2.5839 H   0  0  0  0  0  0  0  0  0  0  0  0
    0.0005   -3.1873    1.6465 N   0  0  0  0  0  0  0  0  0  0  0  0
   -0.9949   -2.1807    1.3864 C   0  0  2  0  0  0  0  0  0  0  0  0
   -0.3083   -0.8216    1.4164 C   0  0  0  0  0  0  0  0  0  0  0  0
    0.7533   -0.6191    2.0022 O   0  0  0  0  0  0  0  0  0  0  0  0
   -2.1232   -2.2423    2.4042 C   0  0  0  0  0  0  0  0  0  0  0  0
   -0.3048   -4.0823    2.0245 H   0  0  0  0  0  0  0  0  0  0  0  0
   -1.3830   -2.3724    0.3801 H   0  0  0  0  0  0  0  0  0  0  0  0
   -1.7534   -2.0527    3.4185 H   0  0  0  0  0  0  0  0  0  0  0  0
   -2.8936   -1.4947    2.1882 H   0  0  0  0  0  0  0  0  0  0  0  0
   -2.5964   -3.2301    2.4022 H   0  0  0  0  0  0  0  0  0  0  0  0
   -1.0412    0.1517    0.7482 N   0  0  0  0  0  0  0  0  0  0  0  0
   -0.6079    1.5223    0.6467 C   0  0  2  0  0  0  0  0  0  0  0  0
   -0.8094    1.9798   -0.7973 C   0  0  0  0  0  0  0  0  0  0  0  0
    0.1165    2.0875   -1.5990 O   0  0  0  0  0  0  0  0  0  0  0  0
    0.8442    1.7351    1.1383 C   0  0  2  0  0  0  0  0  0  0  0  0
    1.0075    1.4062    2.6388 C   0  0  0  0  0  0  0  0  0  0  0  0
    1.3064    3.1629    0.8183 C   0  0  0  0  0  0  0  0  0  0  0  0
    2.4605    1.3473    3.0927 C   0  0  0  0  0  0  0  0  0  0  0  0
   -1.9022   -0.1128    0.2753 H   0  0  0  0  0  0  0  0  0  0  0  0
   -1.2984    2.1023    1.2724 H   0  0  0  0  0  0  0  0  0  0  0  0
    1.4955    1.0535    0.5749 H   0  0  0  0  0  0  0  0  0  0  0  0
    0.5029    2.1715    3.2397 H   0  0  0  0  0  0  0  0  0  0  0  0
    0.5268    0.4495    2.8751 H   0  0  0  0  0  0  0  0  0  0  0  0
    0.6947    3.8988    1.3513 H   0  0  0  0  0  0  0  0  0  0  0  0
    2.3432    3.3228    1.1295 H   0  0  0  0  0  0  0  0  0  0  0  0
    1.2381    3.3765   -0.2534 H   0  0  0  0  0  0  0  0  0  0  0  0
    3.0279    0.5993    2.5316 H   0  0  0  0  0  0  0  0  0  0  0  0
    2.5109    1.0720    4.1513 H   0  0  0  0  0  0  0  0  0  0  0  0
    2.9499    2.3188    2.9727 H   0  0  0  0  0  0  0  0  0  0  0  0
   -2.1446    2.2197   -1.0893 N   0  0  0  0  0  0  0  0  0  0  0  0
   -2.6078    2.6435   -2.3909 C   0  0  2  0  0  0  0  0  0  0  0  0
   -4.0480    2.1752   -2.5530 C   0  0  0  0  0  0  0  0  0  0  0  0
   -4.5262    1.2422   -1.9111 O   0  0  0  0  0  0  0  0  0  0  0  0
   -1.7276    2.0877   -3.4995 C   0  0  0  0  0  0  0  0  0  0  0  0
   -2.8305    2.0910   -0.3513 H   0  0  0  0  0  0  0  0  0  0  0  0
   -2.5764    3.7385   -2.3968 H   0  0  0  0  0  0  0  0  0  0  0  0
   -1.7464    0.9918   -3.5094 H   0  0  0  0  0  0  0  0  0  0  0  0
   -2.0629    2.4329   -4.4831 H   0  0  0  0  0  0  0  0  0  0  0  0
   -0.6867    2.4010   -3.3647 H   0  0  0  0  0  0  0  0  0  0  0  0
   -4.7236    2.8936   -3.5295 N   0  0  0  0  0  0  0  0  0  0  0  0
   -6.1001    2.6303   -3.8789 C   0  0  0  0  0  0  0  0  0  0  0  0
   -4.2545    3.6630   -3.9982 H   0  0  0  0  0  0  0  0  0  0  0  0
   -6.1366    1.9169   -4.7153 H   0  0  0  0  0  0  0  0  0  0  0  0
   -6.6236    2.2041   -3.0104 H   0  0  0  0  0  0  0  0  0  0  0  0
   -6.5887    3.5697   -4.1768 H   0  0  0  0  0  0  0  0  0  0  0  0
  1  3  1  0  0  0  0
  1  7  1  0  0  0  0
  1  2  2  0  0  0  0
 37 38  1  0  0  0  0
 38 46  1  0  0  0  0
 38 39  2  0  0  0  0
  8  9  1  0  0  0  0
  9 17  1  0  0  0  0
  9 10  2  0  0  0  0
 18 19  1  0  0  0  0
 19 36  1  0  0  0  0
 19 20  2  0  0  0  0
 22 24  1  0  0  0  0
 37 40  1  0  0  0  0
  8 11  1  0  0  0  0
 21 23  1  0  0  0  0
 46 47  1  0  0  0  0
 21 22  1  0  0  0  0
 36 37  1  0  0  0  0
  7  8  1  0  0  0  0
 18 21  1  0  0  0  0
 17 18  1  0  0  0  0
  3  4  1  0  0  0  0
  3  5  1  0  0  0  0
  3  6  1  0  0  0  0
 24 33  1  0  0  0  0
 24 34  1  0  0  0  0
 24 35  1  0  0  0  0
 40 43  1  0  0  0  0
 40 44  1  0  0  0  0
 40 45  1  0  0  0  0
 11 14  1  0  0  0  0
 11 15  1  0  0  0  0
 11 16  1  0  0  0  0
 23 30  1  0  0  0  0
 23 31  1  0  0  0  0
 23 32  1  0  0  0  0
 47 49  1  0  0  0  0
 47 50  1  0  0  0  0
 47 51  1  0  0  0  0
 22 28  1  0  0  0  0
 22 29  1  0  0  0  0
 37 42  1  0  0  0  0
  8 13  1  0  0  0  0
 18 26  1  0  0  0  0
 21 27  1  0  0  0  0
 46 48  1  0  0  0  0
  7 12  1  0  0  0  0
 36 41  1  0  0  0  0
 17 25  1  0  0  0  0
M  END
$$$$

  -OEChem-05262214473D

 51 50  0     1  0  0  0  0  0999 V2000
    1.3524   -3.0009    1.4091 C   0  0  0  0  0  0  0  0  0  0  0  0
    1.8758   -1.9880    0.9598 O   0  0  0  0  0  0  0  0  0  0  0  0
    2.2030   -4.1782    1.7536 C   0  0  0  0  0  0  0  0  0  0  0  0
    2.3264   -4.8705    0.9053 H   0  0  0  0  0  0  0  0  0  0  0  0
    3.2257   -3.8876    2.0432 H   0  0  0  0  0  0  0  0  0  0  0  0
    1.8327   -4.8004    2.5839 H   0  0  0  0  0  0  0  0  0  0  0  0
    0.0005   -3.1873    1.6465 N   0  0  0  0  0  0  0  0  0  0  0  0
   -0.9949   -2.1807    1.3864 C   0  0  2  0  0  0  0  0  0  0  0  0
   -0.3083   -0.8216    1.4164 C   0  0  0  0  0  0  0  0  0  0  0  0
    0.7533   -0.6191    2.0022 O   0  0  0  0  0  0  0  0  0  0  0  0
   -2.1232   -2.2423    2.4042 C   0  0  0  0  0  0  0  0  0  0  0  0
   -0.3048   -4.0823    2.0245 H   0  0  0  0  0  0  0  0  0  0  0  0
   -1.3830   -2.3724    0.3801 H   0  0  0  0  0  0  0  0  0  0  0  0
   -1.7534   -2.0527    3.4185 H   0  0  0  0  0  0  0  0  0  0  0  0
   -2.8936   -1.4947    2.1882 H   0  0  0  0  0  0  0  0  0  0  0  0
   -2.5964   -3.2301    2.4022 H   0  0  0  0  0  0  0  0  0  0  0  0
   -1.0412    0.1517    0.7482 N   0  0  0  0  0  0  0  0  0  0  0  0
   -0.6079    1.5223    0.6467 C   0  0  2  0  0  0  0  0  0  0  0  0
   -0.8094    1.9798   -0.7973 C   0  0  0  0  0  0  0  0  0  0  0  0
    0.0461    1.8369   -1.6686 O   0  0  0  0  0  0  0  0  0  0  0  0
    0.8442    1.7351    1.1383 C   0  0  2  0  0  0  0  0  0  0  0  0
    1.0075    1.4062    2.6388 C   0  0  0  0  0  0  0  0  0  0  0  0
    1.3064    3.1629    0.8183 C   0  0  0  0  0  0  0  0  0  0  0  0
    2.4605    1.3473    3.0927 C   0  0  0  0  0  0  0  0  0  0  0  0
   -1.9022   -0.1128    0.2753 H   0  0  0  0  0  0  0  0  0  0  0  0
   -1.2984    2.1023    1.2724 H   0  0  0  0  0  0  0  0  0  0  0  0
    1.4955    1.0535    0.5749 H   0  0  0  0  0  0  0  0  0  0  0  0
    0.5029    2.1715    3.2397 H   0  0  0  0  0  0  0  0  0  0  0  0
    0.5268    0.4495    2.8751 H   0  0  0  0  0  0  0  0  0  0  0  0
    0.6947    3.8988    1.3513 H   0  0  0  0  0  0  0  0  0  0  0  0
    2.3432    3.3228    1.1295 H   0  0  0  0  0  0  0  0  0  0  0  0
    1.2381    3.3765   -0.2534 H   0  0  0  0  0  0  0  0  0  0  0  0
    3.0279    0.5993    2.5316 H   0  0  0  0  0  0  0  0  0  0  0  0
    2.5109    1.0720    4.1513 H   0  0  0  0  0  0  0  0  0  0  0  0
    2.9499    2.3188    2.9727 H   0  0  0  0  0  0  0  0  0  0  0  0
   -2.0654    2.5334   -1.0009 N   0  0  0  0  0  0  0  0  0  0  0  0
   -2.5165    3.0261   -2.2824 C   0  0  2  0  0  0  0  0  0  0  0  0
   -4.0355    2.9226   -2.3179 C   0  0  0  0  0  0  0  0  0  0  0  0
   -4.6722    2.1519   -1.6025 O   0  0  0  0  0  0  0  0  0  0  0  0
   -1.8915    2.2440   -3.4271 C   0  0  0  0  0  0  0  0  0  0  0  0
   -2.6993    2.5955   -0.2098 H   0  0  0  0  0  0  0  0  0  0  0  0
   -2.2202    4.0793   -2.3385 H   0  0  0  0  0  0  0  0  0  0  0  0
   -2.1770    1.1865   -3.3877 H   0  0  0  0  0  0  0  0  0  0  0  0
   -2.2120    2.6368   -4.3977 H   0  0  0  0  0  0  0  0  0  0  0  0
   -0.7982    2.2949   -3.3828 H   0  0  0  0  0  0  0  0  0  0  0  0
   -4.5936    3.7610   -3.2728 N   0  0  0  0  0  0  0  0  0  0  0  0
   -6.0166    3.8358   -3.5086 C   0  0  0  0  0  0  0  0  0  0  0  0
   -3.9914    4.3797   -3.8078 H   0  0  0  0  0  0  0  0  0  0  0  0
   -6.2938    3.1330   -4.3081 H   0  0  0  0  0  0  0  0  0  0  0  0
   -6.5552    3.5728   -2.5863 H   0  0  0  0  0  0  0  0  0  0  0  0
   -6.2847    4.8589   -3.8107 H   0  0  0  0  0  0  0  0  0  0  0  0
  1  3  1  0  0  0  0
  1  7  1  0  0  0  0
  1  2  2  0  0  0  0
 37 38  1  0  0  0  0
 38 46  1  0  0  0  0
 38 39  2  0  0  0  0
  8  9  1  0  0  0  0
  9 17  1  0  0  0  0
  9 10  2  0  0  0  0
 18 19  1  0  0  0  0
 19 36  1  0  0  0  0
 19 20  2  0  0  0  0
 22 24  1  0  0  0  0
 37 40  1  0  0  0  0
  8 11  1  0  0  0  0
 21 23  1  0  0  0  0
 46 47  1  0  0  0  0
 21 22  1  0  0  0  0
 36 37  1  0  0  0  0
  7  8  1  0  0  0  0
 18 21  1  0  0  0  0
 17 18  1  0  0  0  0
  3  4  1  0  0  0  0
  3  5  1  0  0  0  0
  3  6  1  0  0  0  0
 24 33  1  0  0  0  0
 24 34  1  0  0  0  0
 24 35  1  0  0  0  0
 40 43  1  0  0  0  0
 40 44  1  0  0  0  0
 40 45  1  0  0  0  0
 11 14  1  0  0  0  0
 11 15  1  0  0  0  0
 11 16  1  0  0  0  0
 23 30  1  0  0  0  0
 23 31  1  0  0  0  0
 23 32  1  0  0  0  0
 47 49  1  0  0  0  0
 47 50  1  0  0  0  0
 47 51  1  0  0  0  0
 22 28  1  0  0  0  0
 22 29  1  0  0  0  0
 37 42  1  0  0  0  0
  8 13  1  0  0  0  0
 18 26  1  0  0  0  0
 21 27  1  0  0  0  0
 46 48  1  0  0  0  0
  7 12  1  0  0  0  0
 36 41  1  0  0  0  0
 17 25  1  0  0  0  0
M  END
$$$$

  -OEChem-05262214473D

 51 50  0     1  0  0  0  0  0999 V2000
    1.3524   -3.0009    1.4091 C   0  0  0  0  0  0  0  0  0  0  0  0
    1.8758   -1.9880    0.9598 O   0  0  0  0  0  0  0  0  0  0  0  0
    2.2030   -4.1782    1.7536 C   0  0  0  0  0  0  0  0  0  0  0  0
    2.3264   -4.8705    0.9053 H   0  0  0  0  0  0  0  0  0  0  0  0
    3.2257   -3.8876    2.0432 H   0  0  0  0  0  0  0  0  0  0  0  0
    1.8327   -4.8004    2.5839 H   0  0  0  0  0  0  0  0  0  0  0  0
    0.0005   -3.1873    1.6465 N   0  0  0  0  0  0  0  0  0  0  0  0
   -0.9949   -2.1807    1.3864 C   0  0  2  0  0  0  0  0  0  0  0  0
   -0.3083   -0.8216    1.4164 C   0  0  0  0  0  0  0  0  0  0  0  0
    0.7533   -0.6191    2.0022 O   0  0  0  0  0  0  0  0  0  0  0  0
   -2.1232   -2.2423    2.4042 C   0  0  0  0  0  0  0  0  0  0  0  0
   -0.3048   -4.0823    2.0245 H   0  0  0  0  0  0  0  0  0  0  0  0
   -1.3830   -2.3724    0.3801 H   0  0  0  0  0  0  0  0  0  0  0  0
   -1.7534   -2.0527    3.4185 H   0  0  0  0  0  0  0  0  0  0  0  0
   -2.8936   -1.4947    2.1882 H   0  0  0  0  0  0  0  0  0  0  0  0
   -2.5964   -3.2301    2.4022 H   0  0  0  0  0  0  0  0  0  0  0  0
   -1.0412    0.1517    0.7482 N   0  0  0  0  0  0  0  0  0  0  0  0
   -0.6079    1.5223    0.6467 C   0  0  2  0  0  0  0  0  0  0  0  0
   -0.8094    1.9798   -0.7973 C   0  0  0  0  0  0  0  0  0  0  0  0
   -0.0885    1.6096   -1.7218 O   0  0  0  0  0  0  0  0  0  0  0  0
    0.8442    1.7351    1.1383 C   0  0  2  0  0  0  0  0  0  0  0  0
    1.0075    1.4062    2.6388 C   0  0  0  0  0  0  0  0  0  0  0  0
    1.3064    3.1629    0.8183 C   0  0  0  0  0  0  0  0  0  0  0  0
    2.4605    1.3473    3.0927 C   0  0  0  0  0  0  0  0  0  0  0  0
   -1.9022   -0.1128    0.2753 H   0  0  0  0  0  0  0  0  0  0  0  0
   -1.2984    2.1023    1.2724 H   0  0  0  0  0  0  0  0  0  0  0  0
    1.4955    1.0535    0.5749 H   0  0  0  0  0  0  0  0  0  0  0  0
    0.5029    2.1715    3.2397 H   0  0  0  0  0  0  0  0  0  0  0  0
    0.5268    0.4495    2.8751 H   0  0  0  0  0  0  0  0  0  0  0  0
    0.6947    3.8988    1.3513 H   0  0  0  0  0  0  0  0  0  0  0  0
    2.3432    3.3228    1.1295 H   0  0  0  0  0  0  0  0  0  0  0  0
    1.2381    3.3765   -0.2534 H   0  0  0  0  0  0  0  0  0  0  0  0
    3.0279    0.5993    2.5316 H   0  0  0  0  0  0  0  0  0  0  0  0
    2.5109    1.0720    4.1513 H   0  0  0  0  0  0  0  0  0  0  0  0
    2.9499    2.3188    2.9727 H   0  0  0  0  0  0  0  0  0  0  0  0
   -1.9053    2.8202   -0.9324 N   0  0  0  0  0  0  0  0  0  0  0  0
   -2.3262    3.3771   -2.1978 C   0  0  2  0  0  0  0  0  0  0  0  0
   -3.8225    3.6495   -2.1173 C   0  0  0  0  0  0  0  0  0  0  0  0
   -4.5668    3.0768   -1.3242 O   0  0  0  0  0  0  0  0  0  0  0  0
   -2.0059    2.4375   -3.3498 C   0  0  0  0  0  0  0  0  0  0  0  0
   -2.4383    3.0556   -0.1004 H   0  0  0  0  0  0  0  0  0  0  0  0
   -1.7883    4.3234   -2.3214 H   0  0  0  0  0  0  0  0  0  0  0  0
   -2.5359    1.4840   -3.2433 H   0  0  0  0  0  0  0  0  0  0  0  0
   -2.2995    2.8733   -4.3106 H   0  0  0  0  0  0  0  0  0  0  0  0
   -0.9332    2.2191   -3.3880 H   0  0  0  0  0  0  0  0  0  0  0  0
   -4.2360    4.5757   -3.0646 N   0  0  0  0  0  0  0  0  0  0  0  0
   -5.6124    4.9924   -3.1985 C   0  0  0  0  0  0  0  0  0  0  0  0
   -3.5472    5.0141   -3.6688 H   0  0  0  0  0  0  0  0  0  0  0  0
   -6.1166    4.3600   -3.9440 H   0  0  0  0  0  0  0  0  0  0  0  0
   -6.1216    4.8926   -2.2286 H   0  0  0  0  0  0  0  0  0  0  0  0
   -5.6474    6.0424   -3.5247 H   0  0  0  0  0  0  0  0  0  0  0  0
  1  3  1  0  0  0  0
  1  7  1  0  0  0  0
  1  2  2  0  0  0  0
 37 38  1  0  0  0  0
 38 46  1  0  0  0  0
 38 39  2  0  0  0  0
  8  9  1  0  0  0  0
  9 17  1  0  0  0  0
  9 10  2  0  0  0  0
 18 19  1  0  0  0  0
 19 36  1  0  0  0  0
 19 20  2  0  0  0  0
 22 24  1  0  0  0  0
 37 40  1  0  0  0  0
  8 11  1  0  0  0  0
 21 23  1  0  0  0  0
 46 47  1  0  0  0  0
 21 22  1  0  0  0  0
 36 37  1  0  0  0  0
  7  8  1  0  0  0  0
 18 21  1  0  0  0  0
 17 18  1  0  0  0  0
  3  4  1  0  0  0  0
  3  5  1  0  0  0  0
  3  6  1  0  0  0  0
 24 33  1  0  0  0  0
 24 34  1  0  0  0  0
 24 35  1  0  0  0  0
 40 43  1  0  0  0  0
 40 44  1  0  0  0  0
 40 45  1  0  0  0  0
 11 14  1  0  0  0  0
 11 15  1  0  0  0  0
 11 16  1  0  0  0  0
 23 30  1  0  0  0  0
 23 31  1  0  0  0  0
 23 32  1  0  0  0  0
 47 49  1  0  0  0  0
 47 50  1  0  0  0  0
 47 51  1  0  0  0  0
 22 28  1  0  0  0  0
 22 29  1  0  0  0  0
 37 42  1  0  0  0  0
  8 13  1  0  0  0  0
 18 26  1  0  0  0  0
 21 27  1  0  0  0  0
 46 48  1  0  0  0  0
  7 12  1  0  0  0  0
 36 41  1  0  0  0  0
 17 25  1  0  0  0  0
M  END
$$$$

  -OEChem-05262214473D

 51 50  0     1  0  0  0  0  0999 V2000
    1.3524   -3.0009    1.4091 C   0  0  0  0  0  0  0  0  0  0  0  0
    1.8758   -1.9880    0.9598 O   0  0  0  0  0  0  0  0  0  0  0  0
    2.2030   -4.1782    1.7536 C   0  0  0  0  0  0  0  0  0  0  0  0
    2.3264   -4.8705    0.9053 H   0  0  0  0  0  0  0  0  0  0  0  0
    3.2257   -3.8876    2.0432 H   0  0  0  0  0  0  0  0  0  0  0  0
    1.8327   -4.8004    2.5839 H   0  0  0  0  0  0  0  0  0  0  0  0
    0.0005   -3.1873    1.6465 N   0  0  0  0  0  0  0  0  0  0  0  0
   -0.9949   -2.1807    1.3864 C   0  0  2  0  0  0  0  0  0  0  0  0
   -0.3083   -0.8216    1.4164 C   0  0  0  0  0  0  0  0  0  0  0  0
    0.7533   -0.6191    2.0022 O   0  0  0  0  0  0  0  0  0  0  0  0
   -2.1232   -2.2423    2.4042 C   0  0  0  0  0  0  0  0  0  0  0  0
   -0.3048   -4.0823    2.0245 H   0  0  0  0  0  0  0  0  0  0  0  0
   -1.3830   -2.3724    0.3801 H   0  0  0  0  0  0  0  0  0  0  0  0
   -1.7534   -2.0527    3.4185 H   0  0  0  0  0  0  0  0  0  0  0  0
   -2.8936   -1.4947    2.1882 H   0  0  0  0  0  0  0  0  0  0  0  0
   -2.5964   -3.2301    2.4022 H   0  0  0  0  0  0  0  0  0  0  0  0
   -1.0412    0.1517    0.7482 N   0  0  0  0  0  0  0  0  0  0  0  0
   -0.6079    1.5223    0.6467 C   0  0  2  0  0  0  0  0  0  0  0  0
   -0.8094    1.9798   -0.7973 C   0  0  0  0  0  0  0  0  0  0  0  0
   -0.2783    1.4212   -1.7550 O   0  0  0  0  0  0  0  0  0  0  0  0
    0.8442    1.7351    1.1383 C   0  0  2  0  0  0  0  0  0  0  0  0
    1.0075    1.4062    2.6388 C   0  0  0  0  0  0  0  0  0  0  0  0
    1.3064    3.1629    0.8183 C   0  0  0  0  0  0  0  0  0  0  0  0
    2.4605    1.3473    3.0927 C   0  0  0  0  0  0  0  0  0  0  0  0
   -1.9022   -0.1128    0.2753 H   0  0  0  0  0  0  0  0  0  0  0  0
   -1.2984    2.1023    1.2724 H   0  0  0  0  0  0  0  0  0  0  0  0
    1.4955    1.0535    0.5749 H   0  0  0  0  0  0  0  0  0  0  0  0
    0.5029    2.1715    3.2397 H   0  0  0  0  0  0  0  0  0  0  0  0
    0.5268    0.4495    2.8751 H   0  0  0  0  0  0  0  0  0  0  0  0
    0.6947    3.8988    1.3513 H   0  0  0  0  0  0  0  0  0  0  0  0
    2.3432    3.3228    1.1295 H   0  0  0  0  0  0  0  0  0  0  0  0
    1.2381    3.3765   -0.2534 H   0  0  0  0  0  0  0  0  0  0  0  0
    3.0279    0.5993    2.5316 H   0  0  0  0  0  0  0  0  0  0  0  0
    2.5109    1.0720    4.1513 H   0  0  0  0  0  0  0  0  0  0  0  0
    2.9499    2.3188    2.9727 H   0  0  0  0  0  0  0  0  0  0  0  0
   -1.6753    3.0603   -0.8884 N   0  0  0  0  0  0  0  0  0  0  0  0
   -2.0500    3.6725   -2.1427 C   0  0  2  0  0  0  0  0  0  0  0  0
   -3.4234    4.3064   -1.9649 C   0  0  0  0  0  0  0  0  0  0  0  0
   -4.2173    3.9539   -1.0951 O   0  0  0  0  0  0  0  0  0  0  0  0
   -2.0632    2.6551   -3.2729 C   0  0  0  0  0  0  0  0  0  0  0  0
   -2.0651    3.4398   -0.0307 H   0  0  0  0  0  0  0  0  0  0  0  0
   -1.3100    4.4541   -2.3467 H   0  0  0  0  0  0  0  0  0  0  0  0
   -2.7986    1.8641   -3.0863 H   0  0  0  0  0  0  0  0  0  0  0  0
   -2.3194    3.1260   -4.2277 H   0  0  0  0  0  0  0  0  0  0  0  0
   -1.0826    2.1788   -3.3799 H   0  0  0  0  0  0  0  0  0  0  0  0
   -3.6752    5.2824   -2.9189 N   0  0  0  0  0  0  0  0  0  0  0  0
   -4.9151    6.0214   -2.9698 C   0  0  0  0  0  0  0  0  0  0  0  0
   -2.9522    5.5229   -3.5906 H   0  0  0  0  0  0  0  0  0  0  0  0
   -5.6172    5.5143   -3.6480 H   0  0  0  0  0  0  0  0  0  0  0  0
   -5.3523    6.0736   -1.9618 H   0  0  0  0  0  0  0  0  0  0  0  0
   -4.7202    7.0394   -3.3382 H   0  0  0  0  0  0  0  0  0  0  0  0
  1  3  1  0  0  0  0
  1  7  1  0  0  0  0
  1  2  2  0  0  0  0
 37 38  1  0  0  0  0
 38 46  1  0  0  0  0
 38 39  2  0  0  0  0
  8  9  1  0  0  0  0
  9 17  1  0  0  0  0
  9 10  2  0  0  0  0
 18 19  1  0  0  0  0
 19 36  1  0  0  0  0
 19 20  2  0  0  0  0
 22 24  1  0  0  0  0
 37 40  1  0  0  0  0
  8 11  1  0  0  0  0
 21 23  1  0  0  0  0
 46 47  1  0  0  0  0
 21 22  1  0  0  0  0
 36 37  1  0  0  0  0
  7  8  1  0  0  0  0
 18 21  1  0  0  0  0
 17 18  1  0  0  0  0
  3  4  1  0  0  0  0
  3  5  1  0  0  0  0
  3  6  1  0  0  0  0
 24 33  1  0  0  0  0
 24 34  1  0  0  0  0
 24 35  1  0  0  0  0
 40 43  1  0  0  0  0
 40 44  1  0  0  0  0
 40 45  1  0  0  0  0
 11 14  1  0  0  0  0
 11 15  1  0  0  0  0
 11 16  1  0  0  0  0
 23 30  1  0  0  0  0
 23 31  1  0  0  0  0
 23 32  1  0  0  0  0
 47 49  1  0  0  0  0
 47 50  1  0  0  0  0
 47 51  1  0  0  0  0
 22 28  1  0  0  0  0
 22 29  1  0  0  0  0
 37 42  1  0  0  0  0
  8 13  1  0  0  0  0
 18 26  1  0  0  0  0
 21 27  1  0  0  0  0
 46 48  1  0  0  0  0
  7 12  1  0  0  0  0
 36 41  1  0  0  0  0
 17 25  1  0  0  0  0
M  END
$$$$

  -OEChem-05262214473D

 51 50  0     1  0  0  0  0  0999 V2000
    1.3524   -3.0009    1.4091 C   0  0  0  0  0  0  0  0  0  0  0  0
    1.8758   -1.9880    0.9598 O   0  0  0  0  0  0  0  0  0  0  0  0
    2.2030   -4.1782    1.7536 C   0  0  0  0  0  0  0  0  0  0  0  0
    2.3264   -4.8705    0.9053 H   0  0  0  0  0  0  0  0  0  0  0  0
    3.2257   -3.8876    2.0432 H   0  0  0  0  0  0  0  0  0  0  0  0
    1.8327   -4.8004    2.5839 H   0  0  0  0  0  0  0  0  0  0  0  0
    0.0005   -3.1873    1.6465 N   0  0  0  0  0  0  0  0  0  0  0  0
   -0.9949   -2.1807    1.3864 C   0  0  2  0  0  0  0  0  0  0  0  0
   -0.3083   -0.8216    1.4164 C   0  0  0  0  0  0  0  0  0  0  0  0
    0.7533   -0.6191    2.0022 O   0  0  0  0  0  0  0  0  0  0  0  0
   -2.1232   -2.2423    2.4042 C   0  0  0  0  0  0  0  0  0  0  0  0
   -0.3048   -4.0823    2.0245 H   0  0  0  0  0  0  0  0  0  0  0  0
   -1.3830   -2.3724    0.3801 H   0  0  0  0  0  0  0  0  0  0  0  0
   -1.7534   -2.0527    3.4185 H   0  0  0  0  0  0  0  0  0  0  0  0
   -2.8936   -1.4947    2.1882 H   0  0  0  0  0  0  0  0  0  0  0  0
   -2.5964   -3.2301    2.4022 H   0  0  0  0  0  0  0  0  0  0  0  0
   -1.0412    0.1517    0.7482 N   0  0  0  0  0  0  0  0  0  0  0  0
   -0.6079    1.5223    0.6467 C   0  0  2  0  0  0  0  0  0  0  0  0
   -0.8094    1.9798   -0.7973 C   0  0  0  0  0  0  0  0  0  0  0  0
   -0.5102    1.2844   -1.7660 O   0  0  0  0  0  0  0  0  0  0  0  0
    0.8442    1.7351    1.1383 C   0  0  2  0  0  0  0  0  0  0  0  0
    1.0075    1.4062    2.6388 C   0  0  0  0  0  0  0  0  0  0  0  0
    1.3064    3.1629    0.8183 C   0  0  0  0  0  0  0  0  0  0  0  0
    2.4605    1.3473    3.0927 C   0  0  0  0  0  0  0  0  0  0  0  0
   -1.9022   -0.1128    0.2753 H   0  0  0  0  0  0  0  0  0  0  0  0
   -1.2984    2.1023    1.2724 H   0  0  0  0  0  0  0  0  0  0  0  0
    1.4955    1.0535    0.5749 H   0  0  0  0  0  0  0  0  0  0  0  0
    0.5029    2.1715    3.2397 H   0  0  0  0  0  0  0  0  0  0  0  0
    0.5268    0.4495    2.8751 H   0  0  0  0  0  0  0  0  0  0  0  0
    0.6947    3.8988    1.3513 H   0  0  0  0  0  0  0  0  0  0  0  0
    2.3432    3.3228    1.1295 H   0  0  0  0  0  0  0  0  0  0  0  0
    1.2381    3.3765   -0.2534 H   0  0  0  0  0  0  0  0  0  0  0  0
    3.0279    0.5993    2.5316 H   0  0  0  0  0  0  0  0  0  0  0  0
    2.5109    1.0720    4.1513 H   0  0  0  0  0  0  0  0  0  0  0  0
    2.9499    2.3188    2.9727 H   0  0  0  0  0  0  0  0  0  0  0  0
   -1.3909    3.2375   -0.8719 N   0  0  0  0  0  0  0  0  0  0  0  0
   -1.7067    3.8922   -2.1210 C   0  0  2  0  0  0  0  0  0  0  0  0
   -2.8654    4.8485   -1.8710 C   0  0  0  0  0  0  0  0  0  0  0  0
   -3.6473    4.7235   -0.9308 O   0  0  0  0  0  0  0  0  0  0  0  0
   -2.0593    2.8819   -3.2016 C   0  0  0  0  0  0  0  0  0  0  0  0
   -1.6053    3.7221   -0.0054 H   0  0  0  0  0  0  0  0  0  0  0  0
   -0.8181    4.4626   -2.4127 H   0  0  0  0  0  0  0  0  0  0  0  0
   -2.9473    2.3008   -2.9271 H   0  0  0  0  0  0  0  0  0  0  0  0
   -2.2705    3.3778   -4.1548 H   0  0  0  0  0  0  0  0  0  0  0  0
   -1.2362    2.1766   -3.3592 H   0  0  0  0  0  0  0  0  0  0  0  0
   -2.9493    5.8328   -2.8458 N   0  0  0  0  0  0  0  0  0  0  0  0
   -3.9721    6.8525   -2.8380 C   0  0  0  0  0  0  0  0  0  0  0  0
   -2.2469    5.8716   -3.5785 H   0  0  0  0  0  0  0  0  0  0  0  0
   -4.8295    6.5172   -3.4401 H   0  0  0  0  0  0  0  0  0  0  0  0
   -4.2996    7.0353   -1.8039 H   0  0  0  0  0  0  0  0  0  0  0  0
   -3.5663    7.7820   -3.2639 H   0  0  0  0  0  0  0  0  0  0  0  0
  1  3  1  0  0  0  0
  1  7  1  0  0  0  0
  1  2  2  0  0  0  0
 37 38  1  0  0  0  0
 38 46  1  0  0  0  0
 38 39  2  0  0  0  0
  8  9  1  0  0  0  0
  9 17  1  0  0  0  0
  9 10  2  0  0  0  0
 18 19  1  0  0  0  0
 19 36  1  0  0  0  0
 19 20  2  0  0  0  0
 22 24  1  0  0  0  0
 37 40  1  0  0  0  0
  8 11  1  0  0  0  0
 21 23  1  0  0  0  0
 46 47  1  0  0  0  0
 21 22  1  0  0  0  0
 36 37  1  0  0  0  0
  7  8  1  0  0  0  0
 18 21  1  0  0  0  0
 17 18  1  0  0  0  0
  3  4  1  0  0  0  0
  3  5  1  0  0  0  0
  3  6  1  0  0  0  0
 24 33  1  0  0  0  0
 24 34  1  0  0  0  0
 24 35  1  0  0  0  0
 40 43  1  0  0  0  0
 40 44  1  0  0  0  0
 40 45  1  0  0  0  0
 11 14  1  0  0  0  0
 11 15  1  0  0  0  0
 11 16  1  0  0  0  0
 23 30  1  0  0  0  0
 23 31  1  0  0  0  0
 23 32  1  0  0  0  0
 47 49  1  0  0  0  0
 47 50  1  0  0  0  0
 47 51  1  0  0  0  0
 22 28  1  0  0  0  0
 22 29  1  0  0  0  0
 37 42  1  0  0  0  0
  8 13  1  0  0  0  0
 18 26  1  0  0  0  0
 21 27  1  0  0  0  0
 46 48  1  0  0  0  0
  7 12  1  0  0  0  0
 36 41  1  0  0  0  0
 17 25  1  0  0  0  0
M  END
$$$$

  -OEChem-05262214473D

 51 50  0     1  0  0  0  0  0999 V2000
    1.3524   -3.0009    1.4091 C   0  0  0  0  0  0  0  0  0  0  0  0
    1.8758   -1.9880    0.9598 O   0  0  0  0  0  0  0  0  0  0  0  0
    2.2030   -4.1782    1.7536 C   0  0  0  0  0  0  0  0  0  0  0  0
    2.3264   -4.8705    0.9053 H   0  0  0  0  0  0  0  0  0  0  0  0
    3.2257   -3.8876    2.0432 H   0  0  0  0  0  0  0  0  0  0  0  0
    1.8327   -4.8004    2.5839 H   0  0  0  0  0  0  0  0  0  0  0  0
    0.0005   -3.1873    1.6465 N   0  0  0  0  0  0  0  0  0  0  0  0
   -0.9949   -2.1807    1.3864 C   0  0  2  0  0  0  0  0  0  0  0  0
   -0.3083   -0.8216    1.4164 C   0  0  0  0  0  0  0  0  0  0  0  0
    0.7533   -0.6191    2.0022 O   0  0  0  0  0  0  0  0  0  0  0  0
   -2.1232   -2.2423    2.4042 C   0  0  0  0  0  0  0  0  0  0  0  0
   -0.3048   -4.0823    2.0245 H   0  0  0  0  0  0  0  0  0  0  0  0
   -1.3830   -2.3724    0.3801 H   0  0  0  0  0  0  0  0  0  0  0  0
   -1.7534   -2.0527    3.4185 H   0  0  0  0  0  0  0  0  0  0  0  0
   -2.8936   -1.4947    2.1882 H   0  0  0  0  0  0  0  0  0  0  0  0
   -2.5964   -3.2301    2.4022 H   0  0  0  0  0  0  0  0  0  0  0  0
   -1.0412    0.1517    0.7482 N   0  0  0  0  0  0  0  0  0  0  0  0
   -0.6079    1.5223    0.6467 C   0  0  2  0  0  0  0  0  0  0  0  0
   -0.8094    1.9798   -0.7973 C   0  0  0  0  0  0  0  0  0  0  0  0
   -0.7685    1.2087   -1.7539 O   0  0  0  0  0  0  0  0  0  0  0  0
    0.8442    1.7351    1.1383 C   0  0  2  0  0  0  0  0  0  0  0  0
    1.0075    1.4062    2.6388 C   0  0  0  0  0  0  0  0  0  0  0  0
    1.3064    3.1629    0.8183 C   0  0  0  0  0  0  0  0  0  0  0  0
    2.4605    1.3473    3.0927 C   0  0  0  0  0  0  0  0  0  0  0  0
   -1.9022   -0.1128    0.2753 H   0  0  0  0  0  0  0  0  0  0  0  0
   -1.2984    2.1023    1.2724 H   0  0  0  0  0  0  0  0  0  0  0  0
    1.4955    1.0535    0.5749 H   0  0  0  0  0  0  0  0  0  0  0  0
    0.5029    2.1715    3.2397 H   0  0  0  0  0  0  0  0  0  0  0  0
    0.5268    0.4495    2.8751 H   0  0  0  0  0  0  0  0  0  0  0  0
    0.6947    3.8988    1.3513 H   0  0  0  0  0  0  0  0  0  0  0  0
    2.3432    3.3228    1.1295 H   0  0  0  0  0  0  0  0  0  0  0  0
    1.2381    3.3765   -0.2534 H   0  0  0  0  0  0  0  0  0  0  0  0
    3.0279    0.5993    2.5316 H   0  0  0  0  0  0  0  0  0  0  0  0
    2.5109    1.0720    4.1513 H   0  0  0  0  0  0  0  0  0  0  0  0
    2.9499    2.3188    2.9727 H   0  0  0  0  0  0  0  0  0  0  0  0
   -1.0716    3.3397   -0.8841 N   0  0  0  0  0  0  0  0  0  0  0  0
   -1.3197    4.0212   -2.1341 C   0  0  2  0  0  0  0  0  0  0  0  0
   -2.1865    5.2388   -1.8420 C   0  0  0  0  0  0  0  0  0  0  0  0
   -2.8959    5.3330   -0.8425 O   0  0  0  0  0  0  0  0  0  0  0  0
   -1.9945    3.1024   -3.1408 C   0  0  0  0  0  0  0  0  0  0  0  0
   -1.0902    3.8832   -0.0263 H   0  0  0  0  0  0  0  0  0  0  0  0
   -0.3459    4.3482   -2.5148 H   0  0  0  0  0  0  0  0  0  0  0  0
   -2.9717    2.7645   -2.7768 H   0  0  0  0  0  0  0  0  0  0  0  0
   -2.1559    3.6116   -4.0967 H   0  0  0  0  0  0  0  0  0  0  0  0
   -1.3834    2.2127   -3.3272 H   0  0  0  0  0  0  0  0  0  0  0  0
   -2.1080    6.1894   -2.8502 N   0  0  0  0  0  0  0  0  0  0  0  0
   -2.8478    7.4292   -2.8121 C   0  0  0  0  0  0  0  0  0  0  0  0
   -1.4795    6.0363   -3.6334 H   0  0  0  0  0  0  0  0  0  0  0  0
   -3.8072    7.3004   -3.3346 H   0  0  0  0  0  0  0  0  0  0  0  0
   -3.0353    7.7122   -1.7658 H   0  0  0  0  0  0  0  0  0  0  0  0
   -2.2643    8.2196   -3.3068 H   0  0  0  0  0  0  0  0  0  0  0  0
  1  3  1  0  0  0  0
  1  7  1  0  0  0  0
  1  2  2  0  0  0  0
 37 38  1  0  0  0  0
 38 46  1  0  0  0  0
 38 39  2  0  0  0  0
  8  9  1  0  0  0  0
  9 17  1  0  0  0  0
  9 10  2  0  0  0  0
 18 19  1  0  0  0  0
 19 36  1  0  0  0  0
 19 20  2  0  0  0  0
 22 24  1  0  0  0  0
 37 40  1  0  0  0  0
  8 11  1  0  0  0  0
 21 23  1  0  0  0  0
 46 47  1  0  0  0  0
 21 22  1  0  0  0  0
 36 37  1  0  0  0  0
  7  8  1  0  0  0  0
 18 21  1  0  0  0  0
 17 18  1  0  0  0  0
  3  4  1  0  0  0  0
  3  5  1  0  0  0  0
  3  6  1  0  0  0  0
 24 33  1  0  0  0  0
 24 34  1  0  0  0  0
 24 35  1  0  0  0  0
 40 43  1  0  0  0  0
 40 44  1  0  0  0  0
 40 45  1  0  0  0  0
 11 14  1  0  0  0  0
 11 15  1  0  0  0  0
 11 16  1  0  0  0  0
 23 30  1  0  0  0  0
 23 31  1  0  0  0  0
 23 32  1  0  0  0  0
 47 49  1  0  0  0  0
 47 50  1  0  0  0  0
 47 51  1  0  0  0  0
 22 28  1  0  0  0  0
 22 29  1  0  0  0  0
 37 42  1  0  0  0  0
  8 13  1  0  0  0  0
 18 26  1  0  0  0  0
 21 27  1  0  0  0  0
 46 48  1  0  0  0  0
  7 12  1  0  0  0  0
 36 41  1  0  0  0  0
 17 25  1  0  0  0  0
M  END
$$$$

  -OEChem-05262214473D

 51 50  0     1  0  0  0  0  0999 V2000
    1.3524   -3.0009    1.4091 C   0  0  0  0  0  0  0  0  0  0  0  0
    1.8758   -1.9880    0.9598 O   0  0  0  0  0  0  0  0  0  0  0  0
    2.2030   -4.1782    1.7536 C   0  0  0  0  0  0  0  0  0  0  0  0
    2.3264   -4.8705    0.9053 H   0  0  0  0  0  0  0  0  0  0  0  0
    3.2257   -3.8876    2.0432 H   0  0  0  0  0  0  0  0  0  0  0  0
    1.8327   -4.8004    2.5839 H   0  0  0  0  0  0  0  0  0  0  0  0
    0.0005   -3.1873    1.6465 N   0  0  0  0  0  0  0  0  0  0  0  0
   -0.9949   -2.1807    1.3864 C   0  0  2  0  0  0  0  0  0  0  0  0
   -0.3083   -0.8216    1.4164 C   0  0  0  0  0  0  0  0  0  0  0  0
    0.7533   -0.6191    2.0022 O   0  0  0  0  0  0  0  0  0  0  0  0
   -2.1232   -2.2423    2.4042 C   0  0  0  0  0  0  0  0  0  0  0  0
   -0.3048   -4.0823    2.0245 H   0  0  0  0  0  0  0  0  0  0  0  0
   -1.3830   -2.3724    0.3801 H   0  0  0  0  0  0  0  0  0  0  0  0
   -1.7534   -2.0527    3.4185 H   0  0  0  0  0  0  0  0  0  0  0  0
   -2.8936   -1.4947    2.1882 H   0  0  0  0  0  0  0  0  0  0  0  0
   -2.5964   -3.2301    2.4022 H   0  0  0  0  0  0  0  0  0  0  0  0
   -1.0412    0.1517    0.7482 N   0  0  0  0  0  0  0  0  0  0  0  0
   -0.6079    1.5223    0.6467 C   0  0  2  0  0  0  0  0  0  0  0  0
   -0.8094    1.9798   -0.7973 C   0  0  0  0  0  0  0  0  0  0  0  0
   -1.0357    1.1992   -1.7197 O   0  0  0  0  0  0  0  0  0  0  0  0
    0.8442    1.7351    1.1383 C   0  0  2  0  0  0  0  0  0  0  0  0
    1.0075    1.4062    2.6388 C   0  0  0  0  0  0  0  0  0  0  0  0
    1.3064    3.1629    0.8183 C   0  0  0  0  0  0  0  0  0  0  0  0
    2.4605    1.3473    3.0927 C   0  0  0  0  0  0  0  0  0  0  0  0
   -1.9022   -0.1128    0.2753 H   0  0  0  0  0  0  0  0  0  0  0  0
   -1.2984    2.1023    1.2724 H   0  0  0  0  0  0  0  0  0  0  0  0
    1.4955    1.0535    0.5749 H   0  0  0  0  0  0  0  0  0  0  0  0
    0.5029    2.1715    3.2397 H   0  0  0  0  0  0  0  0  0  0  0  0
    0.5268    0.4495    2.8751 H   0  0  0  0  0  0  0  0  0  0  0  0
    0.6947    3.8988    1.3513 H   0  0  0  0  0  0  0  0  0  0  0  0
    2.3432    3.3228    1.1295 H   0  0  0  0  0  0  0  0  0  0  0  0
    1.2381    3.3765   -0.2534 H   0  0  0  0  0  0  0  0  0  0  0  0
    3.0279    0.5993    2.5316 H   0  0  0  0  0  0  0  0  0  0  0  0
    2.5109    1.0720    4.1513 H   0  0  0  0  0  0  0  0  0  0  0  0
    2.9499    2.3188    2.9727 H   0  0  0  0  0  0  0  0  0  0  0  0
   -0.7392    3.3599   -0.9241 N   0  0  0  0  0  0  0  0  0  0  0  0
   -0.9154    4.0506   -2.1812 C   0  0  2  0  0  0  0  0  0  0  0  0
   -1.4331    5.4508   -1.8799 C   0  0  0  0  0  0  0  0  0  0  0  0
   -2.0141    5.7410   -0.8362 O   0  0  0  0  0  0  0  0  0  0  0  0
   -1.8733    3.3017   -3.0945 C   0  0  0  0  0  0  0  0  0  0  0  0
   -0.5548    3.9121   -0.0918 H   0  0  0  0  0  0  0  0  0  0  0  0
    0.0742    4.1187   -2.6461 H   0  0  0  0  0  0  0  0  0  0  0  0
   -2.8702    3.2235   -2.6456 H   0  0  0  0  0  0  0  0  0  0  0  0
   -1.9836    3.8114   -4.0574 H   0  0  0  0  0  0  0  0  0  0  0  0
   -1.5144    2.2847   -3.2861 H   0  0  0  0  0  0  0  0  0  0  0  0
   -1.2084    6.3279   -2.9318 N   0  0  0  0  0  0  0  0  0  0  0  0
   -1.6188    7.7121   -2.8940 C   0  0  0  0  0  0  0  0  0  0  0  0
   -0.7022    6.0059   -3.7515 H   0  0  0  0  0  0  0  0  0  0  0  0
   -2.6201    7.8105   -3.3386 H   0  0  0  0  0  0  0  0  0  0  0  0
   -1.6457    8.0581   -1.8501 H   0  0  0  0  0  0  0  0  0  0  0  0
   -0.9030    8.3224   -3.4642 H   0  0  0  0  0  0  0  0  0  0  0  0
  1  3  1  0  0  0  0
  1  7  1  0  0  0  0
  1  2  2  0  0  0  0
 37 38  1  0  0  0  0
 38 46  1  0  0  0  0
 38 39  2  0  0  0  0
  8  9  1  0  0  0  0
  9 17  1  0  0  0  0
  9 10  2  0  0  0  0
 18 19  1  0  0  0  0
 19 36  1  0  0  0  0
 19 20  2  0  0  0  0
 22 24  1  0  0  0  0
 37 40  1  0  0  0  0
  8 11  1  0  0  0  0
 21 23  1  0  0  0  0
 46 47  1  0  0  0  0
 21 22  1  0  0  0  0
 36 37  1  0  0  0  0
  7  8  1  0  0  0  0
 18 21  1  0  0  0  0
 17 18  1  0  0  0  0
  3  4  1  0  0  0  0
  3  5  1  0  0  0  0
  3  6  1  0  0  0  0
 24 33  1  0  0  0  0
 24 34  1  0  0  0  0
 24 35  1  0  0  0  0
 40 43  1  0  0  0  0
 40 44  1  0  0  0  0
 40 45  1  0  0  0  0
 11 14  1  0  0  0  0
 11 15  1  0  0  0  0
 11 16  1  0  0  0  0
 23 30  1  0  0  0  0
 23 31  1  0  0  0  0
 23 32  1  0  0  0  0
 47 49  1  0  0  0  0
 47 50  1  0  0  0  0
 47 51  1  0  0  0  0
 22 28  1  0  0  0  0
 22 29  1  0  0  0  0
 37 42  1  0  0  0  0
  8 13  1  0  0  0  0
 18 26  1  0  0  0  0
 21 27  1  0  0  0  0
 46 48  1  0  0  0  0
  7 12  1  0  0  0  0
 36 41  1  0  0  0  0
 17 25  1  0  0  0  0
M  END
$$$$

  -OEChem-05262214473D

 51 50  0     1  0  0  0  0  0999 V2000
    1.3524   -3.0009    1.4091 C   0  0  0  0  0  0  0  0  0  0  0  0
    1.8758   -1.9880    0.9598 O   0  0  0  0  0  0  0  0  0  0  0  0
    2.2030   -4.1782    1.7536 C   0  0  0  0  0  0  0  0  0  0  0  0
    2.3264   -4.8705    0.9053 H   0  0  0  0  0  0  0  0  0  0  0  0
    3.2257   -3.8876    2.0432 H   0  0  0  0  0  0  0  0  0  0  0  0
    1.8327   -4.8004    2.5839 H   0  0  0  0  0  0  0  0  0  0  0  0
    0.0005   -3.1873    1.6465 N   0  0  0  0  0  0  0  0  0  0  0  0
   -0.9949   -2.1807    1.3864 C   0  0  2  0  0  0  0  0  0  0  0  0
   -0.3083   -0.8216    1.4164 C   0  0  0  0  0  0  0  0  0  0  0  0
    0.7533   -0.6191    2.0022 O   0  0  0  0  0  0  0  0  0  0  0  0
   -2.1232   -2.2423    2.4042 C   0  0  0  0  0  0  0  0  0  0  0  0
   -0.3048   -4.0823    2.0245 H   0  0  0  0  0  0  0  0  0  0  0  0
   -1.3830   -2.3724    0.3801 H   0  0  0  0  0  0  0  0  0  0  0  0
   -1.7534   -2.0527    3.4185 H   0  0  0  0  0  0  0  0  0  0  0  0
   -2.8936   -1.4947    2.1882 H   0  0  0  0  0  0  0  0  0  0  0  0
   -2.5964   -3.2301    2.4022 H   0  0  0  0  0  0  0  0  0  0  0  0
   -1.0412    0.1517    0.7482 N   0  0  0  0  0  0  0  0  0  0  0  0
   -0.6079    1.5223    0.6467 C   0  0  2  0  0  0  0  0  0  0  0  0
   -1.1448    2.0957   -0.6641 C   0  0  0  0  0  0  0  0  0  0  0  0
   -1.8471    1.4484   -1.4381 O   0  0  0  0  0  0  0  0  0  0  0  0
    0.9258    1.6828    0.7792 C   0  0  2  0  0  0  0  0  0  0  0  0
    1.4432    1.2333    2.1637 C   0  0  0  0  0  0  0  0  0  0  0  0
    1.3350    3.1276    0.4638 C   0  0  0  0  0  0  0  0  0  0  0  0
    2.9609    1.1259    2.2390 C   0  0  0  0  0  0  0  0  0  0  0  0
   -1.9022   -0.1128    0.2753 H   0  0  0  0  0  0  0  0  0  0  0  0
   -1.1072    2.0561    1.4654 H   0  0  0  0  0  0  0  0  0  0  0  0
    1.3996    1.0430    0.0226 H   0  0  0  0  0  0  0  0  0  0  0  0
    1.1230    1.9523    2.9265 H   0  0  0  0  0  0  0  0  0  0  0  0
    1.0086    0.2648    2.4383 H   0  0  0  0  0  0  0  0  0  0  0  0
    0.8938    3.8236    1.1854 H   0  0  0  0  0  0  0  0  0  0  0  0
    2.4206    3.2533    0.5206 H   0  0  0  0  0  0  0  0  0  0  0  0
    1.0118    3.4270   -0.5386 H   0  0  0  0  0  0  0  0  0  0  0  0
    3.3520    0.4205    1.5004 H   0  0  0  0  0  0  0  0  0  0  0  0
    3.2618    0.7663    3.2284 H   0  0  0  0  0  0  0  0  0  0  0  0
    3.4328    2.0998    2.0756 H   0  0  0  0  0  0  0  0  0  0  0  0
   -0.7741    3.4204   -0.8470 N   0  0  0  0  0  0  0  0  0  0  0  0
   -1.1685    4.2026   -1.9964 C   0  0  2  0  0  0  0  0  0  0  0  0
   -1.1898    5.6682   -1.5829 C   0  0  0  0  0  0  0  0  0  0  0  0
   -1.3077    6.0341   -0.4153 O   0  0  0  0  0  0  0  0  0  0  0  0
   -2.5269    3.7665   -2.5228 C   0  0  0  0  0  0  0  0  0  0  0  0
   -0.1967    3.8622   -0.1377 H   0  0  0  0  0  0  0  0  0  0  0  0
   -0.3999    4.0497   -2.7618 H   0  0  0  0  0  0  0  0  0  0  0  0
   -3.3098    3.9123   -1.7696 H   0  0  0  0  0  0  0  0  0  0  0  0
   -2.8114    4.3408   -3.4106 H   0  0  0  0  0  0  0  0  0  0  0  0
   -2.5181    2.7047   -2.7918 H   0  0  0  0  0  0  0  0  0  0  0  0
   -1.1051    6.5200   -2.6753 N   0  0  0  0  0  0  0  0  0  0  0  0
   -1.1181    7.9584   -2.5453 C   0  0  0  0  0  0  0  0  0  0  0  0
   -0.9907    6.1293   -3.6059 H   0  0  0  0  0  0  0  0  0  0  0  0
   -2.1505    8.3263   -2.6396 H   0  0  0  0  0  0  0  0  0  0  0  0
   -0.7168    8.2411   -1.5609 H   0  0  0  0  0  0  0  0  0  0  0  0
   -0.4967    8.4035   -3.3363 H   0  0  0  0  0  0  0  0  0  0  0  0
  1  3  1  0  0  0  0
  1  7  1  0  0  0  0
  1  2  2  0  0  0  0
 37 38  1  0  0  0  0
 38 46  1  0  0  0  0
 38 39  2  0  0  0  0
  8  9  1  0  0  0  0
  9 17  1  0  0  0  0
  9 10  2  0  0  0  0
 18 19  1  0  0  0  0
 19 36  1  0  0  0  0
 19 20  2  0  0  0  0
 22 24  1  0  0  0  0
 37 40  1  0  0  0  0
  8 11  1  0  0  0  0
 21 23  1  0  0  0  0
 46 47  1  0  0  0  0
 21 22  1  0  0  0  0
 36 37  1  0  0  0  0
  7  8  1  0  0  0  0
 18 21  1  0  0  0  0
 17 18  1  0  0  0  0
  3  4  1  0  0  0  0
  3  5  1  0  0  0  0
  3  6  1  0  0  0  0
 24 33  1  0  0  0  0
 24 34  1  0  0  0  0
 24 35  1  0  0  0  0
 40 43  1  0  0  0  0
 40 44  1  0  0  0  0
 40 45  1  0  0  0  0
 11 14  1  0  0  0  0
 11 15  1  0  0  0  0
 11 16  1  0  0  0  0
 23 30  1  0  0  0  0
 23 31  1  0  0  0  0
 23 32  1  0  0  0  0
 47 49  1  0  0  0  0
 47 50  1  0  0  0  0
 47 51  1  0  0  0  0
 22 28  1  0  0  0  0
 22 29  1  0  0  0  0
 37 42  1  0  0  0  0
  8 13  1  0  0  0  0
 18 26  1  0  0  0  0
 21 27  1  0  0  0  0
 46 48  1  0  0  0  0
  7 12  1  0  0  0  0
 36 41  1  0  0  0  0
 17 25  1  0  0  0  0
M  END
$$$$

  -OEChem-05262214473D

 51 50  0     1  0  0  0  0  0999 V2000
    1.3524   -3.0009    1.4091 C   0  0  0  0  0  0  0  0  0  0  0  0
    1.8758   -1.9880    0.9598 O   0  0  0  0  0  0  0  0  0  0  0  0
    2.2030   -4.1782    1.7536 C   0  0  0  0  0  0  0  0  0  0  0  0
    2.3264   -4.8705    0.9053 H   0  0  0  0  0  0  0  0  0  0  0  0
    3.2257   -3.8876    2.0432 H   0  0  0  0  0  0  0  0  0  0  0  0
    1.8327   -4.8004    2.5839 H   0  0  0  0  0  0  0  0  0  0  0  0
    0.0005   -3.1873    1.6465 N   0  0  0  0  0  0  0  0  0  0  0  0
   -0.9949   -2.1807    1.3864 C   0  0  2  0  0  0  0  0  0  0  0  0
   -0.3083   -0.8216    1.4164 C   0  0  0  0  0  0  0  0  0  0  0  0
    0.7533   -0.6191    2.0022 O   0  0  0  0  0  0  0  0  0  0  0  0
   -2.1232   -2.2423    2.4042 C   0  0  0  0  0  0  0  0  0  0  0  0
   -0.3048   -4.0823    2.0245 H   0  0  0  0  0  0  0  0  0  0  0  0
   -1.3830   -2.3724    0.3801 H   0  0  0  0  0  0  0  0  0  0  0  0
   -1.7534   -2.0527    3.4185 H   0  0  0  0  0  0  0  0  0  0  0  0
   -2.8936   -1.4947    2.1882 H   0  0  0  0  0  0  0  0  0  0  0  0
   -2.5964   -3.2301    2.4022 H   0  0  0  0  0  0  0  0  0  0  0  0
   -1.0412    0.1517    0.7482 N   0  0  0  0  0  0  0  0  0  0  0  0
   -0.6079    1.5223    0.6467 C   0  0  2  0  0  0  0  0  0  0  0  0
   -1.1448    2.0957   -0.6641 C   0  0  0  0  0  0  0  0  0  0  0  0
   -2.0500    1.5645   -1.3041 O   0  0  0  0  0  0  0  0  0  0  0  0
    0.9258    1.6828    0.7792 C   0  0  2  0  0  0  0  0  0  0  0  0
    1.4432    1.2333    2.1637 C   0  0  0  0  0  0  0  0  0  0  0  0
    1.3350    3.1276    0.4638 C   0  0  0  0  0  0  0  0  0  0  0  0
    2.9609    1.1259    2.2390 C   0  0  0  0  0  0  0  0  0  0  0  0
   -1.9022   -0.1128    0.2753 H   0  0  0  0  0  0  0  0  0  0  0  0
   -1.1072    2.0561    1.4654 H   0  0  0  0  0  0  0  0  0  0  0  0
    1.3996    1.0430    0.0226 H   0  0  0  0  0  0  0  0  0  0  0  0
    1.1230    1.9523    2.9265 H   0  0  0  0  0  0  0  0  0  0  0  0
    1.0086    0.2648    2.4383 H   0  0  0  0  0  0  0  0  0  0  0  0
    0.8938    3.8236    1.1854 H   0  0  0  0  0  0  0  0  0  0  0  0
    2.4206    3.2533    0.5206 H   0  0  0  0  0  0  0  0  0  0  0  0
    1.0118    3.4270   -0.5386 H   0  0  0  0  0  0  0  0  0  0  0  0
    3.3520    0.4205    1.5004 H   0  0  0  0  0  0  0  0  0  0  0  0
    3.2618    0.7663    3.2284 H   0  0  0  0  0  0  0  0  0  0  0  0
    3.4328    2.0998    2.0756 H   0  0  0  0  0  0  0  0  0  0  0  0
   -0.5167    3.2830   -1.0125 N   0  0  0  0  0  0  0  0  0  0  0  0
   -0.8525    4.0398   -2.1970 C   0  0  2  0  0  0  0  0  0  0  0  0
   -0.5101    5.5004   -1.9347 C   0  0  0  0  0  0  0  0  0  0  0  0
   -0.4195    5.9756   -0.8047 O   0  0  0  0  0  0  0  0  0  0  0  0
   -2.3218    3.8820   -2.5562 C   0  0  0  0  0  0  0  0  0  0  0  0
    0.2157    3.6378   -0.4047 H   0  0  0  0  0  0  0  0  0  0  0  0
   -0.2224    3.6560   -3.0067 H   0  0  0  0  0  0  0  0  0  0  0  0
   -2.9688    4.2611   -1.7567 H   0  0  0  0  0  0  0  0  0  0  0  0
   -2.5682    4.4329   -3.4699 H   0  0  0  0  0  0  0  0  0  0  0  0
   -2.5731    2.8278   -2.7154 H   0  0  0  0  0  0  0  0  0  0  0  0
   -0.3599    6.2207   -3.1115 N   0  0  0  0  0  0  0  0  0  0  0  0
   -0.0457    7.6303   -3.1281 C   0  0  0  0  0  0  0  0  0  0  0  0
   -0.4339    5.7411   -4.0038 H   0  0  0  0  0  0  0  0  0  0  0  0
   -0.9774    8.2137   -3.1694 H   0  0  0  0  0  0  0  0  0  0  0  0
    0.5109    7.8925   -2.2162 H   0  0  0  0  0  0  0  0  0  0  0  0
    0.5691    7.8584   -4.0112 H   0  0  0  0  0  0  0  0  0  0  0  0
  1  3  1  0  0  0  0
  1  7  1  0  0  0  0
  1  2  2  0  0  0  0
 37 38  1  0  0  0  0
 38 46  1  0  0  0  0
 38 39  2  0  0  0  0
  8  9  1  0  0  0  0
  9 17  1  0  0  0  0
  9 10  2  0  0  0  0
 18 19  1  0  0  0  0
 19 36  1  0  0  0  0
 19 20  2  0  0  0  0
 22 24  1  0  0  0  0
 37 40  1  0  0  0  0
  8 11  1  0  0  0  0
 21 23  1  0  0  0  0
 46 47  1  0  0  0  0
 21 22  1  0  0  0  0
 36 37  1  0  0  0  0
  7  8  1  0  0  0  0
 18 21  1  0  0  0  0
 17 18  1  0  0  0  0
  3  4  1  0  0  0  0
  3  5  1  0  0  0  0
  3  6  1  0  0  0  0
 24 33  1  0  0  0  0
 24 34  1  0  0  0  0
 24 35  1  0  0  0  0
 40 43  1  0  0  0  0
 40 44  1  0  0  0  0
 40 45  1  0  0  0  0
 11 14  1  0  0  0  0
 11 15  1  0  0  0  0
 11 16  1  0  0  0  0
 23 30  1  0  0  0  0
 23 31  1  0  0  0  0
 23 32  1  0  0  0  0
 47 49  1  0  0  0  0
 47 50  1  0  0  0  0
 47 51  1  0  0  0  0
 22 28  1  0  0  0  0
 22 29  1  0  0  0  0
 37 42  1  0  0  0  0
  8 13  1  0  0  0  0
 18 26  1  0  0  0  0
 21 27  1  0  0  0  0
 46 48  1  0  0  0  0
  7 12  1  0  0  0  0
 36 41  1  0  0  0  0
 17 25  1  0  0  0  0
M  END
$$$$

  -OEChem-05262214473D

 51 50  0     1  0  0  0  0  0999 V2000
    1.3524   -3.0009    1.4091 C   0  0  0  0  0  0  0  0  0  0  0  0
    1.8758   -1.9880    0.9598 O   0  0  0  0  0  0  0  0  0  0  0  0
    2.2030   -4.1782    1.7536 C   0  0  0  0  0  0  0  0  0  0  0  0
    2.3264   -4.8705    0.9053 H   0  0  0  0  0  0  0  0  0  0  0  0
    3.2257   -3.8876    2.0432 H   0  0  0  0  0  0  0  0  0  0  0  0
    1.8327   -4.8004    2.5839 H   0  0  0  0  0  0  0  0  0  0  0  0
    0.0005   -3.1873    1.6465 N   0  0  0  0  0  0  0  0  0  0  0  0
   -0.9949   -2.1807    1.3864 C   0  0  2  0  0  0  0  0  0  0  0  0
   -0.3083   -0.8216    1.4164 C   0  0  0  0  0  0  0  0  0  0  0  0
    0.7533   -0.6191    2.0022 O   0  0  0  0  0  0  0  0  0  0  0  0
   -2.1232   -2.2423    2.4042 C   0  0  0  0  0  0  0  0  0  0  0  0
   -0.3048   -4.0823    2.0245 H   0  0  0  0  0  0  0  0  0  0  0  0
   -1.3830   -2.3724    0.3801 H   0  0  0  0  0  0  0  0  0  0  0  0
   -1.7534   -2.0527    3.4185 H   0  0  0  0  0  0  0  0  0  0  0  0
   -2.8936   -1.4947    2.1882 H   0  0  0  0  0  0  0  0  0  0  0  0
   -2.5964   -3.2301    2.4022 H   0  0  0  0  0  0  0  0  0  0  0  0
   -1.0412    0.1517    0.7482 N   0  0  0  0  0  0  0  0  0  0  0  0
   -0.6079    1.5223    0.6467 C   0  0  2  0  0  0  0  0  0  0  0  0
   -1.1448    2.0957   -0.6641 C   0  0  0  0  0  0  0  0  0  0  0  0
   -2.2073    1.7339   -1.1656 O   0  0  0  0  0  0  0  0  0  0  0  0
    0.9258    1.6828    0.7792 C   0  0  2  0  0  0  0  0  0  0  0  0
    1.4432    1.2333    2.1637 C   0  0  0  0  0  0  0  0  0  0  0  0
    1.3350    3.1276    0.4638 C   0  0  0  0  0  0  0  0  0  0  0  0
    2.9609    1.1259    2.2390 C   0  0  0  0  0  0  0  0  0  0  0  0
   -1.9022   -0.1128    0.2753 H   0  0  0  0  0  0  0  0  0  0  0  0
   -1.1072    2.0561    1.4654 H   0  0  0  0  0  0  0  0  0  0  0  0
    1.3996    1.0430    0.0226 H   0  0  0  0  0  0  0  0  0  0  0  0
    1.1230    1.9523    2.9265 H   0  0  0  0  0  0  0  0  0  0  0  0
    1.0086    0.2648    2.4383 H   0  0  0  0  0  0  0  0  0  0  0  0
    0.8938    3.8236    1.1854 H   0  0  0  0  0  0  0  0  0  0  0  0
    2.4206    3.2533    0.5206 H   0  0  0  0  0  0  0  0  0  0  0  0
    1.0118    3.4270   -0.5386 H   0  0  0  0  0  0  0  0  0  0  0  0
    3.3520    0.4205    1.5004 H   0  0  0  0  0  0  0  0  0  0  0  0
    3.2618    0.7663    3.2284 H   0  0  0  0  0  0  0  0  0  0  0  0
    3.4328    2.0998    2.0756 H   0  0  0  0  0  0  0  0  0  0  0  0
   -0.3146    3.0781   -1.1849 N   0  0  0  0  0  0  0  0  0  0  0  0
   -0.6030    3.7941   -2.4066 C   0  0  2  0  0  0  0  0  0  0  0  0
    0.0751    5.1554   -2.3253 C   0  0  0  0  0  0  0  0  0  0  0  0
    0.3877    5.6865   -1.2617 O   0  0  0  0  0  0  0  0  0  0  0  0
   -2.1013    3.9450   -2.6190 C   0  0  0  0  0  0  0  0  0  0  0  0
    0.5384    3.3053   -0.6824 H   0  0  0  0  0  0  0  0  0  0  0  0
   -0.1621    3.2141   -3.2247 H   0  0  0  0  0  0  0  0  0  0  0  0
   -2.5606    4.5235   -1.8091 H   0  0  0  0  0  0  0  0  0  0  0  0
   -2.3186    4.4626   -3.5592 H   0  0  0  0  0  0  0  0  0  0  0  0
   -2.5915    2.9659   -2.6475 H   0  0  0  0  0  0  0  0  0  0  0  0
    0.2511    5.7265   -3.5779 N   0  0  0  0  0  0  0  0  0  0  0  0
    0.8607    7.0223   -3.7653 C   0  0  0  0  0  0  0  0  0  0  0  0
   -0.0209    5.2063   -4.4069 H   0  0  0  0  0  0  0  0  0  0  0  0
    0.0794    7.7963   -3.7847 H   0  0  0  0  0  0  0  0  0  0  0  0
    1.5556    7.2237   -2.9367 H   0  0  0  0  0  0  0  0  0  0  0  0
    1.4119    7.0339   -4.7171 H   0  0  0  0  0  0  0  0  0  0  0  0
  1  3  1  0  0  0  0
  1  7  1  0  0  0  0
  1  2  2  0  0  0  0
 37 38  1  0  0  0  0
 38 46  1  0  0  0  0
 38 39  2  0  0  0  0
  8  9  1  0  0  0  0
  9 17  1  0  0  0  0
  9 10  2  0  0  0  0
 18 19  1  0  0  0  0
 19 36  1  0  0  0  0
 19 20  2  0  0  0  0
 22 24  1  0  0  0  0
 37 40  1  0  0  0  0
  8 11  1  0  0  0  0
 21 23  1  0  0  0  0
 46 47  1  0  0  0  0
 21 22  1  0  0  0  0
 36 37  1  0  0  0  0
  7  8  1  0  0  0  0
 18 21  1  0  0  0  0
 17 18  1  0  0  0  0
  3  4  1  0  0  0  0
  3  5  1  0  0  0  0
  3  6  1  0  0  0  0
 24 33  1  0  0  0  0
 24 34  1  0  0  0  0
 24 35  1  0  0  0  0
 40 43  1  0  0  0  0
 40 44  1  0  0  0  0
 40 45  1  0  0  0  0
 11 14  1  0  0  0  0
 11 15  1  0  0  0  0
 11 16  1  0  0  0  0
 23 30  1  0  0  0  0
 23 31  1  0  0  0  0
 23 32  1  0  0  0  0
 47 49  1  0  0  0  0
 47 50  1  0  0  0  0
 47 51  1  0  0  0  0
 22 28  1  0  0  0  0
 22 29  1  0  0  0  0
 37 42  1  0  0  0  0
  8 13  1  0  0  0  0
 18 26  1  0  0  0  0
 21 27  1  0  0  0  0
 46 48  1  0  0  0  0
  7 12  1  0  0  0  0
 36 41  1  0  0  0  0
 17 25  1  0  0  0  0
M  END
$$$$

  -OEChem-05262214473D

 51 50  0     1  0  0  0  0  0999 V2000
    1.3524   -3.0009    1.4091 C   0  0  0  0  0  0  0  0  0  0  0  0
    1.8758   -1.9880    0.9598 O   0  0  0  0  0  0  0  0  0  0  0  0
    2.2030   -4.1782    1.7536 C   0  0  0  0  0  0  0  0  0  0  0  0
    2.3264   -4.8705    0.9053 H   0  0  0  0  0  0  0  0  0  0  0  0
    3.2257   -3.8876    2.0432 H   0  0  0  0  0  0  0  0  0  0  0  0
    1.8327   -4.8004    2.5839 H   0  0  0  0  0  0  0  0  0  0  0  0
    0.0005   -3.1873    1.6465 N   0  0  0  0  0  0  0  0  0  0  0  0
   -0.9949   -2.1807    1.3864 C   0  0  2  0  0  0  0  0  0  0  0  0
   -0.3083   -0.8216    1.4164 C   0  0  0  0  0  0  0  0  0  0  0  0
    0.7533   -0.6191    2.0022 O   0  0  0  0  0  0  0  0  0  0  0  0
   -2.1232   -2.2423    2.4042 C   0  0  0  0  0  0  0  0  0  0  0  0
   -0.3048   -4.0823    2.0245 H   0  0  0  0  0  0  0  0  0  0  0  0
   -1.3830   -2.3724    0.3801 H   0  0  0  0  0  0  0  0  0  0  0  0
   -1.7534   -2.0527    3.4185 H   0  0  0  0  0  0  0  0  0  0  0  0
   -2.8936   -1.4947    2.1882 H   0  0  0  0  0  0  0  0  0  0  0  0
   -2.5964   -3.2301    2.4022 H   0  0  0  0  0  0  0  0  0  0  0  0
   -1.0412    0.1517    0.7482 N   0  0  0  0  0  0  0  0  0  0  0  0
   -0.6079    1.5223    0.6467 C   0  0  2  0  0  0  0  0  0  0  0  0
   -1.1448    2.0957   -0.6641 C   0  0  0  0  0  0  0  0  0  0  0  0
   -2.3081    1.9451   -1.0320 O   0  0  0  0  0  0  0  0  0  0  0  0
    0.9258    1.6828    0.7792 C   0  0  2  0  0  0  0  0  0  0  0  0
    1.4432    1.2333    2.1637 C   0  0  0  0  0  0  0  0  0  0  0  0
    1.3350    3.1276    0.4638 C   0  0  0  0  0  0  0  0  0  0  0  0
    2.9609    1.1259    2.2390 C   0  0  0  0  0  0  0  0  0  0  0  0
   -1.9022   -0.1128    0.2753 H   0  0  0  0  0  0  0  0  0  0  0  0
   -1.1072    2.0561    1.4654 H   0  0  0  0  0  0  0  0  0  0  0  0
    1.3996    1.0430    0.0226 H   0  0  0  0  0  0  0  0  0  0  0  0
    1.1230    1.9523    2.9265 H   0  0  0  0  0  0  0  0  0  0  0  0
    1.0086    0.2648    2.4383 H   0  0  0  0  0  0  0  0  0  0  0  0
    0.8938    3.8236    1.1854 H   0  0  0  0  0  0  0  0  0  0  0  0
    2.4206    3.2533    0.5206 H   0  0  0  0  0  0  0  0  0  0  0  0
    1.0118    3.4270   -0.5386 H   0  0  0  0  0  0  0  0  0  0  0  0
    3.3520    0.4205    1.5004 H   0  0  0  0  0  0  0  0  0  0  0  0
    3.2618    0.7663    3.2284 H   0  0  0  0  0  0  0  0  0  0  0  0
    3.4328    2.0998    2.0756 H   0  0  0  0  0  0  0  0  0  0  0  0
   -0.1816    2.8197   -1.3524 N   0  0  0  0  0  0  0  0  0  0  0  0
   -0.4369    3.4823   -2.6111 C   0  0  2  0  0  0  0  0  0  0  0  0
    0.5258    4.6566   -2.7280 C   0  0  0  0  0  0  0  0  0  0  0  0
    1.0588    5.1865   -1.7553 O   0  0  0  0  0  0  0  0  0  0  0  0
   -1.8804    3.9512   -2.7067 C   0  0  0  0  0  0  0  0  0  0  0  0
    0.7492    2.8872   -0.9516 H   0  0  0  0  0  0  0  0  0  0  0  0
   -0.2232    2.7541   -3.4010 H   0  0  0  0  0  0  0  0  0  0  0  0
   -2.1132    4.6815   -1.9232 H   0  0  0  0  0  0  0  0  0  0  0  0
   -2.0797    4.4277   -3.6723 H   0  0  0  0  0  0  0  0  0  0  0  0
   -2.5720    3.1095   -2.5926 H   0  0  0  0  0  0  0  0  0  0  0  0
    0.6862    5.0710   -4.0429 N   0  0  0  0  0  0  0  0  0  0  0  0
    1.5394    6.1759   -4.4135 C   0  0  0  0  0  0  0  0  0  0  0  0
    0.2202    4.5614   -4.7878 H   0  0  0  0  0  0  0  0  0  0  0  0
    0.9476    7.1026   -4.4438 H   0  0  0  0  0  0  0  0  0  0  0  0
    2.3463    6.2802   -3.6733 H   0  0  0  0  0  0  0  0  0  0  0  0
    1.9744    5.9861   -5.4059 H   0  0  0  0  0  0  0  0  0  0  0  0
  1  3  1  0  0  0  0
  1  7  1  0  0  0  0
  1  2  2  0  0  0  0
 37 38  1  0  0  0  0
 38 46  1  0  0  0  0
 38 39  2  0  0  0  0
  8  9  1  0  0  0  0
  9 17  1  0  0  0  0
  9 10  2  0  0  0  0
 18 19  1  0  0  0  0
 19 36  1  0  0  0  0
 19 20  2  0  0  0  0
 22 24  1  0  0  0  0
 37 40  1  0  0  0  0
  8 11  1  0  0  0  0
 21 23  1  0  0  0  0
 46 47  1  0  0  0  0
 21 22  1  0  0  0  0
 36 37  1  0  0  0  0
  7  8  1  0  0  0  0
 18 21  1  0  0  0  0
 17 18  1  0  0  0  0
  3  4  1  0  0  0  0
  3  5  1  0  0  0  0
  3  6  1  0  0  0  0
 24 33  1  0  0  0  0
 24 34  1  0  0  0  0
 24 35  1  0  0  0  0
 40 43  1  0  0  0  0
 40 44  1  0  0  0  0
 40 45  1  0  0  0  0
 11 14  1  0  0  0  0
 11 15  1  0  0  0  0
 11 16  1  0  0  0  0
 23 30  1  0  0  0  0
 23 31  1  0  0  0  0
 23 32  1  0  0  0  0
 47 49  1  0  0  0  0
 47 50  1  0  0  0  0
 47 51  1  0  0  0  0
 22 28  1  0  0  0  0
 22 29  1  0  0  0  0
 37 42  1  0  0  0  0
  8 13  1  0  0  0  0
 18 26  1  0  0  0  0
 21 27  1  0  0  0  0
 46 48  1  0  0  0  0
  7 12  1  0  0  0  0
 36 41  1  0  0  0  0
 17 25  1  0  0  0  0
M  END
$$$$

  -OEChem-05262214473D

 51 50  0     1  0  0  0  0  0999 V2000
    1.3524   -3.0009    1.4091 C   0  0  0  0  0  0  0  0  0  0  0  0
    1.8758   -1.9880    0.9598 O   0  0  0  0  0  0  0  0  0  0  0  0
    2.2030   -4.1782    1.7536 C   0  0  0  0  0  0  0  0  0  0  0  0
    2.3264   -4.8705    0.9053 H   0  0  0  0  0  0  0  0  0  0  0  0
    3.2257   -3.8876    2.0432 H   0  0  0  0  0  0  0  0  0  0  0  0
    1.8327   -4.8004    2.5839 H   0  0  0  0  0  0  0  0  0  0  0  0
    0.0005   -3.1873    1.6465 N   0  0  0  0  0  0  0  0  0  0  0  0
   -0.9949   -2.1807    1.3864 C   0  0  2  0  0  0  0  0  0  0  0  0
   -0.3083   -0.8216    1.4164 C   0  0  0  0  0  0  0  0  0  0  0  0
    0.7533   -0.6191    2.0022 O   0  0  0  0  0  0  0  0  0  0  0  0
   -2.1232   -2.2423    2.4042 C   0  0  0  0  0  0  0  0  0  0  0  0
   -0.3048   -4.0823    2.0245 H   0  0  0  0  0  0  0  0  0  0  0  0
   -1.3830   -2.3724    0.3801 H   0  0  0  0  0  0  0  0  0  0  0  0
   -1.7534   -2.0527    3.4185 H   0  0  0  0  0  0  0  0  0  0  0  0
   -2.8936   -1.4947    2.1882 H   0  0  0  0  0  0  0  0  0  0  0  0
   -2.5964   -3.2301    2.4022 H   0  0  0  0  0  0  0  0  0  0  0  0
   -1.0412    0.1517    0.7482 N   0  0  0  0  0  0  0  0  0  0  0  0
   -0.6079    1.5223    0.6467 C   0  0  2  0  0  0  0  0  0  0  0  0
   -1.1448    2.0957   -0.6641 C   0  0  0  0  0  0  0  0  0  0  0  0
   -2.3456    2.1836   -0.9123 O   0  0  0  0  0  0  0  0  0  0  0  0
    0.9258    1.6828    0.7792 C   0  0  2  0  0  0  0  0  0  0  0  0
    1.4432    1.2333    2.1637 C   0  0  0  0  0  0  0  0  0  0  0  0
    1.3350    3.1276    0.4638 C   0  0  0  0  0  0  0  0  0  0  0  0
    2.9609    1.1259    2.2390 C   0  0  0  0  0  0  0  0  0  0  0  0
   -1.9022   -0.1128    0.2753 H   0  0  0  0  0  0  0  0  0  0  0  0
   -1.1072    2.0561    1.4654 H   0  0  0  0  0  0  0  0  0  0  0  0
    1.3996    1.0430    0.0226 H   0  0  0  0  0  0  0  0  0  0  0  0
    1.1230    1.9523    2.9265 H   0  0  0  0  0  0  0  0  0  0  0  0
    1.0086    0.2648    2.4383 H   0  0  0  0  0  0  0  0  0  0  0  0
    0.8938    3.8236    1.1854 H   0  0  0  0  0  0  0  0  0  0  0  0
    2.4206    3.2533    0.5206 H   0  0  0  0  0  0  0  0  0  0  0  0
    1.0118    3.4270   -0.5386 H   0  0  0  0  0  0  0  0  0  0  0  0
    3.3520    0.4205    1.5004 H   0  0  0  0  0  0  0  0  0  0  0  0
    3.2618    0.7663    3.2284 H   0  0  0  0  0  0  0  0  0  0  0  0
    3.4328    2.0998    2.0756 H   0  0  0  0  0  0  0  0  0  0  0  0
   -0.1269    2.5253   -1.5036 N   0  0  0  0  0  0  0  0  0  0  0  0
   -0.3655    3.1257   -2.7963 C   0  0  2  0  0  0  0  0  0  0  0  0
    0.8113    4.0383   -3.1155 C   0  0  0  0  0  0  0  0  0  0  0  0
    1.5481    4.5097   -2.2518 O   0  0  0  0  0  0  0  0  0  0  0  0
   -1.6742    3.9002   -2.8135 C   0  0  0  0  0  0  0  0  0  0  0  0
    0.8339    2.4120   -1.1942 H   0  0  0  0  0  0  0  0  0  0  0  0
   -0.4014    2.3072   -3.5235 H   0  0  0  0  0  0  0  0  0  0  0  0
   -1.6570    4.7245   -2.0912 H   0  0  0  0  0  0  0  0  0  0  0  0
   -1.8675    4.3306   -3.8016 H   0  0  0  0  0  0  0  0  0  0  0  0
   -2.5160    3.2489   -2.5546 H   0  0  0  0  0  0  0  0  0  0  0  0
    0.9158    4.2990   -4.4746 N   0  0  0  0  0  0  0  0  0  0  0  0
    1.9441    5.1486   -5.0286 C   0  0  0  0  0  0  0  0  0  0  0  0
    0.2729    3.8503   -5.1204 H   0  0  0  0  0  0  0  0  0  0  0  0
    1.5683    6.1799   -5.1017 H   0  0  0  0  0  0  0  0  0  0  0  0
    2.8291    5.1264   -4.3758 H   0  0  0  0  0  0  0  0  0  0  0  0
    2.2183    4.7866   -6.0305 H   0  0  0  0  0  0  0  0  0  0  0  0
  1  3  1  0  0  0  0
  1  7  1  0  0  0  0
  1  2  2  0  0  0  0
 37 38  1  0  0  0  0
 38 46  1  0  0  0  0
 38 39  2  0  0  0  0
  8  9  1  0  0  0  0
  9 17  1  0  0  0  0
  9 10  2  0  0  0  0
 18 19  1  0  0  0  0
 19 36  1  0  0  0  0
 19 20  2  0  0  0  0
 22 24  1  0  0  0  0
 37 40  1  0  0  0  0
  8 11  1  0  0  0  0
 21 23  1  0  0  0  0
 46 47  1  0  0  0  0
 21 22  1  0  0  0  0
 36 37  1  0  0  0  0
  7  8  1  0  0  0  0
 18 21  1  0  0  0  0
 17 18  1  0  0  0  0
  3  4  1  0  0  0  0
  3  5  1  0  0  0  0
  3  6  1  0  0  0  0
 24 33  1  0  0  0  0
 24 34  1  0  0  0  0
 24 35  1  0  0  0  0
 40 43  1  0  0  0  0
 40 44  1  0  0  0  0
 40 45  1  0  0  0  0
 11 14  1  0  0  0  0
 11 15  1  0  0  0  0
 11 16  1  0  0  0  0
 23 30  1  0  0  0  0
 23 31  1  0  0  0  0
 23 32  1  0  0  0  0
 47 49  1  0  0  0  0
 47 50  1  0  0  0  0
 47 51  1  0  0  0  0
 22 28  1  0  0  0  0
 22 29  1  0  0  0  0
 37 42  1  0  0  0  0
  8 13  1  0  0  0  0
 18 26  1  0  0  0  0
 21 27  1  0  0  0  0
 46 48  1  0  0  0  0
  7 12  1  0  0  0  0
 36 41  1  0  0  0  0
 17 25  1  0  0  0  0
M  END
$$$$

  -OEChem-05262214473D

 51 50  0     1  0  0  0  0  0999 V2000
    1.3524   -3.0009    1.4091 C   0  0  0  0  0  0  0  0  0  0  0  0
    1.8758   -1.9880    0.9598 O   0  0  0  0  0  0  0  0  0  0  0  0
    2.2030   -4.1782    1.7536 C   0  0  0  0  0  0  0  0  0  0  0  0
    2.3264   -4.8705    0.9053 H   0  0  0  0  0  0  0  0  0  0  0  0
    3.2257   -3.8876    2.0432 H   0  0  0  0  0  0  0  0  0  0  0  0
    1.8327   -4.8004    2.5839 H   0  0  0  0  0  0  0  0  0  0  0  0
    0.0005   -3.1873    1.6465 N   0  0  0  0  0  0  0  0  0  0  0  0
   -0.9949   -2.1807    1.3864 C   0  0  2  0  0  0  0  0  0  0  0  0
   -0.3083   -0.8216    1.4164 C   0  0  0  0  0  0  0  0  0  0  0  0
    0.7533   -0.6191    2.0022 O   0  0  0  0  0  0  0  0  0  0  0  0
   -2.1232   -2.2423    2.4042 C   0  0  0  0  0  0  0  0  0  0  0  0
   -0.3048   -4.0823    2.0245 H   0  0  0  0  0  0  0  0  0  0  0  0
   -1.3830   -2.3724    0.3801 H   0  0  0  0  0  0  0  0  0  0  0  0
   -1.7534   -2.0527    3.4185 H   0  0  0  0  0  0  0  0  0  0  0  0
   -2.8936   -1.4947    2.1882 H   0  0  0  0  0  0  0  0  0  0  0  0
   -2.5964   -3.2301    2.4022 H   0  0  0  0  0  0  0  0  0  0  0  0
   -1.0412    0.1517    0.7482 N   0  0  0  0  0  0  0  0  0  0  0  0
   -0.6079    1.5223    0.6467 C   0  0  2  0  0  0  0  0  0  0  0  0
   -1.1448    2.0957   -0.6641 C   0  0  0  0  0  0  0  0  0  0  0  0
   -2.3173    2.4332   -0.8147 O   0  0  0  0  0  0  0  0  0  0  0  0
    0.9258    1.6828    0.7792 C   0  0  2  0  0  0  0  0  0  0  0  0
    1.4432    1.2333    2.1637 C   0  0  0  0  0  0  0  0  0  0  0  0
    1.3350    3.1276    0.4638 C   0  0  0  0  0  0  0  0  0  0  0  0
    2.9609    1.1259    2.2390 C   0  0  0  0  0  0  0  0  0  0  0  0
   -1.9022   -0.1128    0.2753 H   0  0  0  0  0  0  0  0  0  0  0  0
   -1.1072    2.0561    1.4654 H   0  0  0  0  0  0  0  0  0  0  0  0
    1.3996    1.0430    0.0226 H   0  0  0  0  0  0  0  0  0  0  0  0
    1.1230    1.9523    2.9265 H   0  0  0  0  0  0  0  0  0  0  0  0
    1.0086    0.2648    2.4383 H   0  0  0  0  0  0  0  0  0  0  0  0
    0.8938    3.8236    1.1854 H   0  0  0  0  0  0  0  0  0  0  0  0
    2.4206    3.2533    0.5206 H   0  0  0  0  0  0  0  0  0  0  0  0
    1.0118    3.4270   -0.5386 H   0  0  0  0  0  0  0  0  0  0  0  0
    3.3520    0.4205    1.5004 H   0  0  0  0  0  0  0  0  0  0  0  0
    3.2618    0.7663    3.2284 H   0  0  0  0  0  0  0  0  0  0  0  0
    3.4328    2.0998    2.0756 H   0  0  0  0  0  0  0  0  0  0  0  0
   -0.1540    2.2150   -1.6282 N   0  0  0  0  0  0  0  0  0  0  0  0
   -0.3937    2.7486   -2.9497 C   0  0  2  0  0  0  0  0  0  0  0  0
    0.9121    3.3423   -3.4612 C   0  0  0  0  0  0  0  0  0  0  0  0
    1.8222    3.7021   -2.7173 O   0  0  0  0  0  0  0  0  0  0  0  0
   -1.4967    3.7954   -2.9321 C   0  0  0  0  0  0  0  0  0  0  0  0
    0.7867    1.9122   -1.3935 H   0  0  0  0  0  0  0  0  0  0  0  0
   -0.6847    1.9040   -3.5838 H   0  0  0  0  0  0  0  0  0  0  0  0
   -1.2232    4.6495   -2.3017 H   0  0  0  0  0  0  0  0  0  0  0  0
   -1.6968    4.1780   -3.9383 H   0  0  0  0  0  0  0  0  0  0  0  0
   -2.4272    3.3746   -2.5360 H   0  0  0  0  0  0  0  0  0  0  0  0
    0.9243    3.4631   -4.8438 N   0  0  0  0  0  0  0  0  0  0  0  0
    2.0472    4.0107   -5.5687 C   0  0  0  0  0  0  0  0  0  0  0  0
    0.1337    3.1215   -5.3822 H   0  0  0  0  0  0  0  0  0  0  0  0
    1.8991    5.0910   -5.7135 H   0  0  0  0  0  0  0  0  0  0  0  0
    2.9710    3.8408   -4.9963 H   0  0  0  0  0  0  0  0  0  0  0  0
    2.1269    3.5170   -6.5484 H   0  0  0  0  0  0  0  0  0  0  0  0
  1  3  1  0  0  0  0
  1  7  1  0  0  0  0
  1  2  2  0  0  0  0
 37 38  1  0  0  0  0
 38 46  1  0  0  0  0
 38 39  2  0  0  0  0
  8  9  1  0  0  0  0
  9 17  1  0  0  0  0
  9 10  2  0  0  0  0
 18 19  1  0  0  0  0
 19 36  1  0  0  0  0
 19 20  2  0  0  0  0
 22 24  1  0  0  0  0
 37 40  1  0  0  0  0
  8 11  1  0  0  0  0
 21 23  1  0  0  0  0
 46 47  1  0  0  0  0
 21 22  1  0  0  0  0
 36 37  1  0  0  0  0
  7  8  1  0  0  0  0
 18 21  1  0  0  0  0
 17 18  1  0  0  0  0
  3  4  1  0  0  0  0
  3  5  1  0  0  0  0
  3  6  1  0  0  0  0
 24 33  1  0  0  0  0
 24 34  1  0  0  0  0
 24 35  1  0  0  0  0
 40 43  1  0  0  0  0
 40 44  1  0  0  0  0
 40 45  1  0  0  0  0
 11 14  1  0  0  0  0
 11 15  1  0  0  0  0
 11 16  1  0  0  0  0
 23 30  1  0  0  0  0
 23 31  1  0  0  0  0
 23 32  1  0  0  0  0
 47 49  1  0  0  0  0
 47 50  1  0  0  0  0
 47 51  1  0  0  0  0
 22 28  1  0  0  0  0
 22 29  1  0  0  0  0
 37 42  1  0  0  0  0
  8 13  1  0  0  0  0
 18 26  1  0  0  0  0
 21 27  1  0  0  0  0
 46 48  1  0  0  0  0
  7 12  1  0  0  0  0
 36 41  1  0  0  0  0
 17 25  1  0  0  0  0
M  END
$$$$

  -OEChem-05262214473D

 51 50  0     1  0  0  0  0  0999 V2000
    1.3524   -3.0009    1.4091 C   0  0  0  0  0  0  0  0  0  0  0  0
    1.8758   -1.9880    0.9598 O   0  0  0  0  0  0  0  0  0  0  0  0
    2.2030   -4.1782    1.7536 C   0  0  0  0  0  0  0  0  0  0  0  0
    2.3264   -4.8705    0.9053 H   0  0  0  0  0  0  0  0  0  0  0  0
    3.2257   -3.8876    2.0432 H   0  0  0  0  0  0  0  0  0  0  0  0
    1.8327   -4.8004    2.5839 H   0  0  0  0  0  0  0  0  0  0  0  0
    0.0005   -3.1873    1.6465 N   0  0  0  0  0  0  0  0  0  0  0  0
   -0.9949   -2.1807    1.3864 C   0  0  2  0  0  0  0  0  0  0  0  0
   -0.3083   -0.8216    1.4164 C   0  0  0  0  0  0  0  0  0  0  0  0
    0.7533   -0.6191    2.0022 O   0  0  0  0  0  0  0  0  0  0  0  0
   -2.1232   -2.2423    2.4042 C   0  0  0  0  0  0  0  0  0  0  0  0
   -0.3048   -4.0823    2.0245 H   0  0  0  0  0  0  0  0  0  0  0  0
   -1.3830   -2.3724    0.3801 H   0  0  0  0  0  0  0  0  0  0  0  0
   -1.7534   -2.0527    3.4185 H   0  0  0  0  0  0  0  0  0  0  0  0
   -2.8936   -1.4947    2.1882 H   0  0  0  0  0  0  0  0  0  0  0  0
   -2.5964   -3.2301    2.4022 H   0  0  0  0  0  0  0  0  0  0  0  0
   -1.0412    0.1517    0.7482 N   0  0  0  0  0  0  0  0  0  0  0  0
   -0.6079    1.5223    0.6467 C   0  0  2  0  0  0  0  0  0  0  0  0
   -1.1448    2.0957   -0.6641 C   0  0  0  0  0  0  0  0  0  0  0  0
   -2.2251    2.6768   -0.7459 O   0  0  0  0  0  0  0  0  0  0  0  0
    0.9258    1.6828    0.7792 C   0  0  2  0  0  0  0  0  0  0  0  0
    1.4432    1.2333    2.1637 C   0  0  0  0  0  0  0  0  0  0  0  0
    1.3350    3.1276    0.4638 C   0  0  0  0  0  0  0  0  0  0  0  0
    2.9609    1.1259    2.2390 C   0  0  0  0  0  0  0  0  0  0  0  0
   -1.9022   -0.1128    0.2753 H   0  0  0  0  0  0  0  0  0  0  0  0
   -1.1072    2.0561    1.4654 H   0  0  0  0  0  0  0  0  0  0  0  0
    1.3996    1.0430    0.0226 H   0  0  0  0  0  0  0  0  0  0  0  0
    1.1230    1.9523    2.9265 H   0  0  0  0  0  0  0  0  0  0  0  0
    1.0086    0.2648    2.4383 H   0  0  0  0  0  0  0  0  0  0  0  0
    0.8938    3.8236    1.1854 H   0  0  0  0  0  0  0  0  0  0  0  0
    2.4206    3.2533    0.5206 H   0  0  0  0  0  0  0  0  0  0  0  0
    1.0118    3.4270   -0.5386 H   0  0  0  0  0  0  0  0  0  0  0  0
    3.3520    0.4205    1.5004 H   0  0  0  0  0  0  0  0  0  0  0  0
    3.2618    0.7663    3.2284 H   0  0  0  0  0  0  0  0  0  0  0  0
    3.4328    2.0998    2.0756 H   0  0  0  0  0  0  0  0  0  0  0  0
   -0.2612    1.9100   -1.7177 N   0  0  0  0  0  0  0  0  0  0  0  0
   -0.5196    2.3766   -3.0609 C   0  0  2  0  0  0  0  0  0  0  0  0
    0.8215    2.6163   -3.7417 C   0  0  0  0  0  0  0  0  0  0  0  0
    1.8625    2.8189   -3.1202 O   0  0  0  0  0  0  0  0  0  0  0  0
   -1.3600    3.6440   -3.0543 C   0  0  0  0  0  0  0  0  0  0  0  0
    0.6107    1.4218   -1.5360 H   0  0  0  0  0  0  0  0  0  0  0  0
   -1.0537    1.5720   -3.5779 H   0  0  0  0  0  0  0  0  0  0  0  0
   -0.8412    4.4615   -2.5404 H   0  0  0  0  0  0  0  0  0  0  0  0
   -1.5790    3.9803   -4.0731 H   0  0  0  0  0  0  0  0  0  0  0  0
   -2.3117    3.4779   -2.5381 H   0  0  0  0  0  0  0  0  0  0  0  0
    0.7111    2.6202   -5.1252 N   0  0  0  0  0  0  0  0  0  0  0  0
    1.8417    2.8395   -5.9968 C   0  0  0  0  0  0  0  0  0  0  0  0
   -0.1880    2.4246   -5.5553 H   0  0  0  0  0  0  0  0  0  0  0  0
    1.9175    3.9101   -6.2376 H   0  0  0  0  0  0  0  0  0  0  0  0
    2.7624    2.5111   -5.4925 H   0  0  0  0  0  0  0  0  0  0  0  0
    1.7064    2.2638   -6.9244 H   0  0  0  0  0  0  0  0  0  0  0  0
  1  3  1  0  0  0  0
  1  7  1  0  0  0  0
  1  2  2  0  0  0  0
 37 38  1  0  0  0  0
 38 46  1  0  0  0  0
 38 39  2  0  0  0  0
  8  9  1  0  0  0  0
  9 17  1  0  0  0  0
  9 10  2  0  0  0  0
 18 19  1  0  0  0  0
 19 36  1  0  0  0  0
 19 20  2  0  0  0  0
 22 24  1  0  0  0  0
 37 40  1  0  0  0  0
  8 11  1  0  0  0  0
 21 23  1  0  0  0  0
 46 47  1  0  0  0  0
 21 22  1  0  0  0  0
 36 37  1  0  0  0  0
  7  8  1  0  0  0  0
 18 21  1  0  0  0  0
 17 18  1  0  0  0  0
  3  4  1  0  0  0  0
  3  5  1  0  0  0  0
  3  6  1  0  0  0  0
 24 33  1  0  0  0  0
 24 34  1  0  0  0  0
 24 35  1  0  0  0  0
 40 43  1  0  0  0  0
 40 44  1  0  0  0  0
 40 45  1  0  0  0  0
 11 14  1  0  0  0  0
 11 15  1  0  0  0  0
 11 16  1  0  0  0  0
 23 30  1  0  0  0  0
 23 31  1  0  0  0  0
 23 32  1  0  0  0  0
 47 49  1  0  0  0  0
 47 50  1  0  0  0  0
 47 51  1  0  0  0  0
 22 28  1  0  0  0  0
 22 29  1  0  0  0  0
 37 42  1  0  0  0  0
  8 13  1  0  0  0  0
 18 26  1  0  0  0  0
 21 27  1  0  0  0  0
 46 48  1  0  0  0  0
  7 12  1  0  0  0  0
 36 41  1  0  0  0  0
 17 25  1  0  0  0  0
M  END
$$$$

  -OEChem-05262214473D

 51 50  0     1  0  0  0  0  0999 V2000
    1.3524   -3.0009    1.4091 C   0  0  0  0  0  0  0  0  0  0  0  0
    1.8758   -1.9880    0.9598 O   0  0  0  0  0  0  0  0  0  0  0  0
    2.2030   -4.1782    1.7536 C   0  0  0  0  0  0  0  0  0  0  0  0
    2.3264   -4.8705    0.9053 H   0  0  0  0  0  0  0  0  0  0  0  0
    3.2257   -3.8876    2.0432 H   0  0  0  0  0  0  0  0  0  0  0  0
    1.8327   -4.8004    2.5839 H   0  0  0  0  0  0  0  0  0  0  0  0
    0.0005   -3.1873    1.6465 N   0  0  0  0  0  0  0  0  0  0  0  0
   -0.9949   -2.1807    1.3864 C   0  0  2  0  0  0  0  0  0  0  0  0
   -0.3083   -0.8216    1.4164 C   0  0  0  0  0  0  0  0  0  0  0  0
    0.7533   -0.6191    2.0022 O   0  0  0  0  0  0  0  0  0  0  0  0
   -2.1232   -2.2423    2.4042 C   0  0  0  0  0  0  0  0  0  0  0  0
   -0.3048   -4.0823    2.0245 H   0  0  0  0  0  0  0  0  0  0  0  0
   -1.3830   -2.3724    0.3801 H   0  0  0  0  0  0  0  0  0  0  0  0
   -1.7534   -2.0527    3.4185 H   0  0  0  0  0  0  0  0  0  0  0  0
   -2.8936   -1.4947    2.1882 H   0  0  0  0  0  0  0  0  0  0  0  0
   -2.5964   -3.2301    2.4022 H   0  0  0  0  0  0  0  0  0  0  0  0
   -1.0412    0.1517    0.7482 N   0  0  0  0  0  0  0  0  0  0  0  0
   -0.6079    1.5223    0.6467 C   0  0  2  0  0  0  0  0  0  0  0  0
   -1.1448    2.0957   -0.6641 C   0  0  0  0  0  0  0  0  0  0  0  0
   -2.0752    2.8980   -0.7105 O   0  0  0  0  0  0  0  0  0  0  0  0
    0.9258    1.6828    0.7792 C   0  0  2  0  0  0  0  0  0  0  0  0
    1.4432    1.2333    2.1637 C   0  0  0  0  0  0  0  0  0  0  0  0
    1.3350    3.1276    0.4638 C   0  0  0  0  0  0  0  0  0  0  0  0
    2.9609    1.1259    2.2390 C   0  0  0  0  0  0  0  0  0  0  0  0
   -1.9022   -0.1128    0.2753 H   0  0  0  0  0  0  0  0  0  0  0  0
   -1.1072    2.0561    1.4654 H   0  0  0  0  0  0  0  0  0  0  0  0
    1.3996    1.0430    0.0226 H   0  0  0  0  0  0  0  0  0  0  0  0
    1.1230    1.9523    2.9265 H   0  0  0  0  0  0  0  0  0  0  0  0
    1.0086    0.2648    2.4383 H   0  0  0  0  0  0  0  0  0  0  0  0
    0.8938    3.8236    1.1854 H   0  0  0  0  0  0  0  0  0  0  0  0
    2.4206    3.2533    0.5206 H   0  0  0  0  0  0  0  0  0  0  0  0
    1.0118    3.4270   -0.5386 H   0  0  0  0  0  0  0  0  0  0  0  0
    3.3520    0.4205    1.5004 H   0  0  0  0  0  0  0  0  0  0  0  0
    3.2618    0.7663    3.2284 H   0  0  0  0  0  0  0  0  0  0  0  0
    3.4328    2.0998    2.0756 H   0  0  0  0  0  0  0  0  0  0  0  0
   -0.4411    1.6311   -1.7661 N   0  0  0  0  0  0  0  0  0  0  0  0
   -0.7346    2.0351   -3.1222 C   0  0  2  0  0  0  0  0  0  0  0  0
    0.5455    1.9096   -3.9378 C   0  0  0  0  0  0  0  0  0  0  0  0
    1.6662    1.9202   -3.4330 O   0  0  0  0  0  0  0  0  0  0  0  0
   -1.2735    3.4563   -3.1718 C   0  0  0  0  0  0  0  0  0  0  0  0
    0.3181    0.9742   -1.6119 H   0  0  0  0  0  0  0  0  0  0  0  0
   -1.4833    1.3337   -3.5063 H   0  0  0  0  0  0  0  0  0  0  0  0
   -0.5372    4.1735   -2.7909 H   0  0  0  0  0  0  0  0  0  0  0  0
   -1.5222    3.7509   -4.1967 H   0  0  0  0  0  0  0  0  0  0  0  0
   -2.1775    3.5519   -2.5607 H   0  0  0  0  0  0  0  0  0  0  0  0
    0.2907    1.8278   -5.2996 N   0  0  0  0  0  0  0  0  0  0  0  0
    1.3416    1.7148   -6.2840 C   0  0  0  0  0  0  0  0  0  0  0  0
   -0.6703    1.8072   -5.6278 H   0  0  0  0  0  0  0  0  0  0  0  0
    1.6221    2.7177   -6.6383 H   0  0  0  0  0  0  0  0  0  0  0  0
    2.2176    1.2278   -5.8307 H   0  0  0  0  0  0  0  0  0  0  0  0
    0.9855    1.1126   -7.1328 H   0  0  0  0  0  0  0  0  0  0  0  0
  1  3  1  0  0  0  0
  1  7  1  0  0  0  0
  1  2  2  0  0  0  0
 37 38  1  0  0  0  0
 38 46  1  0  0  0  0
 38 39  2  0  0  0  0
  8  9  1  0  0  0  0
  9 17  1  0  0  0  0
  9 10  2  0  0  0  0
 18 19  1  0  0  0  0
 19 36  1  0  0  0  0
 19 20  2  0  0  0  0
 22 24  1  0  0  0  0
 37 40  1  0  0  0  0
  8 11  1  0  0  0  0
 21 23  1  0  0  0  0
 46 47  1  0  0  0  0
 21 22  1  0  0  0  0
 36 37  1  0  0  0  0
  7  8  1  0  0  0  0
 18 21  1  0  0  0  0
 17 18  1  0  0  0  0
  3  4  1  0  0  0  0
  3  5  1  0  0  0  0
  3  6  1  0  0  0  0
 24 33  1  0  0  0  0
 24 34  1  0  0  0  0
 24 35  1  0  0  0  0
 40 43  1  0  0  0  0
 40 44  1  0  0  0  0
 40 45  1  0  0  0  0
 11 14  1  0  0  0  0
 11 15  1  0  0  0  0
 11 16  1  0  0  0  0
 23 30  1  0  0  0  0
 23 31  1  0  0  0  0
 23 32  1  0  0  0  0
 47 49  1  0  0  0  0
 47 50  1  0  0  0  0
 47 51  1  0  0  0  0
 22 28  1  0  0  0  0
 22 29  1  0  0  0  0
 37 42  1  0  0  0  0
  8 13  1  0  0  0  0
 18 26  1  0  0  0  0
 21 27  1  0  0  0  0
 46 48  1  0  0  0  0
  7 12  1  0  0  0  0
 36 41  1  0  0  0  0
 17 25  1  0  0  0  0
M  END
$$$$

  -OEChem-05262214473D

 51 50  0     1  0  0  0  0  0999 V2000
    1.3524   -3.0009    1.4091 C   0  0  0  0  0  0  0  0  0  0  0  0
    1.8758   -1.9880    0.9598 O   0  0  0  0  0  0  0  0  0  0  0  0
    2.2030   -4.1782    1.7536 C   0  0  0  0  0  0  0  0  0  0  0  0
    2.3264   -4.8705    0.9053 H   0  0  0  0  0  0  0  0  0  0  0  0
    3.2257   -3.8876    2.0432 H   0  0  0  0  0  0  0  0  0  0  0  0
    1.8327   -4.8004    2.5839 H   0  0  0  0  0  0  0  0  0  0  0  0
    0.0005   -3.1873    1.6465 N   0  0  0  0  0  0  0  0  0  0  0  0
   -0.9949   -2.1807    1.3864 C   0  0  2  0  0  0  0  0  0  0  0  0
   -0.3083   -0.8216    1.4164 C   0  0  0  0  0  0  0  0  0  0  0  0
    0.7533   -0.6191    2.0022 O   0  0  0  0  0  0  0  0  0  0  0  0
   -2.1232   -2.2423    2.4042 C   0  0  0  0  0  0  0  0  0  0  0  0
   -0.3048   -4.0823    2.0245 H   0  0  0  0  0  0  0  0  0  0  0  0
   -1.3830   -2.3724    0.3801 H   0  0  0  0  0  0  0  0  0  0  0  0
   -1.7534   -2.0527    3.4185 H   0  0  0  0  0  0  0  0  0  0  0  0
   -2.8936   -1.4947    2.1882 H   0  0  0  0  0  0  0  0  0  0  0  0
   -2.5964   -3.2301    2.4022 H   0  0  0  0  0  0  0  0  0  0  0  0
   -1.0412    0.1517    0.7482 N   0  0  0  0  0  0  0  0  0  0  0  0
   -0.6079    1.5223    0.6467 C   0  0  2  0  0  0  0  0  0  0  0  0
   -1.1448    2.0957   -0.6641 C   0  0  0  0  0  0  0  0  0  0  0  0
   -1.8779    3.0815   -0.7110 O   0  0  0  0  0  0  0  0  0  0  0  0
    0.9258    1.6828    0.7792 C   0  0  2  0  0  0  0  0  0  0  0  0
    1.4432    1.2333    2.1637 C   0  0  0  0  0  0  0  0  0  0  0  0
    1.3350    3.1276    0.4638 C   0  0  0  0  0  0  0  0  0  0  0  0
    2.9609    1.1259    2.2390 C   0  0  0  0  0  0  0  0  0  0  0  0
   -1.9022   -0.1128    0.2753 H   0  0  0  0  0  0  0  0  0  0  0  0
   -1.1072    2.0561    1.4654 H   0  0  0  0  0  0  0  0  0  0  0  0
    1.3996    1.0430    0.0226 H   0  0  0  0  0  0  0  0  0  0  0  0
    1.1230    1.9523    2.9265 H   0  0  0  0  0  0  0  0  0  0  0  0
    1.0086    0.2648    2.4383 H   0  0  0  0  0  0  0  0  0  0  0  0
    0.8938    3.8236    1.1854 H   0  0  0  0  0  0  0  0  0  0  0  0
    2.4206    3.2533    0.5206 H   0  0  0  0  0  0  0  0  0  0  0  0
    1.0118    3.4270   -0.5386 H   0  0  0  0  0  0  0  0  0  0  0  0
    3.3520    0.4205    1.5004 H   0  0  0  0  0  0  0  0  0  0  0  0
    3.2618    0.7663    3.2284 H   0  0  0  0  0  0  0  0  0  0  0  0
    3.4328    2.0998    2.0756 H   0  0  0  0  0  0  0  0  0  0  0  0
   -0.6816    1.3972   -1.7699 N   0  0  0  0  0  0  0  0  0  0  0  0
   -1.0240    1.7475   -3.1295 C   0  0  2  0  0  0  0  0  0  0  0  0
    0.1029    1.2704   -4.0362 C   0  0  0  0  0  0  0  0  0  0  0  0
    1.2467    1.0672   -3.6343 O   0  0  0  0  0  0  0  0  0  0  0  0
   -1.2430    3.2452   -3.2767 C   0  0  0  0  0  0  0  0  0  0  0  0
   -0.0714    0.5999   -1.6161 H   0  0  0  0  0  0  0  0  0  0  0  0
   -1.9441    1.2054   -3.3736 H   0  0  0  0  0  0  0  0  0  0  0  0
   -0.3318    3.8050   -3.0363 H   0  0  0  0  0  0  0  0  0  0  0  0
   -1.5302    3.5054   -4.3008 H   0  0  0  0  0  0  0  0  0  0  0  0
   -2.0336    3.5915   -2.6023 H   0  0  0  0  0  0  0  0  0  0  0  0
   -0.3083    1.1398   -5.3553 N   0  0  0  0  0  0  0  0  0  0  0  0
    0.5809    0.7135   -6.4105 C   0  0  0  0  0  0  0  0  0  0  0  0
   -1.2803    1.3113   -5.5950 H   0  0  0  0  0  0  0  0  0  0  0  0
    1.0332    1.5951   -6.8882 H   0  0  0  0  0  0  0  0  0  0  0  0
    1.3735    0.0786   -5.9878 H   0  0  0  0  0  0  0  0  0  0  0  0
    0.0134    0.1416   -7.1594 H   0  0  0  0  0  0  0  0  0  0  0  0
  1  3  1  0  0  0  0
  1  7  1  0  0  0  0
  1  2  2  0  0  0  0
 37 38  1  0  0  0  0
 38 46  1  0  0  0  0
 38 39  2  0  0  0  0
  8  9  1  0  0  0  0
  9 17  1  0  0  0  0
  9 10  2  0  0  0  0
 18 19  1  0  0  0  0
 19 36  1  0  0  0  0
 19 20  2  0  0  0  0
 22 24  1  0  0  0  0
 37 40  1  0  0  0  0
  8 11  1  0  0  0  0
 21 23  1  0  0  0  0
 46 47  1  0  0  0  0
 21 22  1  0  0  0  0
 36 37  1  0  0  0  0
  7  8  1  0  0  0  0
 18 21  1  0  0  0  0
 17 18  1  0  0  0  0
  3  4  1  0  0  0  0
  3  5  1  0  0  0  0
  3  6  1  0  0  0  0
 24 33  1  0  0  0  0
 24 34  1  0  0  0  0
 24 35  1  0  0  0  0
 40 43  1  0  0  0  0
 40 44  1  0  0  0  0
 40 45  1  0  0  0  0
 11 14  1  0  0  0  0
 11 15  1  0  0  0  0
 11 16  1  0  0  0  0
 23 30  1  0  0  0  0
 23 31  1  0  0  0  0
 23 32  1  0  0  0  0
 47 49  1  0  0  0  0
 47 50  1  0  0  0  0
 47 51  1  0  0  0  0
 22 28  1  0  0  0  0
 22 29  1  0  0  0  0
 37 42  1  0  0  0  0
  8 13  1  0  0  0  0
 18 26  1  0  0  0  0
 21 27  1  0  0  0  0
 46 48  1  0  0  0  0
  7 12  1  0  0  0  0
 36 41  1  0  0  0  0
 17 25  1  0  0  0  0
M  END
$$$$

  -OEChem-05262214473D

 51 50  0     1  0  0  0  0  0999 V2000
    1.3524   -3.0009    1.4091 C   0  0  0  0  0  0  0  0  0  0  0  0
    1.8758   -1.9880    0.9598 O   0  0  0  0  0  0  0  0  0  0  0  0
    2.2030   -4.1782    1.7536 C   0  0  0  0  0  0  0  0  0  0  0  0
    2.3264   -4.8705    0.9053 H   0  0  0  0  0  0  0  0  0  0  0  0
    3.2257   -3.8876    2.0432 H   0  0  0  0  0  0  0  0  0  0  0  0
    1.8327   -4.8004    2.5839 H   0  0  0  0  0  0  0  0  0  0  0  0
    0.0005   -3.1873    1.6465 N   0  0  0  0  0  0  0  0  0  0  0  0
   -0.9949   -2.1807    1.3864 C   0  0  2  0  0  0  0  0  0  0  0  0
   -0.3083   -0.8216    1.4164 C   0  0  0  0  0  0  0  0  0  0  0  0
    0.7533   -0.6191    2.0022 O   0  0  0  0  0  0  0  0  0  0  0  0
   -2.1232   -2.2423    2.4042 C   0  0  0  0  0  0  0  0  0  0  0  0
   -0.3048   -4.0823    2.0245 H   0  0  0  0  0  0  0  0  0  0  0  0
   -1.3830   -2.3724    0.3801 H   0  0  0  0  0  0  0  0  0  0  0  0
   -1.7534   -2.0527    3.4185 H   0  0  0  0  0  0  0  0  0  0  0  0
   -2.8936   -1.4947    2.1882 H   0  0  0  0  0  0  0  0  0  0  0  0
   -2.5964   -3.2301    2.4022 H   0  0  0  0  0  0  0  0  0  0  0  0
   -1.0412    0.1517    0.7482 N   0  0  0  0  0  0  0  0  0  0  0  0
   -0.6079    1.5223    0.6467 C   0  0  2  0  0  0  0  0  0  0  0  0
   -1.1448    2.0957   -0.6641 C   0  0  0  0  0  0  0  0  0  0  0  0
   -1.6466    3.2149   -0.7474 O   0  0  0  0  0  0  0  0  0  0  0  0
    0.9258    1.6828    0.7792 C   0  0  2  0  0  0  0  0  0  0  0  0
    1.4432    1.2333    2.1637 C   0  0  0  0  0  0  0  0  0  0  0  0
    1.3350    3.1276    0.4638 C   0  0  0  0  0  0  0  0  0  0  0  0
    2.9609    1.1259    2.2390 C   0  0  0  0  0  0  0  0  0  0  0  0
   -1.9022   -0.1128    0.2753 H   0  0  0  0  0  0  0  0  0  0  0  0
   -1.1072    2.0561    1.4654 H   0  0  0  0  0  0  0  0  0  0  0  0
    1.3996    1.0430    0.0226 H   0  0  0  0  0  0  0  0  0  0  0  0
    1.1230    1.9523    2.9265 H   0  0  0  0  0  0  0  0  0  0  0  0
    1.0086    0.2648    2.4383 H   0  0  0  0  0  0  0  0  0  0  0  0
    0.8938    3.8236    1.1854 H   0  0  0  0  0  0  0  0  0  0  0  0
    2.4206    3.2533    0.5206 H   0  0  0  0  0  0  0  0  0  0  0  0
    1.0118    3.4270   -0.5386 H   0  0  0  0  0  0  0  0  0  0  0  0
    3.3520    0.4205    1.5004 H   0  0  0  0  0  0  0  0  0  0  0  0
    3.2618    0.7663    3.2284 H   0  0  0  0  0  0  0  0  0  0  0  0
    3.4328    2.0998    2.0756 H   0  0  0  0  0  0  0  0  0  0  0  0
   -0.9661    1.2243   -1.7290 N   0  0  0  0  0  0  0  0  0  0  0  0
   -1.3681    1.5332   -3.0823 C   0  0  2  0  0  0  0  0  0  0  0  0
   -0.4760    0.7424   -4.0301 C   0  0  0  0  0  0  0  0  0  0  0  0
    0.6326    0.3181   -3.7105 O   0  0  0  0  0  0  0  0  0  0  0  0
   -1.2706    3.0248   -3.3618 C   0  0  0  0  0  0  0  0  0  0  0  0
   -0.5310    0.3244   -1.5484 H   0  0  0  0  0  0  0  0  0  0  0  0
   -2.4049    1.1959   -3.1891 H   0  0  0  0  0  0  0  0  0  0  0  0
   -0.2390    3.3811   -3.2597 H   0  0  0  0  0  0  0  0  0  0  0  0
   -1.6026    3.2607   -4.3782 H   0  0  0  0  0  0  0  0  0  0  0  0
   -1.8898    3.5941   -2.6601 H   0  0  0  0  0  0  0  0  0  0  0  0
   -1.0449    0.6032   -5.2883 N   0  0  0  0  0  0  0  0  0  0  0  0
   -0.3884   -0.0964   -6.3678 C   0  0  0  0  0  0  0  0  0  0  0  0
   -1.9764    0.9707   -5.4589 H   0  0  0  0  0  0  0  0  0  0  0  0
    0.1909    0.6188   -6.9703 H   0  0  0  0  0  0  0  0  0  0  0  0
    0.2878   -0.8585   -5.9530 H   0  0  0  0  0  0  0  0  0  0  0  0
   -1.1438   -0.5829   -7.0024 H   0  0  0  0  0  0  0  0  0  0  0  0
  1  3  1  0  0  0  0
  1  7  1  0  0  0  0
  1  2  2  0  0  0  0
 37 38  1  0  0  0  0
 38 46  1  0  0  0  0
 38 39  2  0  0  0  0
  8  9  1  0  0  0  0
  9 17  1  0  0  0  0
  9 10  2  0  0  0  0
 18 19  1  0  0  0  0
 19 36  1  0  0  0  0
 19 20  2  0  0  0  0
 22 24  1  0  0  0  0
 37 40  1  0  0  0  0
  8 11  1  0  0  0  0
 21 23  1  0  0  0  0
 46 47  1  0  0  0  0
 21 22  1  0  0  0  0
 36 37  1  0  0  0  0
  7  8  1  0  0  0  0
 18 21  1  0  0  0  0
 17 18  1  0  0  0  0
  3  4  1  0  0  0  0
  3  5  1  0  0  0  0
  3  6  1  0  0  0  0
 24 33  1  0  0  0  0
 24 34  1  0  0  0  0
 24 35  1  0  0  0  0
 40 43  1  0  0  0  0
 40 44  1  0  0  0  0
 40 45  1  0  0  0  0
 11 14  1  0  0  0  0
 11 15  1  0  0  0  0
 11 16  1  0  0  0  0
 23 30  1  0  0  0  0
 23 31  1  0  0  0  0
 23 32  1  0  0  0  0
 47 49  1  0  0  0  0
 47 50  1  0  0  0  0
 47 51  1  0  0  0  0
 22 28  1  0  0  0  0
 22 29  1  0  0  0  0
 37 42  1  0  0  0  0
  8 13  1  0  0  0  0
 18 26  1  0  0  0  0
 21 27  1  0  0  0  0
 46 48  1  0  0  0  0
  7 12  1  0  0  0  0
 36 41  1  0  0  0  0
 17 25  1  0  0  0  0
M  END
$$$$

  -OEChem-05262214473D

 51 50  0     1  0  0  0  0  0999 V2000
    1.3524   -3.0009    1.4091 C   0  0  0  0  0  0  0  0  0  0  0  0
    1.8758   -1.9880    0.9598 O   0  0  0  0  0  0  0  0  0  0  0  0
    2.2030   -4.1782    1.7536 C   0  0  0  0  0  0  0  0  0  0  0  0
    2.3264   -4.8705    0.9053 H   0  0  0  0  0  0  0  0  0  0  0  0
    3.2257   -3.8876    2.0432 H   0  0  0  0  0  0  0  0  0  0  0  0
    1.8327   -4.8004    2.5839 H   0  0  0  0  0  0  0  0  0  0  0  0
    0.0005   -3.1873    1.6465 N   0  0  0  0  0  0  0  0  0  0  0  0
   -0.9949   -2.1807    1.3864 C   0  0  2  0  0  0  0  0  0  0  0  0
   -0.3083   -0.8216    1.4164 C   0  0  0  0  0  0  0  0  0  0  0  0
    0.7533   -0.6191    2.0022 O   0  0  0  0  0  0  0  0  0  0  0  0
   -2.1232   -2.2423    2.4042 C   0  0  0  0  0  0  0  0  0  0  0  0
   -0.3048   -4.0823    2.0245 H   0  0  0  0  0  0  0  0  0  0  0  0
   -1.3830   -2.3724    0.3801 H   0  0  0  0  0  0  0  0  0  0  0  0
   -1.7534   -2.0527    3.4185 H   0  0  0  0  0  0  0  0  0  0  0  0
   -2.8936   -1.4947    2.1882 H   0  0  0  0  0  0  0  0  0  0  0  0
   -2.5964   -3.2301    2.4022 H   0  0  0  0  0  0  0  0  0  0  0  0
   -1.0412    0.1517    0.7482 N   0  0  0  0  0  0  0  0  0  0  0  0
   -0.6079    1.5223    0.6467 C   0  0  2  0  0  0  0  0  0  0  0  0
   -1.1448    2.0957   -0.6641 C   0  0  0  0  0  0  0  0  0  0  0  0
   -1.3971    3.2892   -0.8171 O   0  0  0  0  0  0  0  0  0  0  0  0
    0.9258    1.6828    0.7792 C   0  0  2  0  0  0  0  0  0  0  0  0
    1.4432    1.2333    2.1637 C   0  0  0  0  0  0  0  0  0  0  0  0
    1.3350    3.1276    0.4638 C   0  0  0  0  0  0  0  0  0  0  0  0
    2.9609    1.1259    2.2390 C   0  0  0  0  0  0  0  0  0  0  0  0
   -1.9022   -0.1128    0.2753 H   0  0  0  0  0  0  0  0  0  0  0  0
   -1.1072    2.0561    1.4654 H   0  0  0  0  0  0  0  0  0  0  0  0
    1.3996    1.0430    0.0226 H   0  0  0  0  0  0  0  0  0  0  0  0
    1.1230    1.9523    2.9265 H   0  0  0  0  0  0  0  0  0  0  0  0
    1.0086    0.2648    2.4383 H   0  0  0  0  0  0  0  0  0  0  0  0
    0.8938    3.8236    1.1854 H   0  0  0  0  0  0  0  0  0  0  0  0
    2.4206    3.2533    0.5206 H   0  0  0  0  0  0  0  0  0  0  0  0
    1.0118    3.4270   -0.5386 H   0  0  0  0  0  0  0  0  0  0  0  0
    3.3520    0.4205    1.5004 H   0  0  0  0  0  0  0  0  0  0  0  0
    3.2618    0.7663    3.2284 H   0  0  0  0  0  0  0  0  0  0  0  0
    3.4328    2.0998    2.0756 H   0  0  0  0  0  0  0  0  0  0  0  0
   -1.2753    1.1242   -1.6461 N   0  0  0  0  0  0  0  0  0  0  0  0
   -1.7435    1.4069   -2.9839 C   0  0  2  0  0  0  0  0  0  0  0  0
   -1.1518    0.3614   -3.9200 C   0  0  0  0  0  0  0  0  0  0  0  0
   -0.1343   -0.2760   -3.6563 O   0  0  0  0  0  0  0  0  0  0  0  0
   -1.3544    2.8104   -3.4212 C   0  0  0  0  0  0  0  0  0  0  0  0
   -1.0296    0.1666   -1.4132 H   0  0  0  0  0  0  0  0  0  0  0  0
   -2.8341    1.3057   -2.9652 H   0  0  0  0  0  0  0  0  0  0  0  0
   -0.2652    2.9308   -3.4459 H   0  0  0  0  0  0  0  0  0  0  0  0
   -1.7344    3.0333   -4.4237 H   0  0  0  0  0  0  0  0  0  0  0  0
   -1.7560    3.5594   -2.7301 H   0  0  0  0  0  0  0  0  0  0  0  0
   -1.8691    0.2546   -5.1032 N   0  0  0  0  0  0  0  0  0  0  0  0
   -1.5003   -0.6596   -6.1588 C   0  0  0  0  0  0  0  0  0  0  0  0
   -2.7112    0.8086   -5.2288 H   0  0  0  0  0  0  0  0  0  0  0  0
   -0.8474   -0.1448   -6.8790 H   0  0  0  0  0  0  0  0  0  0  0  0
   -0.9655   -1.5194   -5.7288 H   0  0  0  0  0  0  0  0  0  0  0  0
   -2.4071   -1.0115   -6.6725 H   0  0  0  0  0  0  0  0  0  0  0  0
  1  3  1  0  0  0  0
  1  7  1  0  0  0  0
  1  2  2  0  0  0  0
 37 38  1  0  0  0  0
 38 46  1  0  0  0  0
 38 39  2  0  0  0  0
  8  9  1  0  0  0  0
  9 17  1  0  0  0  0
  9 10  2  0  0  0  0
 18 19  1  0  0  0  0
 19 36  1  0  0  0  0
 19 20  2  0  0  0  0
 22 24  1  0  0  0  0
 37 40  1  0  0  0  0
  8 11  1  0  0  0  0
 21 23  1  0  0  0  0
 46 47  1  0  0  0  0
 21 22  1  0  0  0  0
 36 37  1  0  0  0  0
  7  8  1  0  0  0  0
 18 21  1  0  0  0  0
 17 18  1  0  0  0  0
  3  4  1  0  0  0  0
  3  5  1  0  0  0  0
  3  6  1  0  0  0  0
 24 33  1  0  0  0  0
 24 34  1  0  0  0  0
 24 35  1  0  0  0  0
 40 43  1  0  0  0  0
 40 44  1  0  0  0  0
 40 45  1  0  0  0  0
 11 14  1  0  0  0  0
 11 15  1  0  0  0  0
 11 16  1  0  0  0  0
 23 30  1  0  0  0  0
 23 31  1  0  0  0  0
 23 32  1  0  0  0  0
 47 49  1  0  0  0  0
 47 50  1  0  0  0  0
 47 51  1  0  0  0  0
 22 28  1  0  0  0  0
 22 29  1  0  0  0  0
 37 42  1  0  0  0  0
  8 13  1  0  0  0  0
 18 26  1  0  0  0  0
 21 27  1  0  0  0  0
 46 48  1  0  0  0  0
  7 12  1  0  0  0  0
 36 41  1  0  0  0  0
 17 25  1  0  0  0  0
M  END
$$$$

  -OEChem-05262214473D

 51 50  0     1  0  0  0  0  0999 V2000
    1.3524   -3.0009    1.4091 C   0  0  0  0  0  0  0  0  0  0  0  0
    1.8758   -1.9880    0.9598 O   0  0  0  0  0  0  0  0  0  0  0  0
    2.2030   -4.1782    1.7536 C   0  0  0  0  0  0  0  0  0  0  0  0
    2.3264   -4.8705    0.9053 H   0  0  0  0  0  0  0  0  0  0  0  0
    3.2257   -3.8876    2.0432 H   0  0  0  0  0  0  0  0  0  0  0  0
    1.8327   -4.8004    2.5839 H   0  0  0  0  0  0  0  0  0  0  0  0
    0.0005   -3.1873    1.6465 N   0  0  0  0  0  0  0  0  0  0  0  0
   -0.9949   -2.1807    1.3864 C   0  0  2  0  0  0  0  0  0  0  0  0
   -0.3083   -0.8216    1.4164 C   0  0  0  0  0  0  0  0  0  0  0  0
    0.7533   -0.6191    2.0022 O   0  0  0  0  0  0  0  0  0  0  0  0
   -2.1232   -2.2423    2.4042 C   0  0  0  0  0  0  0  0  0  0  0  0
   -0.3048   -4.0823    2.0245 H   0  0  0  0  0  0  0  0  0  0  0  0
   -1.3830   -2.3724    0.3801 H   0  0  0  0  0  0  0  0  0  0  0  0
   -1.7534   -2.0527    3.4185 H   0  0  0  0  0  0  0  0  0  0  0  0
   -2.8936   -1.4947    2.1882 H   0  0  0  0  0  0  0  0  0  0  0  0
   -2.5964   -3.2301    2.4022 H   0  0  0  0  0  0  0  0  0  0  0  0
   -1.0412    0.1517    0.7482 N   0  0  0  0  0  0  0  0  0  0  0  0
   -0.6079    1.5223    0.6467 C   0  0  2  0  0  0  0  0  0  0  0  0
   -1.1448    2.0957   -0.6641 C   0  0  0  0  0  0  0  0  0  0  0  0
   -1.1464    3.2992   -0.9154 O   0  0  0  0  0  0  0  0  0  0  0  0
    0.9258    1.6828    0.7792 C   0  0  2  0  0  0  0  0  0  0  0  0
    1.4432    1.2333    2.1637 C   0  0  0  0  0  0  0  0  0  0  0  0
    1.3350    3.1276    0.4638 C   0  0  0  0  0  0  0  0  0  0  0  0
    2.9609    1.1259    2.2390 C   0  0  0  0  0  0  0  0  0  0  0  0
   -1.9022   -0.1128    0.2753 H   0  0  0  0  0  0  0  0  0  0  0  0
   -1.1072    2.0561    1.4654 H   0  0  0  0  0  0  0  0  0  0  0  0
    1.3996    1.0430    0.0226 H   0  0  0  0  0  0  0  0  0  0  0  0
    1.1230    1.9523    2.9265 H   0  0  0  0  0  0  0  0  0  0  0  0
    1.0086    0.2648    2.4383 H   0  0  0  0  0  0  0  0  0  0  0  0
    0.8938    3.8236    1.1854 H   0  0  0  0  0  0  0  0  0  0  0  0
    2.4206    3.2533    0.5206 H   0  0  0  0  0  0  0  0  0  0  0  0
    1.0118    3.4270   -0.5386 H   0  0  0  0  0  0  0  0  0  0  0  0
    3.3520    0.4205    1.5004 H   0  0  0  0  0  0  0  0  0  0  0  0
    3.2618    0.7663    3.2284 H   0  0  0  0  0  0  0  0  0  0  0  0
    3.4328    2.0998    2.0756 H   0  0  0  0  0  0  0  0  0  0  0  0
   -1.5882    1.1037   -1.5270 N   0  0  0  0  0  0  0  0  0  0  0  0
   -2.1246    1.3772   -2.8408 C   0  0  2  0  0  0  0  0  0  0  0  0
   -1.8785    0.1534   -3.7133 C   0  0  0  0  0  0  0  0  0  0  0  0
   -1.0017   -0.6747   -3.4754 O   0  0  0  0  0  0  0  0  0  0  0  0
   -1.4888    2.6166   -3.4510 C   0  0  0  0  0  0  0  0  0  0  0  0
   -1.5331    0.1371   -1.2199 H   0  0  0  0  0  0  0  0  0  0  0  0
   -3.2026    1.5275   -2.7173 H   0  0  0  0  0  0  0  0  0  0  0  0
   -0.4086    2.4847   -3.5824 H   0  0  0  0  0  0  0  0  0  0  0  0
   -1.9166    2.8388   -4.4342 H   0  0  0  0  0  0  0  0  0  0  0  0
   -1.6412    3.4898   -2.8075 H   0  0  0  0  0  0  0  0  0  0  0  0
   -2.7247    0.1176   -4.8128 N   0  0  0  0  0  0  0  0  0  0  0  0
   -2.6791   -0.9378   -5.7977 C   0  0  0  0  0  0  0  0  0  0  0  0
   -3.4346    0.8361   -4.9205 H   0  0  0  0  0  0  0  0  0  0  0  0
   -2.0111   -0.6434   -6.6206 H   0  0  0  0  0  0  0  0  0  0  0  0
   -2.3011   -1.8591   -5.3304 H   0  0  0  0  0  0  0  0  0  0  0  0
   -3.6905   -1.1150   -6.1921 H   0  0  0  0  0  0  0  0  0  0  0  0
  1  3  1  0  0  0  0
  1  7  1  0  0  0  0
  1  2  2  0  0  0  0
 37 38  1  0  0  0  0
 38 46  1  0  0  0  0
 38 39  2  0  0  0  0
  8  9  1  0  0  0  0
  9 17  1  0  0  0  0
  9 10  2  0  0  0  0
 18 19  1  0  0  0  0
 19 36  1  0  0  0  0
 19 20  2  0  0  0  0
 22 24  1  0  0  0  0
 37 40  1  0  0  0  0
  8 11  1  0  0  0  0
 21 23  1  0  0  0  0
 46 47  1  0  0  0  0
 21 22  1  0  0  0  0
 36 37  1  0  0  0  0
  7  8  1  0  0  0  0
 18 21  1  0  0  0  0
 17 18  1  0  0  0  0
  3  4  1  0  0  0  0
  3  5  1  0  0  0  0
  3  6  1  0  0  0  0
 24 33  1  0  0  0  0
 24 34  1  0  0  0  0
 24 35  1  0  0  0  0
 40 43  1  0  0  0  0
 40 44  1  0  0  0  0
 40 45  1  0  0  0  0
 11 14  1  0  0  0  0
 11 15  1  0  0  0  0
 11 16  1  0  0  0  0
 23 30  1  0  0  0  0
 23 31  1  0  0  0  0
 23 32  1  0  0  0  0
 47 49  1  0  0  0  0
 47 50  1  0  0  0  0
 47 51  1  0  0  0  0
 22 28  1  0  0  0  0
 22 29  1  0  0  0  0
 37 42  1  0  0  0  0
  8 13  1  0  0  0  0
 18 26  1  0  0  0  0
 21 27  1  0  0  0  0
 46 48  1  0  0  0  0
  7 12  1  0  0  0  0
 36 41  1  0  0  0  0
 17 25  1  0  0  0  0
M  END
$$$$

  -OEChem-05262214473D

 51 50  0     1  0  0  0  0  0999 V2000
    1.3524   -3.0009    1.4091 C   0  0  0  0  0  0  0  0  0  0  0  0
    1.8758   -1.9880    0.9598 O   0  0  0  0  0  0  0  0  0  0  0  0
    2.2030   -4.1782    1.7536 C   0  0  0  0  0  0  0  0  0  0  0  0
    2.3264   -4.8705    0.9053 H   0  0  0  0  0  0  0  0  0  0  0  0
    3.2257   -3.8876    2.0432 H   0  0  0  0  0  0  0  0  0  0  0  0
    1.8327   -4.8004    2.5839 H   0  0  0  0  0  0  0  0  0  0  0  0
    0.0005   -3.1873    1.6465 N   0  0  0  0  0  0  0  0  0  0  0  0
   -0.9949   -2.1807    1.3864 C   0  0  2  0  0  0  0  0  0  0  0  0
   -0.3083   -0.8216    1.4164 C   0  0  0  0  0  0  0  0  0  0  0  0
    0.7533   -0.6191    2.0022 O   0  0  0  0  0  0  0  0  0  0  0  0
   -2.1232   -2.2423    2.4042 C   0  0  0  0  0  0  0  0  0  0  0  0
   -0.3048   -4.0823    2.0245 H   0  0  0  0  0  0  0  0  0  0  0  0
   -1.3830   -2.3724    0.3801 H   0  0  0  0  0  0  0  0  0  0  0  0
   -1.7534   -2.0527    3.4185 H   0  0  0  0  0  0  0  0  0  0  0  0
   -2.8936   -1.4947    2.1882 H   0  0  0  0  0  0  0  0  0  0  0  0
   -2.5964   -3.2301    2.4022 H   0  0  0  0  0  0  0  0  0  0  0  0
   -1.0412    0.1517    0.7482 N   0  0  0  0  0  0  0  0  0  0  0  0
   -0.6079    1.5223    0.6467 C   0  0  2  0  0  0  0  0  0  0  0  0
   -1.1448    2.0957   -0.6641 C   0  0  0  0  0  0  0  0  0  0  0  0
   -0.9116    3.2442   -1.0356 O   0  0  0  0  0  0  0  0  0  0  0  0
    0.9258    1.6828    0.7792 C   0  0  2  0  0  0  0  0  0  0  0  0
    1.4432    1.2333    2.1637 C   0  0  0  0  0  0  0  0  0  0  0  0
    1.3350    3.1276    0.4638 C   0  0  0  0  0  0  0  0  0  0  0  0
    2.9609    1.1259    2.2390 C   0  0  0  0  0  0  0  0  0  0  0  0
   -1.9022   -0.1128    0.2753 H   0  0  0  0  0  0  0  0  0  0  0  0
   -1.1072    2.0561    1.4654 H   0  0  0  0  0  0  0  0  0  0  0  0
    1.3996    1.0430    0.0226 H   0  0  0  0  0  0  0  0  0  0  0  0
    1.1230    1.9523    2.9265 H   0  0  0  0  0  0  0  0  0  0  0  0
    1.0086    0.2648    2.4383 H   0  0  0  0  0  0  0  0  0  0  0  0
    0.8938    3.8236    1.1854 H   0  0  0  0  0  0  0  0  0  0  0  0
    2.4206    3.2533    0.5206 H   0  0  0  0  0  0  0  0  0  0  0  0
    1.0118    3.4270   -0.5386 H   0  0  0  0  0  0  0  0  0  0  0  0
    3.3520    0.4205    1.5004 H   0  0  0  0  0  0  0  0  0  0  0  0
    3.2618    0.7663    3.2284 H   0  0  0  0  0  0  0  0  0  0  0  0
    3.4328    2.0998    2.0756 H   0  0  0  0  0  0  0  0  0  0  0  0
   -1.8834    1.1642   -1.3796 N   0  0  0  0  0  0  0  0  0  0  0  0
   -2.4854    1.4461   -2.6629 C   0  0  2  0  0  0  0  0  0  0  0  0
   -2.6065    0.1326   -3.4242 C   0  0  0  0  0  0  0  0  0  0  0  0
   -1.9104   -0.8508   -3.1803 O   0  0  0  0  0  0  0  0  0  0  0  0
   -1.6645    2.4564   -3.4491 C   0  0  0  0  0  0  0  0  0  0  0  0
   -2.0073    0.2379   -0.9816 H   0  0  0  0  0  0  0  0  0  0  0  0
   -3.4853    1.8461   -2.4622 H   0  0  0  0  0  0  0  0  0  0  0  0
   -0.6594    2.0732   -3.6597 H   0  0  0  0  0  0  0  0  0  0  0  0
   -2.1368    2.6904   -4.4089 H   0  0  0  0  0  0  0  0  0  0  0  0
   -1.5533    3.3900   -2.8871 H   0  0  0  0  0  0  0  0  0  0  0  0
   -3.5533    0.2016   -4.4366 N   0  0  0  0  0  0  0  0  0  0  0  0
   -3.8444   -0.9119   -5.3091 C   0  0  0  0  0  0  0  0  0  0  0  0
   -4.0973    1.0513   -4.5550 H   0  0  0  0  0  0  0  0  0  0  0  0
   -3.2207   -0.8433   -6.2126 H   0  0  0  0  0  0  0  0  0  0  0  0
   -3.6279   -1.8545   -4.7850 H   0  0  0  0  0  0  0  0  0  0  0  0
   -4.9065   -0.8864   -5.5941 H   0  0  0  0  0  0  0  0  0  0  0  0
  1  3  1  0  0  0  0
  1  7  1  0  0  0  0
  1  2  2  0  0  0  0
 37 38  1  0  0  0  0
 38 46  1  0  0  0  0
 38 39  2  0  0  0  0
  8  9  1  0  0  0  0
  9 17  1  0  0  0  0
  9 10  2  0  0  0  0
 18 19  1  0  0  0  0
 19 36  1  0  0  0  0
 19 20  2  0  0  0  0
 22 24  1  0  0  0  0
 37 40  1  0  0  0  0
  8 11  1  0  0  0  0
 21 23  1  0  0  0  0
 46 47  1  0  0  0  0
 21 22  1  0  0  0  0
 36 37  1  0  0  0  0
  7  8  1  0  0  0  0
 18 21  1  0  0  0  0
 17 18  1  0  0  0  0
  3  4  1  0  0  0  0
  3  5  1  0  0  0  0
  3  6  1  0  0  0  0
 24 33  1  0  0  0  0
 24 34  1  0  0  0  0
 24 35  1  0  0  0  0
 40 43  1  0  0  0  0
 40 44  1  0  0  0  0
 40 45  1  0  0  0  0
 11 14  1  0  0  0  0
 11 15  1  0  0  0  0
 11 16  1  0  0  0  0
 23 30  1  0  0  0  0
 23 31  1  0  0  0  0
 23 32  1  0  0  0  0
 47 49  1  0  0  0  0
 47 50  1  0  0  0  0
 47 51  1  0  0  0  0
 22 28  1  0  0  0  0
 22 29  1  0  0  0  0
 37 42  1  0  0  0  0
  8 13  1  0  0  0  0
 18 26  1  0  0  0  0
 21 27  1  0  0  0  0
 46 48  1  0  0  0  0
  7 12  1  0  0  0  0
 36 41  1  0  0  0  0
 17 25  1  0  0  0  0
M  END
$$$$

  -OEChem-05262214473D

 51 50  0     1  0  0  0  0  0999 V2000
    1.3524   -3.0009    1.4091 C   0  0  0  0  0  0  0  0  0  0  0  0
    1.8758   -1.9880    0.9598 O   0  0  0  0  0  0  0  0  0  0  0  0
    2.2030   -4.1782    1.7536 C   0  0  0  0  0  0  0  0  0  0  0  0
    2.3264   -4.8705    0.9053 H   0  0  0  0  0  0  0  0  0  0  0  0
    3.2257   -3.8876    2.0432 H   0  0  0  0  0  0  0  0  0  0  0  0
    1.8327   -4.8004    2.5839 H   0  0  0  0  0  0  0  0  0  0  0  0
    0.0005   -3.1873    1.6465 N   0  0  0  0  0  0  0  0  0  0  0  0
   -0.9949   -2.1807    1.3864 C   0  0  2  0  0  0  0  0  0  0  0  0
   -0.3083   -0.8216    1.4164 C   0  0  0  0  0  0  0  0  0  0  0  0
    0.7533   -0.6191    2.0022 O   0  0  0  0  0  0  0  0  0  0  0  0
   -2.1232   -2.2423    2.4042 C   0  0  0  0  0  0  0  0  0  0  0  0
   -0.3048   -4.0823    2.0245 H   0  0  0  0  0  0  0  0  0  0  0  0
   -1.3830   -2.3724    0.3801 H   0  0  0  0  0  0  0  0  0  0  0  0
   -1.7534   -2.0527    3.4185 H   0  0  0  0  0  0  0  0  0  0  0  0
   -2.8936   -1.4947    2.1882 H   0  0  0  0  0  0  0  0  0  0  0  0
   -2.5964   -3.2301    2.4022 H   0  0  0  0  0  0  0  0  0  0  0  0
   -1.0412    0.1517    0.7482 N   0  0  0  0  0  0  0  0  0  0  0  0
   -0.6079    1.5223    0.6467 C   0  0  2  0  0  0  0  0  0  0  0  0
   -1.1448    2.0957   -0.6641 C   0  0  0  0  0  0  0  0  0  0  0  0
   -0.7087    3.1281   -1.1695 O   0  0  0  0  0  0  0  0  0  0  0  0
    0.9258    1.6828    0.7792 C   0  0  2  0  0  0  0  0  0  0  0  0
    1.4432    1.2333    2.1637 C   0  0  0  0  0  0  0  0  0  0  0  0
    1.3350    3.1276    0.4638 C   0  0  0  0  0  0  0  0  0  0  0  0
    2.9609    1.1259    2.2390 C   0  0  0  0  0  0  0  0  0  0  0  0
   -1.9022   -0.1128    0.2753 H   0  0  0  0  0  0  0  0  0  0  0  0
   -1.1072    2.0561    1.4654 H   0  0  0  0  0  0  0  0  0  0  0  0
    1.3996    1.0430    0.0226 H   0  0  0  0  0  0  0  0  0  0  0  0
    1.1230    1.9523    2.9265 H   0  0  0  0  0  0  0  0  0  0  0  0
    1.0086    0.2648    2.4383 H   0  0  0  0  0  0  0  0  0  0  0  0
    0.8938    3.8236    1.1854 H   0  0  0  0  0  0  0  0  0  0  0  0
    2.4206    3.2533    0.5206 H   0  0  0  0  0  0  0  0  0  0  0  0
    1.0118    3.4270   -0.5386 H   0  0  0  0  0  0  0  0  0  0  0  0
    3.3520    0.4205    1.5004 H   0  0  0  0  0  0  0  0  0  0  0  0
    3.2618    0.7663    3.2284 H   0  0  0  0  0  0  0  0  0  0  0  0
    3.4328    2.0998    2.0756 H   0  0  0  0  0  0  0  0  0  0  0  0
   -2.1409    1.3015   -1.2141 N   0  0  0  0  0  0  0  0  0  0  0  0
   -2.8013    1.6089   -2.4622 C   0  0  2  0  0  0  0  0  0  0  0  0
   -3.2863    0.3005   -3.0724 C   0  0  0  0  0  0  0  0  0  0  0  0
   -2.7987   -0.7923   -2.7909 O   0  0  0  0  0  0  0  0  0  0  0  0
   -1.8696    2.3409   -3.4156 C   0  0  0  0  0  0  0  0  0  0  0  0
   -2.4197    0.4623   -0.7145 H   0  0  0  0  0  0  0  0  0  0  0  0
   -3.6627    2.2397   -2.2173 H   0  0  0  0  0  0  0  0  0  0  0  0
   -1.0005    1.7244   -3.6725 H   0  0  0  0  0  0  0  0  0  0  0  0
   -2.3800    2.5982   -4.3496 H   0  0  0  0  0  0  0  0  0  0  0  0
   -1.4983    3.2669   -2.9635 H   0  0  0  0  0  0  0  0  0  0  0  0
   -4.2985    0.5010   -4.0005 N   0  0  0  0  0  0  0  0  0  0  0  0
   -4.9168   -0.5838   -4.7264 C   0  0  0  0  0  0  0  0  0  0  0  0
   -4.6541    1.4395   -4.1571 H   0  0  0  0  0  0  0  0  0  0  0  0
   -4.3938   -0.7307   -5.6829 H   0  0  0  0  0  0  0  0  0  0  0  0
   -4.8555   -1.5060   -4.1298 H   0  0  0  0  0  0  0  0  0  0  0  0
   -5.9722   -0.3413   -4.9192 H   0  0  0  0  0  0  0  0  0  0  0  0
  1  3  1  0  0  0  0
  1  7  1  0  0  0  0
  1  2  2  0  0  0  0
 37 38  1  0  0  0  0
 38 46  1  0  0  0  0
 38 39  2  0  0  0  0
  8  9  1  0  0  0  0
  9 17  1  0  0  0  0
  9 10  2  0  0  0  0
 18 19  1  0  0  0  0
 19 36  1  0  0  0  0
 19 20  2  0  0  0  0
 22 24  1  0  0  0  0
 37 40  1  0  0  0  0
  8 11  1  0  0  0  0
 21 23  1  0  0  0  0
 46 47  1  0  0  0  0
 21 22  1  0  0  0  0
 36 37  1  0  0  0  0
  7  8  1  0  0  0  0
 18 21  1  0  0  0  0
 17 18  1  0  0  0  0
  3  4  1  0  0  0  0
  3  5  1  0  0  0  0
  3  6  1  0  0  0  0
 24 33  1  0  0  0  0
 24 34  1  0  0  0  0
 24 35  1  0  0  0  0
 40 43  1  0  0  0  0
 40 44  1  0  0  0  0
 40 45  1  0  0  0  0
 11 14  1  0  0  0  0
 11 15  1  0  0  0  0
 11 16  1  0  0  0  0
 23 30  1  0  0  0  0
 23 31  1  0  0  0  0
 23 32  1  0  0  0  0
 47 49  1  0  0  0  0
 47 50  1  0  0  0  0
 47 51  1  0  0  0  0
 22 28  1  0  0  0  0
 22 29  1  0  0  0  0
 37 42  1  0  0  0  0
  8 13  1  0  0  0  0
 18 26  1  0  0  0  0
 21 27  1  0  0  0  0
 46 48  1  0  0  0  0
  7 12  1  0  0  0  0
 36 41  1  0  0  0  0
 17 25  1  0  0  0  0
M  END
$$$$

  -OEChem-05262214473D

 51 50  0     1  0  0  0  0  0999 V2000
    1.3524   -3.0009    1.4091 C   0  0  0  0  0  0  0  0  0  0  0  0
    1.8758   -1.9880    0.9598 O   0  0  0  0  0  0  0  0  0  0  0  0
    2.2030   -4.1782    1.7536 C   0  0  0  0  0  0  0  0  0  0  0  0
    2.3264   -4.8705    0.9053 H   0  0  0  0  0  0  0  0  0  0  0  0
    3.2257   -3.8876    2.0432 H   0  0  0  0  0  0  0  0  0  0  0  0
    1.8327   -4.8004    2.5839 H   0  0  0  0  0  0  0  0  0  0  0  0
    0.0005   -3.1873    1.6465 N   0  0  0  0  0  0  0  0  0  0  0  0
   -0.9949   -2.1807    1.3864 C   0  0  2  0  0  0  0  0  0  0  0  0
   -0.3083   -0.8216    1.4164 C   0  0  0  0  0  0  0  0  0  0  0  0
    0.7533   -0.6191    2.0022 O   0  0  0  0  0  0  0  0  0  0  0  0
   -2.1232   -2.2423    2.4042 C   0  0  0  0  0  0  0  0  0  0  0  0
   -0.3048   -4.0823    2.0245 H   0  0  0  0  0  0  0  0  0  0  0  0
   -1.3830   -2.3724    0.3801 H   0  0  0  0  0  0  0  0  0  0  0  0
   -1.7534   -2.0527    3.4185 H   0  0  0  0  0  0  0  0  0  0  0  0
   -2.8936   -1.4947    2.1882 H   0  0  0  0  0  0  0  0  0  0  0  0
   -2.5964   -3.2301    2.4022 H   0  0  0  0  0  0  0  0  0  0  0  0
   -1.0412    0.1517    0.7482 N   0  0  0  0  0  0  0  0  0  0  0  0
   -0.6079    1.5223    0.6467 C   0  0  2  0  0  0  0  0  0  0  0  0
   -1.1448    2.0957   -0.6641 C   0  0  0  0  0  0  0  0  0  0  0  0
   -0.5514    2.9587   -1.3080 O   0  0  0  0  0  0  0  0  0  0  0  0
    0.9258    1.6828    0.7792 C   0  0  2  0  0  0  0  0  0  0  0  0
    1.4432    1.2333    2.1637 C   0  0  0  0  0  0  0  0  0  0  0  0
    1.3350    3.1276    0.4638 C   0  0  0  0  0  0  0  0  0  0  0  0
    2.9609    1.1259    2.2390 C   0  0  0  0  0  0  0  0  0  0  0  0
   -1.9022   -0.1128    0.2753 H   0  0  0  0  0  0  0  0  0  0  0  0
   -1.1072    2.0561    1.4654 H   0  0  0  0  0  0  0  0  0  0  0  0
    1.3996    1.0430    0.0226 H   0  0  0  0  0  0  0  0  0  0  0  0
    1.1230    1.9523    2.9265 H   0  0  0  0  0  0  0  0  0  0  0  0
    1.0086    0.2648    2.4383 H   0  0  0  0  0  0  0  0  0  0  0  0
    0.8938    3.8236    1.1854 H   0  0  0  0  0  0  0  0  0  0  0  0
    2.4206    3.2533    0.5206 H   0  0  0  0  0  0  0  0  0  0  0  0
    1.0118    3.4270   -0.5386 H   0  0  0  0  0  0  0  0  0  0  0  0
    3.3520    0.4205    1.5004 H   0  0  0  0  0  0  0  0  0  0  0  0
    3.2618    0.7663    3.2284 H   0  0  0  0  0  0  0  0  0  0  0  0
    3.4328    2.0998    2.0756 H   0  0  0  0  0  0  0  0  0  0  0  0
   -2.3429    1.5064   -1.0417 N   0  0  0  0  0  0  0  0  0  0  0  0
   -3.0508    1.8546   -2.2526 C   0  0  2  0  0  0  0  0  0  0  0  0
   -3.8714    0.6455   -2.6818 C   0  0  0  0  0  0  0  0  0  0  0  0
   -3.6059   -0.5032   -2.3338 O   0  0  0  0  0  0  0  0  0  0  0  0
   -2.0901    2.2779   -3.3529 C   0  0  0  0  0  0  0  0  0  0  0  0
   -2.7424    0.7949   -0.4369 H   0  0  0  0  0  0  0  0  0  0  0  0
   -3.7230    2.6816   -1.9993 H   0  0  0  0  0  0  0  0  0  0  0  0
   -1.4086    1.4621   -3.6202 H   0  0  0  0  0  0  0  0  0  0  0  0
   -2.6295    2.5686   -4.2604 H   0  0  0  0  0  0  0  0  0  0  0  0
   -1.4800    3.1288   -3.0314 H   0  0  0  0  0  0  0  0  0  0  0  0
   -4.9095    0.9952   -3.5340 N   0  0  0  0  0  0  0  0  0  0  0  0
   -5.8232    0.0241   -4.0892 C   0  0  0  0  0  0  0  0  0  0  0  0
   -5.0671    1.9742   -3.7540 H   0  0  0  0  0  0  0  0  0  0  0  0
   -5.4505   -0.3134   -5.0675 H   0  0  0  0  0  0  0  0  0  0  0  0
   -5.9003   -0.8371   -3.4093 H   0  0  0  0  0  0  0  0  0  0  0  0
   -6.8151    0.4833   -4.2133 H   0  0  0  0  0  0  0  0  0  0  0  0
  1  3  1  0  0  0  0
  1  7  1  0  0  0  0
  1  2  2  0  0  0  0
 37 38  1  0  0  0  0
 38 46  1  0  0  0  0
 38 39  2  0  0  0  0
  8  9  1  0  0  0  0
  9 17  1  0  0  0  0
  9 10  2  0  0  0  0
 18 19  1  0  0  0  0
 19 36  1  0  0  0  0
 19 20  2  0  0  0  0
 22 24  1  0  0  0  0
 37 40  1  0  0  0  0
  8 11  1  0  0  0  0
 21 23  1  0  0  0  0
 46 47  1  0  0  0  0
 21 22  1  0  0  0  0
 36 37  1  0  0  0  0
  7  8  1  0  0  0  0
 18 21  1  0  0  0  0
 17 18  1  0  0  0  0
  3  4  1  0  0  0  0
  3  5  1  0  0  0  0
  3  6  1  0  0  0  0
 24 33  1  0  0  0  0
 24 34  1  0  0  0  0
 24 35  1  0  0  0  0
 40 43  1  0  0  0  0
 40 44  1  0  0  0  0
 40 45  1  0  0  0  0
 11 14  1  0  0  0  0
 11 15  1  0  0  0  0
 11 16  1  0  0  0  0
 23 30  1  0  0  0  0
 23 31  1  0  0  0  0
 23 32  1  0  0  0  0
 47 49  1  0  0  0  0
 47 50  1  0  0  0  0
 47 51  1  0  0  0  0
 22 28  1  0  0  0  0
 22 29  1  0  0  0  0
 37 42  1  0  0  0  0
  8 13  1  0  0  0  0
 18 26  1  0  0  0  0
 21 27  1  0  0  0  0
 46 48  1  0  0  0  0
  7 12  1  0  0  0  0
 36 41  1  0  0  0  0
 17 25  1  0  0  0  0
M  END
$$$$

  -OEChem-05262214473D

 51 50  0     1  0  0  0  0  0999 V2000
    1.3524   -3.0009    1.4091 C   0  0  0  0  0  0  0  0  0  0  0  0
    1.8758   -1.9880    0.9598 O   0  0  0  0  0  0  0  0  0  0  0  0
    2.2030   -4.1782    1.7536 C   0  0  0  0  0  0  0  0  0  0  0  0
    2.3264   -4.8705    0.9053 H   0  0  0  0  0  0  0  0  0  0  0  0
    3.2257   -3.8876    2.0432 H   0  0  0  0  0  0  0  0  0  0  0  0
    1.8327   -4.8004    2.5839 H   0  0  0  0  0  0  0  0  0  0  0  0
    0.0005   -3.1873    1.6465 N   0  0  0  0  0  0  0  0  0  0  0  0
   -0.9949   -2.1807    1.3864 C   0  0  2  0  0  0  0  0  0  0  0  0
   -0.3083   -0.8216    1.4164 C   0  0  0  0  0  0  0  0  0  0  0  0
    0.7533   -0.6191    2.0022 O   0  0  0  0  0  0  0  0  0  0  0  0
   -2.1232   -2.2423    2.4042 C   0  0  0  0  0  0  0  0  0  0  0  0
   -0.3048   -4.0823    2.0245 H   0  0  0  0  0  0  0  0  0  0  0  0
   -1.3830   -2.3724    0.3801 H   0  0  0  0  0  0  0  0  0  0  0  0
   -1.7534   -2.0527    3.4185 H   0  0  0  0  0  0  0  0  0  0  0  0
   -2.8936   -1.4947    2.1882 H   0  0  0  0  0  0  0  0  0  0  0  0
   -2.5964   -3.2301    2.4022 H   0  0  0  0  0  0  0  0  0  0  0  0
   -1.0412    0.1517    0.7482 N   0  0  0  0  0  0  0  0  0  0  0  0
   -0.6079    1.5223    0.6467 C   0  0  2  0  0  0  0  0  0  0  0  0
   -1.1448    2.0957   -0.6641 C   0  0  0  0  0  0  0  0  0  0  0  0
   -0.4506    2.7475   -1.4417 O   0  0  0  0  0  0  0  0  0  0  0  0
    0.9258    1.6828    0.7792 C   0  0  2  0  0  0  0  0  0  0  0  0
    1.4432    1.2333    2.1637 C   0  0  0  0  0  0  0  0  0  0  0  0
    1.3350    3.1276    0.4638 C   0  0  0  0  0  0  0  0  0  0  0  0
    2.9609    1.1259    2.2390 C   0  0  0  0  0  0  0  0  0  0  0  0
   -1.9022   -0.1128    0.2753 H   0  0  0  0  0  0  0  0  0  0  0  0
   -1.1072    2.0561    1.4654 H   0  0  0  0  0  0  0  0  0  0  0  0
    1.3996    1.0430    0.0226 H   0  0  0  0  0  0  0  0  0  0  0  0
    1.1230    1.9523    2.9265 H   0  0  0  0  0  0  0  0  0  0  0  0
    1.0086    0.2648    2.4383 H   0  0  0  0  0  0  0  0  0  0  0  0
    0.8938    3.8236    1.1854 H   0  0  0  0  0  0  0  0  0  0  0  0
    2.4206    3.2533    0.5206 H   0  0  0  0  0  0  0  0  0  0  0  0
    1.0118    3.4270   -0.5386 H   0  0  0  0  0  0  0  0  0  0  0  0
    3.3520    0.4205    1.5004 H   0  0  0  0  0  0  0  0  0  0  0  0
    3.2618    0.7663    3.2284 H   0  0  0  0  0  0  0  0  0  0  0  0
    3.4328    2.0998    2.0756 H   0  0  0  0  0  0  0  0  0  0  0  0
   -2.4759    1.7649   -0.8742 N   0  0  0  0  0  0  0  0  0  0  0  0
   -3.2169    2.1664   -2.0482 C   0  0  2  0  0  0  0  0  0  0  0  0
   -4.3221    1.1442   -2.2790 C   0  0  0  0  0  0  0  0  0  0  0  0
   -4.2770   -0.0032   -1.8402 O   0  0  0  0  0  0  0  0  0  0  0  0
   -2.3110    2.2717   -3.2651 C   0  0  0  0  0  0  0  0  0  0  0  0
   -2.9532    1.2130   -0.1676 H   0  0  0  0  0  0  0  0  0  0  0  0
   -3.6619    3.1417   -1.8230 H   0  0  0  0  0  0  0  0  0  0  0  0
   -1.8560    1.3040   -3.5061 H   0  0  0  0  0  0  0  0  0  0  0  0
   -2.8685    2.6035   -4.1472 H   0  0  0  0  0  0  0  0  0  0  0  0
   -1.4995    2.9852   -3.0863 H   0  0  0  0  0  0  0  0  0  0  0  0
   -5.3446    1.6506   -3.0691 N   0  0  0  0  0  0  0  0  0  0  0  0
   -6.5019    0.8706   -3.4409 C   0  0  0  0  0  0  0  0  0  0  0  0
   -5.3082    2.6191   -3.3731 H   0  0  0  0  0  0  0  0  0  0  0  0
   -6.3188    0.3803   -4.4084 H   0  0  0  0  0  0  0  0  0  0  0  0
   -6.6910    0.1063   -2.6727 H   0  0  0  0  0  0  0  0  0  0  0  0
   -7.3776    1.5310   -3.5245 H   0  0  0  0  0  0  0  0  0  0  0  0
  1  3  1  0  0  0  0
  1  7  1  0  0  0  0
  1  2  2  0  0  0  0
 37 38  1  0  0  0  0
 38 46  1  0  0  0  0
 38 39  2  0  0  0  0
  8  9  1  0  0  0  0
  9 17  1  0  0  0  0
  9 10  2  0  0  0  0
 18 19  1  0  0  0  0
 19 36  1  0  0  0  0
 19 20  2  0  0  0  0
 22 24  1  0  0  0  0
 37 40  1  0  0  0  0
  8 11  1  0  0  0  0
 21 23  1  0  0  0  0
 46 47  1  0  0  0  0
 21 22  1  0  0  0  0
 36 37  1  0  0  0  0
  7  8  1  0  0  0  0
 18 21  1  0  0  0  0
 17 18  1  0  0  0  0
  3  4  1  0  0  0  0
  3  5  1  0  0  0  0
  3  6  1  0  0  0  0
 24 33  1  0  0  0  0
 24 34  1  0  0  0  0
 24 35  1  0  0  0  0
 40 43  1  0  0  0  0
 40 44  1  0  0  0  0
 40 45  1  0  0  0  0
 11 14  1  0  0  0  0
 11 15  1  0  0  0  0
 11 16  1  0  0  0  0
 23 30  1  0  0  0  0
 23 31  1  0  0  0  0
 23 32  1  0  0  0  0
 47 49  1  0  0  0  0
 47 50  1  0  0  0  0
 47 51  1  0  0  0  0
 22 28  1  0  0  0  0
 22 29  1  0  0  0  0
 37 42  1  0  0  0  0
  8 13  1  0  0  0  0
 18 26  1  0  0  0  0
 21 27  1  0  0  0  0
 46 48  1  0  0  0  0
  7 12  1  0  0  0  0
 36 41  1  0  0  0  0
 17 25  1  0  0  0  0
M  END
$$$$

  -OEChem-05262214473D

 51 50  0     1  0  0  0  0  0999 V2000
    1.3524   -3.0009    1.4091 C   0  0  0  0  0  0  0  0  0  0  0  0
    1.8758   -1.9880    0.9598 O   0  0  0  0  0  0  0  0  0  0  0  0
    2.2030   -4.1782    1.7536 C   0  0  0  0  0  0  0  0  0  0  0  0
    2.3264   -4.8705    0.9053 H   0  0  0  0  0  0  0  0  0  0  0  0
    3.2257   -3.8876    2.0432 H   0  0  0  0  0  0  0  0  0  0  0  0
    1.8327   -4.8004    2.5839 H   0  0  0  0  0  0  0  0  0  0  0  0
    0.0005   -3.1873    1.6465 N   0  0  0  0  0  0  0  0  0  0  0  0
   -0.9949   -2.1807    1.3864 C   0  0  2  0  0  0  0  0  0  0  0  0
   -0.3083   -0.8216    1.4164 C   0  0  0  0  0  0  0  0  0  0  0  0
    0.7533   -0.6191    2.0022 O   0  0  0  0  0  0  0  0  0  0  0  0
   -2.1232   -2.2423    2.4042 C   0  0  0  0  0  0  0  0  0  0  0  0
   -0.3048   -4.0823    2.0245 H   0  0  0  0  0  0  0  0  0  0  0  0
   -1.3830   -2.3724    0.3801 H   0  0  0  0  0  0  0  0  0  0  0  0
   -1.7534   -2.0527    3.4185 H   0  0  0  0  0  0  0  0  0  0  0  0
   -2.8936   -1.4947    2.1882 H   0  0  0  0  0  0  0  0  0  0  0  0
   -2.5964   -3.2301    2.4022 H   0  0  0  0  0  0  0  0  0  0  0  0
   -1.0412    0.1517    0.7482 N   0  0  0  0  0  0  0  0  0  0  0  0
   -0.6079    1.5223    0.6467 C   0  0  2  0  0  0  0  0  0  0  0  0
   -1.1448    2.0957   -0.6641 C   0  0  0  0  0  0  0  0  0  0  0  0
   -0.4131    2.5090   -1.5614 O   0  0  0  0  0  0  0  0  0  0  0  0
    0.9258    1.6828    0.7792 C   0  0  2  0  0  0  0  0  0  0  0  0
    1.4432    1.2333    2.1637 C   0  0  0  0  0  0  0  0  0  0  0  0
    1.3350    3.1276    0.4638 C   0  0  0  0  0  0  0  0  0  0  0  0
    2.9609    1.1259    2.2390 C   0  0  0  0  0  0  0  0  0  0  0  0
   -1.9022   -0.1128    0.2753 H   0  0  0  0  0  0  0  0  0  0  0  0
   -1.1072    2.0561    1.4654 H   0  0  0  0  0  0  0  0  0  0  0  0
    1.3996    1.0430    0.0226 H   0  0  0  0  0  0  0  0  0  0  0  0
    1.1230    1.9523    2.9265 H   0  0  0  0  0  0  0  0  0  0  0  0
    1.0086    0.2648    2.4383 H   0  0  0  0  0  0  0  0  0  0  0  0
    0.8938    3.8236    1.1854 H   0  0  0  0  0  0  0  0  0  0  0  0
    2.4206    3.2533    0.5206 H   0  0  0  0  0  0  0  0  0  0  0  0
    1.0118    3.4270   -0.5386 H   0  0  0  0  0  0  0  0  0  0  0  0
    3.3520    0.4205    1.5004 H   0  0  0  0  0  0  0  0  0  0  0  0
    3.2618    0.7663    3.2284 H   0  0  0  0  0  0  0  0  0  0  0  0
    3.4328    2.0998    2.0756 H   0  0  0  0  0  0  0  0  0  0  0  0
   -2.5307    2.0592   -0.7230 N   0  0  0  0  0  0  0  0  0  0  0  0
   -3.2883    2.5230   -1.8629 C   0  0  2  0  0  0  0  0  0  0  0  0
   -4.6076    1.7626   -1.8916 C   0  0  0  0  0  0  0  0  0  0  0  0
   -4.7663    0.6737   -1.3437 O   0  0  0  0  0  0  0  0  0  0  0  0
   -2.5173    2.3227   -3.1583 C   0  0  0  0  0  0  0  0  0  0  0  0
   -3.0379    1.6881    0.0749 H   0  0  0  0  0  0  0  0  0  0  0  0
   -3.4837    3.5885   -1.7005 H   0  0  0  0  0  0  0  0  0  0  0  0
   -2.3122    1.2610   -3.3380 H   0  0  0  0  0  0  0  0  0  0  0  0
   -3.0806    2.7006   -4.0179 H   0  0  0  0  0  0  0  0  0  0  0  0
   -1.5555    2.8458   -3.1243 H   0  0  0  0  0  0  0  0  0  0  0  0
   -5.5742    2.4226   -2.6373 N   0  0  0  0  0  0  0  0  0  0  0  0
   -6.9065    1.8978   -2.8258 C   0  0  0  0  0  0  0  0  0  0  0  0
   -5.3609    3.3302   -3.0405 H   0  0  0  0  0  0  0  0  0  0  0  0
   -6.9395    1.3030   -3.7506 H   0  0  0  0  0  0  0  0  0  0  0  0
   -7.1738    1.2602   -1.9702 H   0  0  0  0  0  0  0  0  0  0  0  0
   -7.6214    2.7305   -2.8999 H   0  0  0  0  0  0  0  0  0  0  0  0
  1  3  1  0  0  0  0
  1  7  1  0  0  0  0
  1  2  2  0  0  0  0
 37 38  1  0  0  0  0
 38 46  1  0  0  0  0
 38 39  2  0  0  0  0
  8  9  1  0  0  0  0
  9 17  1  0  0  0  0
  9 10  2  0  0  0  0
 18 19  1  0  0  0  0
 19 36  1  0  0  0  0
 19 20  2  0  0  0  0
 22 24  1  0  0  0  0
 37 40  1  0  0  0  0
  8 11  1  0  0  0  0
 21 23  1  0  0  0  0
 46 47  1  0  0  0  0
 21 22  1  0  0  0  0
 36 37  1  0  0  0  0
  7  8  1  0  0  0  0
 18 21  1  0  0  0  0
 17 18  1  0  0  0  0
  3  4  1  0  0  0  0
  3  5  1  0  0  0  0
  3  6  1  0  0  0  0
 24 33  1  0  0  0  0
 24 34  1  0  0  0  0
 24 35  1  0  0  0  0
 40 43  1  0  0  0  0
 40 44  1  0  0  0  0
 40 45  1  0  0  0  0
 11 14  1  0  0  0  0
 11 15  1  0  0  0  0
 11 16  1  0  0  0  0
 23 30  1  0  0  0  0
 23 31  1  0  0  0  0
 23 32  1  0  0  0  0
 47 49  1  0  0  0  0
 47 50  1  0  0  0  0
 47 51  1  0  0  0  0
 22 28  1  0  0  0  0
 22 29  1  0  0  0  0
 37 42  1  0  0  0  0
  8 13  1  0  0  0  0
 18 26  1  0  0  0  0
 21 27  1  0  0  0  0
 46 48  1  0  0  0  0
  7 12  1  0  0  0  0
 36 41  1  0  0  0  0
 17 25  1  0  0  0  0
M  END
$$$$

  -OEChem-05262214473D

 51 50  0     1  0  0  0  0  0999 V2000
    1.3524   -3.0009    1.4091 C   0  0  0  0  0  0  0  0  0  0  0  0
    1.8758   -1.9880    0.9598 O   0  0  0  0  0  0  0  0  0  0  0  0
    2.2030   -4.1782    1.7536 C   0  0  0  0  0  0  0  0  0  0  0  0
    2.3264   -4.8705    0.9053 H   0  0  0  0  0  0  0  0  0  0  0  0
    3.2257   -3.8876    2.0432 H   0  0  0  0  0  0  0  0  0  0  0  0
    1.8327   -4.8004    2.5839 H   0  0  0  0  0  0  0  0  0  0  0  0
    0.0005   -3.1873    1.6465 N   0  0  0  0  0  0  0  0  0  0  0  0
   -0.9949   -2.1807    1.3864 C   0  0  2  0  0  0  0  0  0  0  0  0
   -0.3083   -0.8216    1.4164 C   0  0  0  0  0  0  0  0  0  0  0  0
    0.7533   -0.6191    2.0022 O   0  0  0  0  0  0  0  0  0  0  0  0
   -2.1232   -2.2423    2.4042 C   0  0  0  0  0  0  0  0  0  0  0  0
   -0.3048   -4.0823    2.0245 H   0  0  0  0  0  0  0  0  0  0  0  0
   -1.3830   -2.3724    0.3801 H   0  0  0  0  0  0  0  0  0  0  0  0
   -1.7534   -2.0527    3.4185 H   0  0  0  0  0  0  0  0  0  0  0  0
   -2.8936   -1.4947    2.1882 H   0  0  0  0  0  0  0  0  0  0  0  0
   -2.5964   -3.2301    2.4022 H   0  0  0  0  0  0  0  0  0  0  0  0
   -1.0412    0.1517    0.7482 N   0  0  0  0  0  0  0  0  0  0  0  0
   -0.6079    1.5223    0.6467 C   0  0  2  0  0  0  0  0  0  0  0  0
   -1.1448    2.0957   -0.6641 C   0  0  0  0  0  0  0  0  0  0  0  0
   -0.4414    2.2594   -1.6590 O   0  0  0  0  0  0  0  0  0  0  0  0
    0.9258    1.6828    0.7792 C   0  0  2  0  0  0  0  0  0  0  0  0
    1.4432    1.2333    2.1637 C   0  0  0  0  0  0  0  0  0  0  0  0
    1.3350    3.1276    0.4638 C   0  0  0  0  0  0  0  0  0  0  0  0
    2.9609    1.1259    2.2390 C   0  0  0  0  0  0  0  0  0  0  0  0
   -1.9022   -0.1128    0.2753 H   0  0  0  0  0  0  0  0  0  0  0  0
   -1.1072    2.0561    1.4654 H   0  0  0  0  0  0  0  0  0  0  0  0
    1.3996    1.0430    0.0226 H   0  0  0  0  0  0  0  0  0  0  0  0
    1.1230    1.9523    2.9265 H   0  0  0  0  0  0  0  0  0  0  0  0
    1.0086    0.2648    2.4383 H   0  0  0  0  0  0  0  0  0  0  0  0
    0.8938    3.8236    1.1854 H   0  0  0  0  0  0  0  0  0  0  0  0
    2.4206    3.2533    0.5206 H   0  0  0  0  0  0  0  0  0  0  0  0
    1.0118    3.4270   -0.5386 H   0  0  0  0  0  0  0  0  0  0  0  0
    3.3520    0.4205    1.5004 H   0  0  0  0  0  0  0  0  0  0  0  0
    3.2618    0.7663    3.2284 H   0  0  0  0  0  0  0  0  0  0  0  0
    3.4328    2.0998    2.0756 H   0  0  0  0  0  0  0  0  0  0  0  0
   -2.5035    2.3695   -0.5983 N   0  0  0  0  0  0  0  0  0  0  0  0
   -3.2601    2.9001   -1.7095 C   0  0  2  0  0  0  0  0  0  0  0  0
   -4.7084    2.4585   -1.5459 C   0  0  0  0  0  0  0  0  0  0  0  0
   -5.0404    1.4813   -0.8782 O   0  0  0  0  0  0  0  0  0  0  0  0
   -2.6947    2.4275   -3.0398 C   0  0  0  0  0  0  0  0  0  0  0  0
   -2.9907    2.1879    0.2742 H   0  0  0  0  0  0  0  0  0  0  0  0
   -3.2004    3.9917   -1.6402 H   0  0  0  0  0  0  0  0  0  0  0  0
   -2.7460    1.3361   -3.1275 H   0  0  0  0  0  0  0  0  0  0  0  0
   -3.2514    2.8532   -3.8812 H   0  0  0  0  0  0  0  0  0  0  0  0
   -1.6443    2.7202   -3.1429 H   0  0  0  0  0  0  0  0  0  0  0  0
   -5.5827    3.2585   -2.2682 N   0  0  0  0  0  0  0  0  0  0  0  0
   -7.0096    3.0358   -2.2858 C   0  0  0  0  0  0  0  0  0  0  0  0
   -5.2217    4.0590   -2.7787 H   0  0  0  0  0  0  0  0  0  0  0  0
   -7.2703    2.3920   -3.1387 H   0  0  0  0  0  0  0  0  0  0  0  0
   -7.3157    2.5458   -1.3497 H   0  0  0  0  0  0  0  0  0  0  0  0
   -7.5300    4.0001   -2.3820 H   0  0  0  0  0  0  0  0  0  0  0  0
  1  3  1  0  0  0  0
  1  7  1  0  0  0  0
  1  2  2  0  0  0  0
 37 38  1  0  0  0  0
 38 46  1  0  0  0  0
 38 39  2  0  0  0  0
  8  9  1  0  0  0  0
  9 17  1  0  0  0  0
  9 10  2  0  0  0  0
 18 19  1  0  0  0  0
 19 36  1  0  0  0  0
 19 20  2  0  0  0  0
 22 24  1  0  0  0  0
 37 40  1  0  0  0  0
  8 11  1  0  0  0  0
 21 23  1  0  0  0  0
 46 47  1  0  0  0  0
 21 22  1  0  0  0  0
 36 37  1  0  0  0  0
  7  8  1  0  0  0  0
 18 21  1  0  0  0  0
 17 18  1  0  0  0  0
  3  4  1  0  0  0  0
  3  5  1  0  0  0  0
  3  6  1  0  0  0  0
 24 33  1  0  0  0  0
 24 34  1  0  0  0  0
 24 35  1  0  0  0  0
 40 43  1  0  0  0  0
 40 44  1  0  0  0  0
 40 45  1  0  0  0  0
 11 14  1  0  0  0  0
 11 15  1  0  0  0  0
 11 16  1  0  0  0  0
 23 30  1  0  0  0  0
 23 31  1  0  0  0  0
 23 32  1  0  0  0  0
 47 49  1  0  0  0  0
 47 50  1  0  0  0  0
 47 51  1  0  0  0  0
 22 28  1  0  0  0  0
 22 29  1  0  0  0  0
 37 42  1  0  0  0  0
  8 13  1  0  0  0  0
 18 26  1  0  0  0  0
 21 27  1  0  0  0  0
 46 48  1  0  0  0  0
  7 12  1  0  0  0  0
 36 41  1  0  0  0  0
 17 25  1  0  0  0  0
M  END
$$$$

  -OEChem-05262214473D

 51 50  0     1  0  0  0  0  0999 V2000
    1.3524   -3.0009    1.4091 C   0  0  0  0  0  0  0  0  0  0  0  0
    1.8758   -1.9880    0.9598 O   0  0  0  0  0  0  0  0  0  0  0  0
    2.2030   -4.1782    1.7536 C   0  0  0  0  0  0  0  0  0  0  0  0
    2.3264   -4.8705    0.9053 H   0  0  0  0  0  0  0  0  0  0  0  0
    3.2257   -3.8876    2.0432 H   0  0  0  0  0  0  0  0  0  0  0  0
    1.8327   -4.8004    2.5839 H   0  0  0  0  0  0  0  0  0  0  0  0
    0.0005   -3.1873    1.6465 N   0  0  0  0  0  0  0  0  0  0  0  0
   -0.9949   -2.1807    1.3864 C   0  0  2  0  0  0  0  0  0  0  0  0
   -0.3083   -0.8216    1.4164 C   0  0  0  0  0  0  0  0  0  0  0  0
    0.7533   -0.6191    2.0022 O   0  0  0  0  0  0  0  0  0  0  0  0
   -2.1232   -2.2423    2.4042 C   0  0  0  0  0  0  0  0  0  0  0  0
   -0.3048   -4.0823    2.0245 H   0  0  0  0  0  0  0  0  0  0  0  0
   -1.3830   -2.3724    0.3801 H   0  0  0  0  0  0  0  0  0  0  0  0
   -1.7534   -2.0527    3.4185 H   0  0  0  0  0  0  0  0  0  0  0  0
   -2.8936   -1.4947    2.1882 H   0  0  0  0  0  0  0  0  0  0  0  0
   -2.5964   -3.2301    2.4022 H   0  0  0  0  0  0  0  0  0  0  0  0
   -1.0412    0.1517    0.7482 N   0  0  0  0  0  0  0  0  0  0  0  0
   -0.6079    1.5223    0.6467 C   0  0  2  0  0  0  0  0  0  0  0  0
   -1.1448    2.0957   -0.6641 C   0  0  0  0  0  0  0  0  0  0  0  0
   -0.5336    2.0158   -1.7278 O   0  0  0  0  0  0  0  0  0  0  0  0
    0.9258    1.6828    0.7792 C   0  0  2  0  0  0  0  0  0  0  0  0
    1.4432    1.2333    2.1637 C   0  0  0  0  0  0  0  0  0  0  0  0
    1.3350    3.1276    0.4638 C   0  0  0  0  0  0  0  0  0  0  0  0
    2.9609    1.1259    2.2390 C   0  0  0  0  0  0  0  0  0  0  0  0
   -1.9022   -0.1128    0.2753 H   0  0  0  0  0  0  0  0  0  0  0  0
   -1.1072    2.0561    1.4654 H   0  0  0  0  0  0  0  0  0  0  0  0
    1.3996    1.0430    0.0226 H   0  0  0  0  0  0  0  0  0  0  0  0
    1.1230    1.9523    2.9265 H   0  0  0  0  0  0  0  0  0  0  0  0
    1.0086    0.2648    2.4383 H   0  0  0  0  0  0  0  0  0  0  0  0
    0.8938    3.8236    1.1854 H   0  0  0  0  0  0  0  0  0  0  0  0
    2.4206    3.2533    0.5206 H   0  0  0  0  0  0  0  0  0  0  0  0
    1.0118    3.4270   -0.5386 H   0  0  0  0  0  0  0  0  0  0  0  0
    3.3520    0.4205    1.5004 H   0  0  0  0  0  0  0  0  0  0  0  0
    3.2618    0.7663    3.2284 H   0  0  0  0  0  0  0  0  0  0  0  0
    3.4328    2.0998    2.0756 H   0  0  0  0  0  0  0  0  0  0  0  0
   -2.3963    2.6745   -0.5088 N   0  0  0  0  0  0  0  0  0  0  0  0
   -3.1342    3.2721   -1.5983 C   0  0  2  0  0  0  0  0  0  0  0  0
   -4.6178    3.1846   -1.2654 C   0  0  0  0  0  0  0  0  0  0  0  0
   -5.0807    2.3645   -0.4753 O   0  0  0  0  0  0  0  0  0  0  0  0
   -2.8314    2.5789   -2.9176 C   0  0  0  0  0  0  0  0  0  0  0  0
   -2.8147    2.6783    0.4167 H   0  0  0  0  0  0  0  0  0  0  0  0
   -2.8314    4.3238   -1.6460 H   0  0  0  0  0  0  0  0  0  0  0  0
   -3.1280    1.5240   -2.8889 H   0  0  0  0  0  0  0  0  0  0  0  0
   -3.3692    3.0509   -3.7464 H   0  0  0  0  0  0  0  0  0  0  0  0
   -1.7597    2.6168   -3.1408 H   0  0  0  0  0  0  0  0  0  0  0  0
   -5.3695    4.1014   -1.9868 N   0  0  0  0  0  0  0  0  0  0  0  0
   -6.8041    4.2070   -1.8576 C   0  0  0  0  0  0  0  0  0  0  0  0
   -4.9000    4.7559   -2.6056 H   0  0  0  0  0  0  0  0  0  0  0  0
   -7.2886    3.5728   -2.6146 H   0  0  0  0  0  0  0  0  0  0  0  0
   -7.1071    3.8755   -0.8534 H   0  0  0  0  0  0  0  0  0  0  0  0
   -7.1095    5.2533   -2.0060 H   0  0  0  0  0  0  0  0  0  0  0  0
  1  3  1  0  0  0  0
  1  7  1  0  0  0  0
  1  2  2  0  0  0  0
 37 38  1  0  0  0  0
 38 46  1  0  0  0  0
 38 39  2  0  0  0  0
  8  9  1  0  0  0  0
  9 17  1  0  0  0  0
  9 10  2  0  0  0  0
 18 19  1  0  0  0  0
 19 36  1  0  0  0  0
 19 20  2  0  0  0  0
 22 24  1  0  0  0  0
 37 40  1  0  0  0  0
  8 11  1  0  0  0  0
 21 23  1  0  0  0  0
 46 47  1  0  0  0  0
 21 22  1  0  0  0  0
 36 37  1  0  0  0  0
  7  8  1  0  0  0  0
 18 21  1  0  0  0  0
 17 18  1  0  0  0  0
  3  4  1  0  0  0  0
  3  5  1  0  0  0  0
  3  6  1  0  0  0  0
 24 33  1  0  0  0  0
 24 34  1  0  0  0  0
 24 35  1  0  0  0  0
 40 43  1  0  0  0  0
 40 44  1  0  0  0  0
 40 45  1  0  0  0  0
 11 14  1  0  0  0  0
 11 15  1  0  0  0  0
 11 16  1  0  0  0  0
 23 30  1  0  0  0  0
 23 31  1  0  0  0  0
 23 32  1  0  0  0  0
 47 49  1  0  0  0  0
 47 50  1  0  0  0  0
 47 51  1  0  0  0  0
 22 28  1  0  0  0  0
 22 29  1  0  0  0  0
 37 42  1  0  0  0  0
  8 13  1  0  0  0  0
 18 26  1  0  0  0  0
 21 27  1  0  0  0  0
 46 48  1  0  0  0  0
  7 12  1  0  0  0  0
 36 41  1  0  0  0  0
 17 25  1  0  0  0  0
M  END
$$$$

  -OEChem-05262214473D

 51 50  0     1  0  0  0  0  0999 V2000
    1.3524   -3.0009    1.4091 C   0  0  0  0  0  0  0  0  0  0  0  0
    1.8758   -1.9880    0.9598 O   0  0  0  0  0  0  0  0  0  0  0  0
    2.2030   -4.1782    1.7536 C   0  0  0  0  0  0  0  0  0  0  0  0
    2.3264   -4.8705    0.9053 H   0  0  0  0  0  0  0  0  0  0  0  0
    3.2257   -3.8876    2.0432 H   0  0  0  0  0  0  0  0  0  0  0  0
    1.8327   -4.8004    2.5839 H   0  0  0  0  0  0  0  0  0  0  0  0
    0.0005   -3.1873    1.6465 N   0  0  0  0  0  0  0  0  0  0  0  0
   -0.9949   -2.1807    1.3864 C   0  0  2  0  0  0  0  0  0  0  0  0
   -0.3083   -0.8216    1.4164 C   0  0  0  0  0  0  0  0  0  0  0  0
    0.7533   -0.6191    2.0022 O   0  0  0  0  0  0  0  0  0  0  0  0
   -2.1232   -2.2423    2.4042 C   0  0  0  0  0  0  0  0  0  0  0  0
   -0.3048   -4.0823    2.0245 H   0  0  0  0  0  0  0  0  0  0  0  0
   -1.3830   -2.3724    0.3801 H   0  0  0  0  0  0  0  0  0  0  0  0
   -1.7534   -2.0527    3.4185 H   0  0  0  0  0  0  0  0  0  0  0  0
   -2.8936   -1.4947    2.1882 H   0  0  0  0  0  0  0  0  0  0  0  0
   -2.5964   -3.2301    2.4022 H   0  0  0  0  0  0  0  0  0  0  0  0
   -1.0412    0.1517    0.7482 N   0  0  0  0  0  0  0  0  0  0  0  0
   -0.6079    1.5223    0.6467 C   0  0  2  0  0  0  0  0  0  0  0  0
   -1.1448    2.0957   -0.6641 C   0  0  0  0  0  0  0  0  0  0  0  0
   -0.6835    1.7946   -1.7632 O   0  0  0  0  0  0  0  0  0  0  0  0
    0.9258    1.6828    0.7792 C   0  0  2  0  0  0  0  0  0  0  0  0
    1.4432    1.2333    2.1637 C   0  0  0  0  0  0  0  0  0  0  0  0
    1.3350    3.1276    0.4638 C   0  0  0  0  0  0  0  0  0  0  0  0
    2.9609    1.1259    2.2390 C   0  0  0  0  0  0  0  0  0  0  0  0
   -1.9022   -0.1128    0.2753 H   0  0  0  0  0  0  0  0  0  0  0  0
   -1.1072    2.0561    1.4654 H   0  0  0  0  0  0  0  0  0  0  0  0
    1.3996    1.0430    0.0226 H   0  0  0  0  0  0  0  0  0  0  0  0
    1.1230    1.9523    2.9265 H   0  0  0  0  0  0  0  0  0  0  0  0
    1.0086    0.2648    2.4383 H   0  0  0  0  0  0  0  0  0  0  0  0
    0.8938    3.8236    1.1854 H   0  0  0  0  0  0  0  0  0  0  0  0
    2.4206    3.2533    0.5206 H   0  0  0  0  0  0  0  0  0  0  0  0
    1.0118    3.4270   -0.5386 H   0  0  0  0  0  0  0  0  0  0  0  0
    3.3520    0.4205    1.5004 H   0  0  0  0  0  0  0  0  0  0  0  0
    3.2618    0.7663    3.2284 H   0  0  0  0  0  0  0  0  0  0  0  0
    3.4328    2.0998    2.0756 H   0  0  0  0  0  0  0  0  0  0  0  0
   -2.2164    2.9534   -0.4605 N   0  0  0  0  0  0  0  0  0  0  0  0
   -2.9192    3.6135   -1.5370 C   0  0  2  0  0  0  0  0  0  0  0  0
   -4.3418    3.8913   -1.0693 C   0  0  0  0  0  0  0  0  0  0  0  0
   -4.8844    3.2632   -0.1625 O   0  0  0  0  0  0  0  0  0  0  0  0
   -2.9179    2.7666   -2.8001 C   0  0  0  0  0  0  0  0  0  0  0  0
   -2.5221    3.1259    0.4926 H   0  0  0  0  0  0  0  0  0  0  0  0
   -2.4019    4.5621   -1.7177 H   0  0  0  0  0  0  0  0  0  0  0  0
   -3.4320    1.8121   -2.6383 H   0  0  0  0  0  0  0  0  0  0  0  0
   -3.4260    3.2803   -3.6228 H   0  0  0  0  0  0  0  0  0  0  0  0
   -1.8940    2.5428   -3.1182 H   0  0  0  0  0  0  0  0  0  0  0  0
   -4.9491    4.8939   -1.8123 N   0  0  0  0  0  0  0  0  0  0  0  0
   -6.3040    5.3316   -1.5704 C   0  0  0  0  0  0  0  0  0  0  0  0
   -4.4177    5.3733   -2.5331 H   0  0  0  0  0  0  0  0  0  0  0  0
   -6.9933    4.7652   -2.2140 H   0  0  0  0  0  0  0  0  0  0  0  0
   -6.5622    5.1587   -0.5152 H   0  0  0  0  0  0  0  0  0  0  0  0
   -6.3887    6.4046   -1.7976 H   0  0  0  0  0  0  0  0  0  0  0  0
  1  3  1  0  0  0  0
  1  7  1  0  0  0  0
  1  2  2  0  0  0  0
 37 38  1  0  0  0  0
 38 46  1  0  0  0  0
 38 39  2  0  0  0  0
  8  9  1  0  0  0  0
  9 17  1  0  0  0  0
  9 10  2  0  0  0  0
 18 19  1  0  0  0  0
 19 36  1  0  0  0  0
 19 20  2  0  0  0  0
 22 24  1  0  0  0  0
 37 40  1  0  0  0  0
  8 11  1  0  0  0  0
 21 23  1  0  0  0  0
 46 47  1  0  0  0  0
 21 22  1  0  0  0  0
 36 37  1  0  0  0  0
  7  8  1  0  0  0  0
 18 21  1  0  0  0  0
 17 18  1  0  0  0  0
  3  4  1  0  0  0  0
  3  5  1  0  0  0  0
  3  6  1  0  0  0  0
 24 33  1  0  0  0  0
 24 34  1  0  0  0  0
 24 35  1  0  0  0  0
 40 43  1  0  0  0  0
 40 44  1  0  0  0  0
 40 45  1  0  0  0  0
 11 14  1  0  0  0  0
 11 15  1  0  0  0  0
 11 16  1  0  0  0  0
 23 30  1  0  0  0  0
 23 31  1  0  0  0  0
 23 32  1  0  0  0  0
 47 49  1  0  0  0  0
 47 50  1  0  0  0  0
 47 51  1  0  0  0  0
 22 28  1  0  0  0  0
 22 29  1  0  0  0  0
 37 42  1  0  0  0  0
  8 13  1  0  0  0  0
 18 26  1  0  0  0  0
 21 27  1  0  0  0  0
 46 48  1  0  0  0  0
  7 12  1  0  0  0  0
 36 41  1  0  0  0  0
 17 25  1  0  0  0  0
M  END
$$$$

  -OEChem-05262214473D

 51 50  0     1  0  0  0  0  0999 V2000
    1.3524   -3.0009    1.4091 C   0  0  0  0  0  0  0  0  0  0  0  0
    1.8758   -1.9880    0.9598 O   0  0  0  0  0  0  0  0  0  0  0  0
    2.2030   -4.1782    1.7536 C   0  0  0  0  0  0  0  0  0  0  0  0
    2.3264   -4.8705    0.9053 H   0  0  0  0  0  0  0  0  0  0  0  0
    3.2257   -3.8876    2.0432 H   0  0  0  0  0  0  0  0  0  0  0  0
    1.8327   -4.8004    2.5839 H   0  0  0  0  0  0  0  0  0  0  0  0
    0.0005   -3.1873    1.6465 N   0  0  0  0  0  0  0  0  0  0  0  0
   -0.9949   -2.1807    1.3864 C   0  0  2  0  0  0  0  0  0  0  0  0
   -0.3083   -0.8216    1.4164 C   0  0  0  0  0  0  0  0  0  0  0  0
    0.7533   -0.6191    2.0022 O   0  0  0  0  0  0  0  0  0  0  0  0
   -2.1232   -2.2423    2.4042 C   0  0  0  0  0  0  0  0  0  0  0  0
   -0.3048   -4.0823    2.0245 H   0  0  0  0  0  0  0  0  0  0  0  0
   -1.3830   -2.3724    0.3801 H   0  0  0  0  0  0  0  0  0  0  0  0
   -1.7534   -2.0527    3.4185 H   0  0  0  0  0  0  0  0  0  0  0  0
   -2.8936   -1.4947    2.1882 H   0  0  0  0  0  0  0  0  0  0  0  0
   -2.5964   -3.2301    2.4022 H   0  0  0  0  0  0  0  0  0  0  0  0
   -1.0412    0.1517    0.7482 N   0  0  0  0  0  0  0  0  0  0  0  0
   -0.6079    1.5223    0.6467 C   0  0  2  0  0  0  0  0  0  0  0  0
   -1.1448    2.0957   -0.6641 C   0  0  0  0  0  0  0  0  0  0  0  0
   -0.8808    1.6111   -1.7626 O   0  0  0  0  0  0  0  0  0  0  0  0
    0.9258    1.6828    0.7792 C   0  0  2  0  0  0  0  0  0  0  0  0
    1.4432    1.2333    2.1637 C   0  0  0  0  0  0  0  0  0  0  0  0
    1.3350    3.1276    0.4638 C   0  0  0  0  0  0  0  0  0  0  0  0
    2.9609    1.1259    2.2390 C   0  0  0  0  0  0  0  0  0  0  0  0
   -1.9022   -0.1128    0.2753 H   0  0  0  0  0  0  0  0  0  0  0  0
   -1.1072    2.0561    1.4654 H   0  0  0  0  0  0  0  0  0  0  0  0
    1.3996    1.0430    0.0226 H   0  0  0  0  0  0  0  0  0  0  0  0
    1.1230    1.9523    2.9265 H   0  0  0  0  0  0  0  0  0  0  0  0
    1.0086    0.2648    2.4383 H   0  0  0  0  0  0  0  0  0  0  0  0
    0.8938    3.8236    1.1854 H   0  0  0  0  0  0  0  0  0  0  0  0
    2.4206    3.2533    0.5206 H   0  0  0  0  0  0  0  0  0  0  0  0
    1.0118    3.4270   -0.5386 H   0  0  0  0  0  0  0  0  0  0  0  0
    3.3520    0.4205    1.5004 H   0  0  0  0  0  0  0  0  0  0  0  0
    3.2618    0.7663    3.2284 H   0  0  0  0  0  0  0  0  0  0  0  0
    3.4328    2.0998    2.0756 H   0  0  0  0  0  0  0  0  0  0  0  0
   -1.9760    3.1873   -0.4567 N   0  0  0  0  0  0  0  0  0  0  0  0
   -2.6298    3.9012   -1.5297 C   0  0  2  0  0  0  0  0  0  0  0  0
   -3.8993    4.5304   -0.9709 C   0  0  0  0  0  0  0  0  0  0  0  0
   -4.4649    4.1162    0.0388 O   0  0  0  0  0  0  0  0  0  0  0  0
   -2.9484    2.9778   -2.6952 C   0  0  0  0  0  0  0  0  0  0  0  0
   -2.1326    3.5002    0.4969 H   0  0  0  0  0  0  0  0  0  0  0  0
   -1.9410    4.6904   -1.8504 H   0  0  0  0  0  0  0  0  0  0  0  0
   -3.6374    2.1806   -2.3930 H   0  0  0  0  0  0  0  0  0  0  0  0
   -3.4179    3.5258   -3.5187 H   0  0  0  0  0  0  0  0  0  0  0  0
   -2.0379    2.5032   -3.0766 H   0  0  0  0  0  0  0  0  0  0  0  0
   -4.3501    5.5818   -1.7567 N   0  0  0  0  0  0  0  0  0  0  0  0
   -5.5434    6.3330   -1.4439 C   0  0  0  0  0  0  0  0  0  0  0  0
   -3.8077    5.8692   -2.5659 H   0  0  0  0  0  0  0  0  0  0  0  0
   -6.4044    5.8878   -1.9641 H   0  0  0  0  0  0  0  0  0  0  0  0
   -5.7182    6.3080   -0.3582 H   0  0  0  0  0  0  0  0  0  0  0  0
   -5.4165    7.3755   -1.7710 H   0  0  0  0  0  0  0  0  0  0  0  0
  1  3  1  0  0  0  0
  1  7  1  0  0  0  0
  1  2  2  0  0  0  0
 37 38  1  0  0  0  0
 38 46  1  0  0  0  0
 38 39  2  0  0  0  0
  8  9  1  0  0  0  0
  9 17  1  0  0  0  0
  9 10  2  0  0  0  0
 18 19  1  0  0  0  0
 19 36  1  0  0  0  0
 19 20  2  0  0  0  0
 22 24  1  0  0  0  0
 37 40  1  0  0  0  0
  8 11  1  0  0  0  0
 21 23  1  0  0  0  0
 46 47  1  0  0  0  0
 21 22  1  0  0  0  0
 36 37  1  0  0  0  0
  7  8  1  0  0  0  0
 18 21  1  0  0  0  0
 17 18  1  0  0  0  0
  3  4  1  0  0  0  0
  3  5  1  0  0  0  0
  3  6  1  0  0  0  0
 24 33  1  0  0  0  0
 24 34  1  0  0  0  0
 24 35  1  0  0  0  0
 40 43  1  0  0  0  0
 40 44  1  0  0  0  0
 40 45  1  0  0  0  0
 11 14  1  0  0  0  0
 11 15  1  0  0  0  0
 11 16  1  0  0  0  0
 23 30  1  0  0  0  0
 23 31  1  0  0  0  0
 23 32  1  0  0  0  0
 47 49  1  0  0  0  0
 47 50  1  0  0  0  0
 47 51  1  0  0  0  0
 22 28  1  0  0  0  0
 22 29  1  0  0  0  0
 37 42  1  0  0  0  0
  8 13  1  0  0  0  0
 18 26  1  0  0  0  0
 21 27  1  0  0  0  0
 46 48  1  0  0  0  0
  7 12  1  0  0  0  0
 36 41  1  0  0  0  0
 17 25  1  0  0  0  0
M  END
$$$$

  -OEChem-05262214473D

 51 50  0     1  0  0  0  0  0999 V2000
    1.3524   -3.0009    1.4091 C   0  0  0  0  0  0  0  0  0  0  0  0
    1.8758   -1.9880    0.9598 O   0  0  0  0  0  0  0  0  0  0  0  0
    2.2030   -4.1782    1.7536 C   0  0  0  0  0  0  0  0  0  0  0  0
    2.3264   -4.8705    0.9053 H   0  0  0  0  0  0  0  0  0  0  0  0
    3.2257   -3.8876    2.0432 H   0  0  0  0  0  0  0  0  0  0  0  0
    1.8327   -4.8004    2.5839 H   0  0  0  0  0  0  0  0  0  0  0  0
    0.0005   -3.1873    1.6465 N   0  0  0  0  0  0  0  0  0  0  0  0
   -0.9949   -2.1807    1.3864 C   0  0  2  0  0  0  0  0  0  0  0  0
   -0.3083   -0.8216    1.4164 C   0  0  0  0  0  0  0  0  0  0  0  0
    0.7533   -0.6191    2.0022 O   0  0  0  0  0  0  0  0  0  0  0  0
   -2.1232   -2.2423    2.4042 C   0  0  0  0  0  0  0  0  0  0  0  0
   -0.3048   -4.0823    2.0245 H   0  0  0  0  0  0  0  0  0  0  0  0
   -1.3830   -2.3724    0.3801 H   0  0  0  0  0  0  0  0  0  0  0  0
   -1.7534   -2.0527    3.4185 H   0  0  0  0  0  0  0  0  0  0  0  0
   -2.8936   -1.4947    2.1882 H   0  0  0  0  0  0  0  0  0  0  0  0
   -2.5964   -3.2301    2.4022 H   0  0  0  0  0  0  0  0  0  0  0  0
   -1.0412    0.1517    0.7482 N   0  0  0  0  0  0  0  0  0  0  0  0
   -0.6079    1.5223    0.6467 C   0  0  2  0  0  0  0  0  0  0  0  0
   -1.1448    2.0957   -0.6641 C   0  0  0  0  0  0  0  0  0  0  0  0
   -1.1121    1.4777   -1.7263 O   0  0  0  0  0  0  0  0  0  0  0  0
    0.9258    1.6828    0.7792 C   0  0  2  0  0  0  0  0  0  0  0  0
    1.4432    1.2333    2.1637 C   0  0  0  0  0  0  0  0  0  0  0  0
    1.3350    3.1276    0.4638 C   0  0  0  0  0  0  0  0  0  0  0  0
    2.9609    1.1259    2.2390 C   0  0  0  0  0  0  0  0  0  0  0  0
   -1.9022   -0.1128    0.2753 H   0  0  0  0  0  0  0  0  0  0  0  0
   -1.1072    2.0561    1.4654 H   0  0  0  0  0  0  0  0  0  0  0  0
    1.3996    1.0430    0.0226 H   0  0  0  0  0  0  0  0  0  0  0  0
    1.1230    1.9523    2.9265 H   0  0  0  0  0  0  0  0  0  0  0  0
    1.0086    0.2648    2.4383 H   0  0  0  0  0  0  0  0  0  0  0  0
    0.8938    3.8236    1.1854 H   0  0  0  0  0  0  0  0  0  0  0  0
    2.4206    3.2533    0.5206 H   0  0  0  0  0  0  0  0  0  0  0  0
    1.0118    3.4270   -0.5386 H   0  0  0  0  0  0  0  0  0  0  0  0
    3.3520    0.4205    1.5004 H   0  0  0  0  0  0  0  0  0  0  0  0
    3.2618    0.7663    3.2284 H   0  0  0  0  0  0  0  0  0  0  0  0
    3.4328    2.0998    2.0756 H   0  0  0  0  0  0  0  0  0  0  0  0
   -1.6914    3.3602   -0.4976 N   0  0  0  0  0  0  0  0  0  0  0  0
   -2.2857    4.1155   -1.5769 C   0  0  2  0  0  0  0  0  0  0  0  0
   -3.3204    5.0585   -0.9770 C   0  0  0  0  0  0  0  0  0  0  0  0
   -3.8508    4.8652    0.1149 O   0  0  0  0  0  0  0  0  0  0  0  0
   -2.9208    3.1981   -2.6101 C   0  0  0  0  0  0  0  0  0  0  0  0
   -1.6730    3.7757    0.4291 H   0  0  0  0  0  0  0  0  0  0  0  0
   -1.4803    4.6999   -2.0349 H   0  0  0  0  0  0  0  0  0  0  0  0
   -3.7302    2.6044   -2.1696 H   0  0  0  0  0  0  0  0  0  0  0  0
   -3.3456    3.7705   -3.4413 H   0  0  0  0  0  0  0  0  0  0  0  0
   -2.1817    2.5007   -3.0188 H   0  0  0  0  0  0  0  0  0  0  0  0
   -3.6135    6.1184   -1.8237 N   0  0  0  0  0  0  0  0  0  0  0  0
   -4.5741    7.1429   -1.4866 C   0  0  0  0  0  0  0  0  0  0  0  0
   -3.1116    6.2098   -2.7020 H   0  0  0  0  0  0  0  0  0  0  0  0
   -5.5621    6.8642   -1.8820 H   0  0  0  0  0  0  0  0  0  0  0  0
   -4.6325    7.2450   -0.3929 H   0  0  0  0  0  0  0  0  0  0  0  0
   -4.2594    8.1000   -1.9280 H   0  0  0  0  0  0  0  0  0  0  0  0
  1  3  1  0  0  0  0
  1  7  1  0  0  0  0
  1  2  2  0  0  0  0
 37 38  1  0  0  0  0
 38 46  1  0  0  0  0
 38 39  2  0  0  0  0
  8  9  1  0  0  0  0
  9 17  1  0  0  0  0
  9 10  2  0  0  0  0
 18 19  1  0  0  0  0
 19 36  1  0  0  0  0
 19 20  2  0  0  0  0
 22 24  1  0  0  0  0
 37 40  1  0  0  0  0
  8 11  1  0  0  0  0
 21 23  1  0  0  0  0
 46 47  1  0  0  0  0
 21 22  1  0  0  0  0
 36 37  1  0  0  0  0
  7  8  1  0  0  0  0
 18 21  1  0  0  0  0
 17 18  1  0  0  0  0
  3  4  1  0  0  0  0
  3  5  1  0  0  0  0
  3  6  1  0  0  0  0
 24 33  1  0  0  0  0
 24 34  1  0  0  0  0
 24 35  1  0  0  0  0
 40 43  1  0  0  0  0
 40 44  1  0  0  0  0
 40 45  1  0  0  0  0
 11 14  1  0  0  0  0
 11 15  1  0  0  0  0
 11 16  1  0  0  0  0
 23 30  1  0  0  0  0
 23 31  1  0  0  0  0
 23 32  1  0  0  0  0
 47 49  1  0  0  0  0
 47 50  1  0  0  0  0
 47 51  1  0  0  0  0
 22 28  1  0  0  0  0
 22 29  1  0  0  0  0
 37 42  1  0  0  0  0
  8 13  1  0  0  0  0
 18 26  1  0  0  0  0
 21 27  1  0  0  0  0
 46 48  1  0  0  0  0
  7 12  1  0  0  0  0
 36 41  1  0  0  0  0
 17 25  1  0  0  0  0
M  END
$$$$

  -OEChem-05262214473D

 51 50  0     1  0  0  0  0  0999 V2000
    1.3524   -3.0009    1.4091 C   0  0  0  0  0  0  0  0  0  0  0  0
    1.8758   -1.9880    0.9598 O   0  0  0  0  0  0  0  0  0  0  0  0
    2.2030   -4.1782    1.7536 C   0  0  0  0  0  0  0  0  0  0  0  0
    2.3264   -4.8705    0.9053 H   0  0  0  0  0  0  0  0  0  0  0  0
    3.2257   -3.8876    2.0432 H   0  0  0  0  0  0  0  0  0  0  0  0
    1.8327   -4.8004    2.5839 H   0  0  0  0  0  0  0  0  0  0  0  0
    0.0005   -3.1873    1.6465 N   0  0  0  0  0  0  0  0  0  0  0  0
   -0.9949   -2.1807    1.3864 C   0  0  2  0  0  0  0  0  0  0  0  0
   -0.3083   -0.8216    1.4164 C   0  0  0  0  0  0  0  0  0  0  0  0
    0.7533   -0.6191    2.0022 O   0  0  0  0  0  0  0  0  0  0  0  0
   -2.1232   -2.2423    2.4042 C   0  0  0  0  0  0  0  0  0  0  0  0
   -0.3048   -4.0823    2.0245 H   0  0  0  0  0  0  0  0  0  0  0  0
   -1.3830   -2.3724    0.3801 H   0  0  0  0  0  0  0  0  0  0  0  0
   -1.7534   -2.0527    3.4185 H   0  0  0  0  0  0  0  0  0  0  0  0
   -2.8936   -1.4947    2.1882 H   0  0  0  0  0  0  0  0  0  0  0  0
   -2.5964   -3.2301    2.4022 H   0  0  0  0  0  0  0  0  0  0  0  0
   -1.0412    0.1517    0.7482 N   0  0  0  0  0  0  0  0  0  0  0  0
   -0.6079    1.5223    0.6467 C   0  0  2  0  0  0  0  0  0  0  0  0
   -1.1448    2.0957   -0.6641 C   0  0  0  0  0  0  0  0  0  0  0  0
   -1.3616    1.4034   -1.6566 O   0  0  0  0  0  0  0  0  0  0  0  0
    0.9258    1.6828    0.7792 C   0  0  2  0  0  0  0  0  0  0  0  0
    1.4432    1.2333    2.1637 C   0  0  0  0  0  0  0  0  0  0  0  0
    1.3350    3.1276    0.4638 C   0  0  0  0  0  0  0  0  0  0  0  0
    2.9609    1.1259    2.2390 C   0  0  0  0  0  0  0  0  0  0  0  0
   -1.9022   -0.1128    0.2753 H   0  0  0  0  0  0  0  0  0  0  0  0
   -1.1072    2.0561    1.4654 H   0  0  0  0  0  0  0  0  0  0  0  0
    1.3996    1.0430    0.0226 H   0  0  0  0  0  0  0  0  0  0  0  0
    1.1230    1.9523    2.9265 H   0  0  0  0  0  0  0  0  0  0  0  0
    1.0086    0.2648    2.4383 H   0  0  0  0  0  0  0  0  0  0  0  0
    0.8938    3.8236    1.1854 H   0  0  0  0  0  0  0  0  0  0  0  0
    2.4206    3.2533    0.5206 H   0  0  0  0  0  0  0  0  0  0  0  0
    1.0118    3.4270   -0.5386 H   0  0  0  0  0  0  0  0  0  0  0  0
    3.3520    0.4205    1.5004 H   0  0  0  0  0  0  0  0  0  0  0  0
    3.2618    0.7663    3.2284 H   0  0  0  0  0  0  0  0  0  0  0  0
    3.4328    2.0998    2.0756 H   0  0  0  0  0  0  0  0  0  0  0  0
   -1.3822    3.4603   -0.5804 N   0  0  0  0  0  0  0  0  0  0  0  0
   -1.9103    4.2418   -1.6754 C   0  0  2  0  0  0  0  0  0  0  0  0
   -2.6445    5.4395   -1.0871 C   0  0  0  0  0  0  0  0  0  0  0  0
   -3.0839    5.4593    0.0607 O   0  0  0  0  0  0  0  0  0  0  0  0
   -2.8370    3.4125   -2.5507 C   0  0  0  0  0  0  0  0  0  0  0  0
   -1.1744    3.9335    0.2939 H   0  0  0  0  0  0  0  0  0  0  0  0
   -1.0510    4.5900   -2.2588 H   0  0  0  0  0  0  0  0  0  0  0  0
   -3.7040    3.0547   -1.9833 H   0  0  0  0  0  0  0  0  0  0  0  0
   -3.2138    3.9979   -3.3958 H   0  0  0  0  0  0  0  0  0  0  0  0
   -2.3155    2.5354   -2.9488 H   0  0  0  0  0  0  0  0  0  0  0  0
   -2.7893    6.4671   -2.0087 N   0  0  0  0  0  0  0  0  0  0  0  0
   -3.4622    7.7061   -1.6956 C   0  0  0  0  0  0  0  0  0  0  0  0
   -2.3768    6.3719   -2.9321 H   0  0  0  0  0  0  0  0  0  0  0  0
   -4.5237    7.6277   -1.9732 H   0  0  0  0  0  0  0  0  0  0  0  0
   -3.3792    7.9059   -0.6171 H   0  0  0  0  0  0  0  0  0  0  0  0
   -2.9960    8.5286   -2.2579 H   0  0  0  0  0  0  0  0  0  0  0  0
  1  3  1  0  0  0  0
  1  7  1  0  0  0  0
  1  2  2  0  0  0  0
 37 38  1  0  0  0  0
 38 46  1  0  0  0  0
 38 39  2  0  0  0  0
  8  9  1  0  0  0  0
  9 17  1  0  0  0  0
  9 10  2  0  0  0  0
 18 19  1  0  0  0  0
 19 36  1  0  0  0  0
 19 20  2  0  0  0  0
 22 24  1  0  0  0  0
 37 40  1  0  0  0  0
  8 11  1  0  0  0  0
 21 23  1  0  0  0  0
 46 47  1  0  0  0  0
 21 22  1  0  0  0  0
 36 37  1  0  0  0  0
  7  8  1  0  0  0  0
 18 21  1  0  0  0  0
 17 18  1  0  0  0  0
  3  4  1  0  0  0  0
  3  5  1  0  0  0  0
  3  6  1  0  0  0  0
 24 33  1  0  0  0  0
 24 34  1  0  0  0  0
 24 35  1  0  0  0  0
 40 43  1  0  0  0  0
 40 44  1  0  0  0  0
 40 45  1  0  0  0  0
 11 14  1  0  0  0  0
 11 15  1  0  0  0  0
 11 16  1  0  0  0  0
 23 30  1  0  0  0  0
 23 31  1  0  0  0  0
 23 32  1  0  0  0  0
 47 49  1  0  0  0  0
 47 50  1  0  0  0  0
 47 51  1  0  0  0  0
 22 28  1  0  0  0  0
 22 29  1  0  0  0  0
 37 42  1  0  0  0  0
  8 13  1  0  0  0  0
 18 26  1  0  0  0  0
 21 27  1  0  0  0  0
 46 48  1  0  0  0  0
  7 12  1  0  0  0  0
 36 41  1  0  0  0  0
 17 25  1  0  0  0  0
M  END
$$$$

  -OEChem-05262214473D

 51 50  0     1  0  0  0  0  0999 V2000
    1.3524   -3.0009    1.4091 C   0  0  0  0  0  0  0  0  0  0  0  0
    1.8758   -1.9880    0.9598 O   0  0  0  0  0  0  0  0  0  0  0  0
    2.2030   -4.1782    1.7536 C   0  0  0  0  0  0  0  0  0  0  0  0
    2.3264   -4.8705    0.9053 H   0  0  0  0  0  0  0  0  0  0  0  0
    3.2257   -3.8876    2.0432 H   0  0  0  0  0  0  0  0  0  0  0  0
    1.8327   -4.8004    2.5839 H   0  0  0  0  0  0  0  0  0  0  0  0
    0.0005   -3.1873    1.6465 N   0  0  0  0  0  0  0  0  0  0  0  0
   -0.9949   -2.1807    1.3864 C   0  0  2  0  0  0  0  0  0  0  0  0
   -0.3083   -0.8216    1.4164 C   0  0  0  0  0  0  0  0  0  0  0  0
    0.7533   -0.6191    2.0022 O   0  0  0  0  0  0  0  0  0  0  0  0
   -2.1232   -2.2423    2.4042 C   0  0  0  0  0  0  0  0  0  0  0  0
   -0.3048   -4.0823    2.0245 H   0  0  0  0  0  0  0  0  0  0  0  0
   -1.3830   -2.3724    0.3801 H   0  0  0  0  0  0  0  0  0  0  0  0
   -1.7534   -2.0527    3.4185 H   0  0  0  0  0  0  0  0  0  0  0  0
   -2.8936   -1.4947    2.1882 H   0  0  0  0  0  0  0  0  0  0  0  0
   -2.5964   -3.2301    2.4022 H   0  0  0  0  0  0  0  0  0  0  0  0
   -1.0412    0.1517    0.7482 N   0  0  0  0  0  0  0  0  0  0  0  0
   -0.6079    1.5223    0.6467 C   0  0  2  0  0  0  0  0  0  0  0  0
   -1.1448    2.0957   -0.6641 C   0  0  0  0  0  0  0  0  0  0  0  0
   -1.6123    1.3934   -1.5583 O   0  0  0  0  0  0  0  0  0  0  0  0
    0.9258    1.6828    0.7792 C   0  0  2  0  0  0  0  0  0  0  0  0
    1.4432    1.2333    2.1637 C   0  0  0  0  0  0  0  0  0  0  0  0
    1.3350    3.1276    0.4638 C   0  0  0  0  0  0  0  0  0  0  0  0
    2.9609    1.1259    2.2390 C   0  0  0  0  0  0  0  0  0  0  0  0
   -1.9022   -0.1128    0.2753 H   0  0  0  0  0  0  0  0  0  0  0  0
   -1.1072    2.0561    1.4654 H   0  0  0  0  0  0  0  0  0  0  0  0
    1.3996    1.0430    0.0226 H   0  0  0  0  0  0  0  0  0  0  0  0
    1.1230    1.9523    2.9265 H   0  0  0  0  0  0  0  0  0  0  0  0
    1.0086    0.2648    2.4383 H   0  0  0  0  0  0  0  0  0  0  0  0
    0.8938    3.8236    1.1854 H   0  0  0  0  0  0  0  0  0  0  0  0
    2.4206    3.2533    0.5206 H   0  0  0  0  0  0  0  0  0  0  0  0
    1.0118    3.4270   -0.5386 H   0  0  0  0  0  0  0  0  0  0  0  0
    3.3520    0.4205    1.5004 H   0  0  0  0  0  0  0  0  0  0  0  0
    3.2618    0.7663    3.2284 H   0  0  0  0  0  0  0  0  0  0  0  0
    3.4328    2.0998    2.0756 H   0  0  0  0  0  0  0  0  0  0  0  0
   -1.0693    3.4808   -0.6996 N   0  0  0  0  0  0  0  0  0  0  0  0
   -1.5292    4.2715   -1.8184 C   0  0  2  0  0  0  0  0  0  0  0  0
   -1.9178    5.6475   -1.2938 C   0  0  0  0  0  0  0  0  0  0  0  0
   -2.2165    5.8580   -0.1201 O   0  0  0  0  0  0  0  0  0  0  0  0
   -2.7026    3.6064   -2.5209 C   0  0  0  0  0  0  0  0  0  0  0  0
   -0.6709    3.9631    0.1006 H   0  0  0  0  0  0  0  0  0  0  0  0
   -0.6825    4.3682   -2.5067 H   0  0  0  0  0  0  0  0  0  0  0  0
   -3.5606    3.5008   -1.8469 H   0  0  0  0  0  0  0  0  0  0  0  0
   -3.0316    4.1924   -3.3854 H   0  0  0  0  0  0  0  0  0  0  0  0
   -2.4303    2.6050   -2.8714 H   0  0  0  0  0  0  0  0  0  0  0  0
   -1.9337    6.6041   -2.2992 N   0  0  0  0  0  0  0  0  0  0  0  0
   -2.2834    7.9842   -2.0567 C   0  0  0  0  0  0  0  0  0  0  0  0
   -1.6534    6.3444   -3.2404 H   0  0  0  0  0  0  0  0  0  0  0  0
   -3.3601    8.1264   -2.2317 H   0  0  0  0  0  0  0  0  0  0  0  0
   -2.0436    8.2457   -1.0155 H   0  0  0  0  0  0  0  0  0  0  0  0
   -1.7127    8.6321   -2.7383 H   0  0  0  0  0  0  0  0  0  0  0  0
  1  3  1  0  0  0  0
  1  7  1  0  0  0  0
  1  2  2  0  0  0  0
 37 38  1  0  0  0  0
 38 46  1  0  0  0  0
 38 39  2  0  0  0  0
  8  9  1  0  0  0  0
  9 17  1  0  0  0  0
  9 10  2  0  0  0  0
 18 19  1  0  0  0  0
 19 36  1  0  0  0  0
 19 20  2  0  0  0  0
 22 24  1  0  0  0  0
 37 40  1  0  0  0  0
  8 11  1  0  0  0  0
 21 23  1  0  0  0  0
 46 47  1  0  0  0  0
 21 22  1  0  0  0  0
 36 37  1  0  0  0  0
  7  8  1  0  0  0  0
 18 21  1  0  0  0  0
 17 18  1  0  0  0  0
  3  4  1  0  0  0  0
  3  5  1  0  0  0  0
  3  6  1  0  0  0  0
 24 33  1  0  0  0  0
 24 34  1  0  0  0  0
 24 35  1  0  0  0  0
 40 43  1  0  0  0  0
 40 44  1  0  0  0  0
 40 45  1  0  0  0  0
 11 14  1  0  0  0  0
 11 15  1  0  0  0  0
 11 16  1  0  0  0  0
 23 30  1  0  0  0  0
 23 31  1  0  0  0  0
 23 32  1  0  0  0  0
 47 49  1  0  0  0  0
 47 50  1  0  0  0  0
 47 51  1  0  0  0  0
 22 28  1  0  0  0  0
 22 29  1  0  0  0  0
 37 42  1  0  0  0  0
  8 13  1  0  0  0  0
 18 26  1  0  0  0  0
 21 27  1  0  0  0  0
 46 48  1  0  0  0  0
  7 12  1  0  0  0  0
 36 41  1  0  0  0  0
 17 25  1  0  0  0  0
M  END
$$$$

  -OEChem-05262214473D

 51 50  0     1  0  0  0  0  0999 V2000
    1.3524   -3.0009    1.4091 C   0  0  0  0  0  0  0  0  0  0  0  0
    1.8758   -1.9880    0.9598 O   0  0  0  0  0  0  0  0  0  0  0  0
    2.2030   -4.1782    1.7536 C   0  0  0  0  0  0  0  0  0  0  0  0
    2.3264   -4.8705    0.9053 H   0  0  0  0  0  0  0  0  0  0  0  0
    3.2257   -3.8876    2.0432 H   0  0  0  0  0  0  0  0  0  0  0  0
    1.8327   -4.8004    2.5839 H   0  0  0  0  0  0  0  0  0  0  0  0
    0.0005   -3.1873    1.6465 N   0  0  0  0  0  0  0  0  0  0  0  0
   -0.9949   -2.1807    1.3864 C   0  0  2  0  0  0  0  0  0  0  0  0
   -0.3083   -0.8216    1.4164 C   0  0  0  0  0  0  0  0  0  0  0  0
    0.7533   -0.6191    2.0022 O   0  0  0  0  0  0  0  0  0  0  0  0
   -2.1232   -2.2423    2.4042 C   0  0  0  0  0  0  0  0  0  0  0  0
   -0.3048   -4.0823    2.0245 H   0  0  0  0  0  0  0  0  0  0  0  0
   -1.3830   -2.3724    0.3801 H   0  0  0  0  0  0  0  0  0  0  0  0
   -1.7534   -2.0527    3.4185 H   0  0  0  0  0  0  0  0  0  0  0  0
   -2.8936   -1.4947    2.1882 H   0  0  0  0  0  0  0  0  0  0  0  0
   -2.5964   -3.2301    2.4022 H   0  0  0  0  0  0  0  0  0  0  0  0
   -1.0412    0.1517    0.7482 N   0  0  0  0  0  0  0  0  0  0  0  0
   -0.6079    1.5223    0.6467 C   0  0  2  0  0  0  0  0  0  0  0  0
   -1.4338    2.2034   -0.4437 C   0  0  0  0  0  0  0  0  0  0  0  0
   -2.3225    1.6261   -1.0670 O   0  0  0  0  0  0  0  0  0  0  0  0
    0.9153    1.6586    0.4081 C   0  0  2  0  0  0  0  0  0  0  0  0
    1.7439    1.0954    1.5840 C   0  0  0  0  0  0  0  0  0  0  0  0
    1.2748    3.1206    0.1116 C   0  0  0  0  0  0  0  0  0  0  0  0
    3.2300    0.9694    1.2739 C   0  0  0  0  0  0  0  0  0  0  0  0
   -1.9022   -0.1128    0.2753 H   0  0  0  0  0  0  0  0  0  0  0  0
   -0.8759    1.9930    1.6013 H   0  0  0  0  0  0  0  0  0  0  0  0
    1.1708    1.0775   -0.4880 H   0  0  0  0  0  0  0  0  0  0  0  0
    1.6410    1.7536    2.4544 H   0  0  0  0  0  0  0  0  0  0  0  0
    1.3631    0.1117    1.8835 H   0  0  0  0  0  0  0  0  0  0  0  0
    1.0438    3.7602    0.9702 H   0  0  0  0  0  0  0  0  0  0  0  0
    2.3442    3.2321   -0.0921 H   0  0  0  0  0  0  0  0  0  0  0  0
    0.7239    3.5020   -0.7544 H   0  0  0  0  0  0  0  0  0  0  0  0
    3.4080    0.3222    0.4105 H   0  0  0  0  0  0  0  0  0  0  0  0
    3.7544    0.5291    2.1284 H   0  0  0  0  0  0  0  0  0  0  0  0
    3.6744    1.9492    1.0731 H   0  0  0  0  0  0  0  0  0  0  0  0
   -1.0825    3.5352   -0.6119 N   0  0  0  0  0  0  0  0  0  0  0  0
   -1.7249    4.4104   -1.5659 C   0  0  2  0  0  0  0  0  0  0  0  0
   -1.6031    5.8383   -1.0504 C   0  0  0  0  0  0  0  0  0  0  0  0
   -1.4205    6.1105    0.1344 O   0  0  0  0  0  0  0  0  0  0  0  0
   -3.1826    4.0294   -1.7720 C   0  0  0  0  0  0  0  0  0  0  0  0
   -0.3366    3.9139   -0.0358 H   0  0  0  0  0  0  0  0  0  0  0  0
   -1.1723    4.3127   -2.5067 H   0  0  0  0  0  0  0  0  0  0  0  0
   -3.7523    4.1210   -0.8401 H   0  0  0  0  0  0  0  0  0  0  0  0
   -3.6602    4.6753   -2.5161 H   0  0  0  0  0  0  0  0  0  0  0  0
   -3.2698    2.9925   -2.1142 H   0  0  0  0  0  0  0  0  0  0  0  0
   -1.7653    6.7741   -2.0624 N   0  0  0  0  0  0  0  0  0  0  0  0
   -1.7058    8.1975   -1.8249 C   0  0  0  0  0  0  0  0  0  0  0  0
   -1.8938    6.4582   -3.0192 H   0  0  0  0  0  0  0  0  0  0  0  0
   -2.7190    8.5805   -1.6334 H   0  0  0  0  0  0  0  0  0  0  0  0
   -1.0674    8.3970   -0.9517 H   0  0  0  0  0  0  0  0  0  0  0  0
   -1.2853    8.6993   -2.7089 H   0  0  0  0  0  0  0  0  0  0  0  0
  1  3  1  0  0  0  0
  1  7  1  0  0  0  0
  1  2  2  0  0  0  0
 37 38  1  0  0  0  0
 38 46  1  0  0  0  0
 38 39  2  0  0  0  0
  8  9  1  0  0  0  0
  9 17  1  0  0  0  0
  9 10  2  0  0  0  0
 18 19  1  0  0  0  0
 19 36  1  0  0  0  0
 19 20  2  0  0  0  0
 22 24  1  0  0  0  0
 37 40  1  0  0  0  0
  8 11  1  0  0  0  0
 21 23  1  0  0  0  0
 46 47  1  0  0  0  0
 21 22  1  0  0  0  0
 36 37  1  0  0  0  0
  7  8  1  0  0  0  0
 18 21  1  0  0  0  0
 17 18  1  0  0  0  0
  3  4  1  0  0  0  0
  3  5  1  0  0  0  0
  3  6  1  0  0  0  0
 24 33  1  0  0  0  0
 24 34  1  0  0  0  0
 24 35  1  0  0  0  0
 40 43  1  0  0  0  0
 40 44  1  0  0  0  0
 40 45  1  0  0  0  0
 11 14  1  0  0  0  0
 11 15  1  0  0  0  0
 11 16  1  0  0  0  0
 23 30  1  0  0  0  0
 23 31  1  0  0  0  0
 23 32  1  0  0  0  0
 47 49  1  0  0  0  0
 47 50  1  0  0  0  0
 47 51  1  0  0  0  0
 22 28  1  0  0  0  0
 22 29  1  0  0  0  0
 37 42  1  0  0  0  0
  8 13  1  0  0  0  0
 18 26  1  0  0  0  0
 21 27  1  0  0  0  0
 46 48  1  0  0  0  0
  7 12  1  0  0  0  0
 36 41  1  0  0  0  0
 17 25  1  0  0  0  0
M  END
$$$$

  -OEChem-05262214473D

 51 50  0     1  0  0  0  0  0999 V2000
    1.3524   -3.0009    1.4091 C   0  0  0  0  0  0  0  0  0  0  0  0
    1.8758   -1.9880    0.9598 O   0  0  0  0  0  0  0  0  0  0  0  0
    2.2030   -4.1782    1.7536 C   0  0  0  0  0  0  0  0  0  0  0  0
    2.3264   -4.8705    0.9053 H   0  0  0  0  0  0  0  0  0  0  0  0
    3.2257   -3.8876    2.0432 H   0  0  0  0  0  0  0  0  0  0  0  0
    1.8327   -4.8004    2.5839 H   0  0  0  0  0  0  0  0  0  0  0  0
    0.0005   -3.1873    1.6465 N   0  0  0  0  0  0  0  0  0  0  0  0
   -0.9949   -2.1807    1.3864 C   0  0  2  0  0  0  0  0  0  0  0  0
   -0.3083   -0.8216    1.4164 C   0  0  0  0  0  0  0  0  0  0  0  0
    0.7533   -0.6191    2.0022 O   0  0  0  0  0  0  0  0  0  0  0  0
   -2.1232   -2.2423    2.4042 C   0  0  0  0  0  0  0  0  0  0  0  0
   -0.3048   -4.0823    2.0245 H   0  0  0  0  0  0  0  0  0  0  0  0
   -1.3830   -2.3724    0.3801 H   0  0  0  0  0  0  0  0  0  0  0  0
   -1.7534   -2.0527    3.4185 H   0  0  0  0  0  0  0  0  0  0  0  0
   -2.8936   -1.4947    2.1882 H   0  0  0  0  0  0  0  0  0  0  0  0
   -2.5964   -3.2301    2.4022 H   0  0  0  0  0  0  0  0  0  0  0  0
   -1.0412    0.1517    0.7482 N   0  0  0  0  0  0  0  0  0  0  0  0
   -0.6079    1.5223    0.6467 C   0  0  2  0  0  0  0  0  0  0  0  0
   -1.4338    2.2034   -0.4437 C   0  0  0  0  0  0  0  0  0  0  0  0
   -2.4830    1.7329   -0.8788 O   0  0  0  0  0  0  0  0  0  0  0  0
    0.9153    1.6586    0.4081 C   0  0  2  0  0  0  0  0  0  0  0  0
    1.7439    1.0954    1.5840 C   0  0  0  0  0  0  0  0  0  0  0  0
    1.2748    3.1206    0.1116 C   0  0  0  0  0  0  0  0  0  0  0  0
    3.2300    0.9694    1.2739 C   0  0  0  0  0  0  0  0  0  0  0  0
   -1.9022   -0.1128    0.2753 H   0  0  0  0  0  0  0  0  0  0  0  0
   -0.8759    1.9930    1.6013 H   0  0  0  0  0  0  0  0  0  0  0  0
    1.1708    1.0775   -0.4880 H   0  0  0  0  0  0  0  0  0  0  0  0
    1.6410    1.7536    2.4544 H   0  0  0  0  0  0  0  0  0  0  0  0
    1.3631    0.1117    1.8835 H   0  0  0  0  0  0  0  0  0  0  0  0
    1.0438    3.7602    0.9702 H   0  0  0  0  0  0  0  0  0  0  0  0
    2.3442    3.2321   -0.0921 H   0  0  0  0  0  0  0  0  0  0  0  0
    0.7239    3.5020   -0.7544 H   0  0  0  0  0  0  0  0  0  0  0  0
    3.4080    0.3222    0.4105 H   0  0  0  0  0  0  0  0  0  0  0  0
    3.7544    0.5291    2.1284 H   0  0  0  0  0  0  0  0  0  0  0  0
    3.6744    1.9492    1.0731 H   0  0  0  0  0  0  0  0  0  0  0  0
   -0.8775    3.4094   -0.8458 N   0  0  0  0  0  0  0  0  0  0  0  0
   -1.4725    4.2615   -1.8500 C   0  0  2  0  0  0  0  0  0  0  0  0
   -1.0355    5.6934   -1.5708 C   0  0  0  0  0  0  0  0  0  0  0  0
   -0.6570    6.0758   -0.4655 O   0  0  0  0  0  0  0  0  0  0  0  0
   -2.9889    4.1455   -1.8462 C   0  0  0  0  0  0  0  0  0  0  0  0
   -0.0087    3.7082   -0.4126 H   0  0  0  0  0  0  0  0  0  0  0  0
   -1.0714    3.9385   -2.8169 H   0  0  0  0  0  0  0  0  0  0  0  0
   -3.4089    4.4648   -0.8855 H   0  0  0  0  0  0  0  0  0  0  0  0
   -3.4365    4.7699   -2.6265 H   0  0  0  0  0  0  0  0  0  0  0  0
   -3.3009    3.1096   -2.0176 H   0  0  0  0  0  0  0  0  0  0  0  0
   -1.1586    6.5044   -2.6904 N   0  0  0  0  0  0  0  0  0  0  0  0
   -0.8188    7.9080   -2.6775 C   0  0  0  0  0  0  0  0  0  0  0  0
   -1.4628    6.0984   -3.5704 H   0  0  0  0  0  0  0  0  0  0  0  0
   -1.7154    8.5008   -2.4433 H   0  0  0  0  0  0  0  0  0  0  0  0
   -0.0484    8.0917   -1.9141 H   0  0  0  0  0  0  0  0  0  0  0  0
   -0.4335    8.2010   -3.6653 H   0  0  0  0  0  0  0  0  0  0  0  0
  1  3  1  0  0  0  0
  1  7  1  0  0  0  0
  1  2  2  0  0  0  0
 37 38  1  0  0  0  0
 38 46  1  0  0  0  0
 38 39  2  0  0  0  0
  8  9  1  0  0  0  0
  9 17  1  0  0  0  0
  9 10  2  0  0  0  0
 18 19  1  0  0  0  0
 19 36  1  0  0  0  0
 19 20  2  0  0  0  0
 22 24  1  0  0  0  0
 37 40  1  0  0  0  0
  8 11  1  0  0  0  0
 21 23  1  0  0  0  0
 46 47  1  0  0  0  0
 21 22  1  0  0  0  0
 36 37  1  0  0  0  0
  7  8  1  0  0  0  0
 18 21  1  0  0  0  0
 17 18  1  0  0  0  0
  3  4  1  0  0  0  0
  3  5  1  0  0  0  0
  3  6  1  0  0  0  0
 24 33  1  0  0  0  0
 24 34  1  0  0  0  0
 24 35  1  0  0  0  0
 40 43  1  0  0  0  0
 40 44  1  0  0  0  0
 40 45  1  0  0  0  0
 11 14  1  0  0  0  0
 11 15  1  0  0  0  0
 11 16  1  0  0  0  0
 23 30  1  0  0  0  0
 23 31  1  0  0  0  0
 23 32  1  0  0  0  0
 47 49  1  0  0  0  0
 47 50  1  0  0  0  0
 47 51  1  0  0  0  0
 22 28  1  0  0  0  0
 22 29  1  0  0  0  0
 37 42  1  0  0  0  0
  8 13  1  0  0  0  0
 18 26  1  0  0  0  0
 21 27  1  0  0  0  0
 46 48  1  0  0  0  0
  7 12  1  0  0  0  0
 36 41  1  0  0  0  0
 17 25  1  0  0  0  0
M  END
$$$$

  -OEChem-05262214473D

 51 50  0     1  0  0  0  0  0999 V2000
    1.3524   -3.0009    1.4091 C   0  0  0  0  0  0  0  0  0  0  0  0
    1.8758   -1.9880    0.9598 O   0  0  0  0  0  0  0  0  0  0  0  0
    2.2030   -4.1782    1.7536 C   0  0  0  0  0  0  0  0  0  0  0  0
    2.3264   -4.8705    0.9053 H   0  0  0  0  0  0  0  0  0  0  0  0
    3.2257   -3.8876    2.0432 H   0  0  0  0  0  0  0  0  0  0  0  0
    1.8327   -4.8004    2.5839 H   0  0  0  0  0  0  0  0  0  0  0  0
    0.0005   -3.1873    1.6465 N   0  0  0  0  0  0  0  0  0  0  0  0
   -0.9949   -2.1807    1.3864 C   0  0  2  0  0  0  0  0  0  0  0  0
   -0.3083   -0.8216    1.4164 C   0  0  0  0  0  0  0  0  0  0  0  0
    0.7533   -0.6191    2.0022 O   0  0  0  0  0  0  0  0  0  0  0  0
   -2.1232   -2.2423    2.4042 C   0  0  0  0  0  0  0  0  0  0  0  0
   -0.3048   -4.0823    2.0245 H   0  0  0  0  0  0  0  0  0  0  0  0
   -1.3830   -2.3724    0.3801 H   0  0  0  0  0  0  0  0  0  0  0  0
   -1.7534   -2.0527    3.4185 H   0  0  0  0  0  0  0  0  0  0  0  0
   -2.8936   -1.4947    2.1882 H   0  0  0  0  0  0  0  0  0  0  0  0
   -2.5964   -3.2301    2.4022 H   0  0  0  0  0  0  0  0  0  0  0  0
   -1.0412    0.1517    0.7482 N   0  0  0  0  0  0  0  0  0  0  0  0
   -0.6079    1.5223    0.6467 C   0  0  2  0  0  0  0  0  0  0  0  0
   -1.4338    2.2034   -0.4437 C   0  0  0  0  0  0  0  0  0  0  0  0
   -2.5966    1.8920   -0.6933 O   0  0  0  0  0  0  0  0  0  0  0  0
    0.9153    1.6586    0.4081 C   0  0  2  0  0  0  0  0  0  0  0  0
    1.7439    1.0954    1.5840 C   0  0  0  0  0  0  0  0  0  0  0  0
    1.2748    3.1206    0.1116 C   0  0  0  0  0  0  0  0  0  0  0  0
    3.2300    0.9694    1.2739 C   0  0  0  0  0  0  0  0  0  0  0  0
   -1.9022   -0.1128    0.2753 H   0  0  0  0  0  0  0  0  0  0  0  0
   -0.8759    1.9930    1.6013 H   0  0  0  0  0  0  0  0  0  0  0  0
    1.1708    1.0775   -0.4880 H   0  0  0  0  0  0  0  0  0  0  0  0
    1.6410    1.7536    2.4544 H   0  0  0  0  0  0  0  0  0  0  0  0
    1.3631    0.1117    1.8835 H   0  0  0  0  0  0  0  0  0  0  0  0
    1.0438    3.7602    0.9702 H   0  0  0  0  0  0  0  0  0  0  0  0
    2.3442    3.2321   -0.0921 H   0  0  0  0  0  0  0  0  0  0  0  0
    0.7239    3.5020   -0.7544 H   0  0  0  0  0  0  0  0  0  0  0  0
    3.4080    0.3222    0.4105 H   0  0  0  0  0  0  0  0  0  0  0  0
    3.7544    0.5291    2.1284 H   0  0  0  0  0  0  0  0  0  0  0  0
    3.6744    1.9492    1.0731 H   0  0  0  0  0  0  0  0  0  0  0  0
   -0.7297    3.2173   -1.0777 N   0  0  0  0  0  0  0  0  0  0  0  0
   -1.2891    4.0313   -2.1327 C   0  0  2  0  0  0  0  0  0  0  0  0
   -0.5739    5.3758   -2.1187 C   0  0  0  0  0  0  0  0  0  0  0  0
    0.0049    5.8174   -1.1282 O   0  0  0  0  0  0  0  0  0  0  0  0
   -2.7888    4.2114   -1.9565 C   0  0  0  0  0  0  0  0  0  0  0  0
    0.2265    3.3962   -0.7856 H   0  0  0  0  0  0  0  0  0  0  0  0
   -1.0789    3.5150   -3.0757 H   0  0  0  0  0  0  0  0  0  0  0  0
   -3.0189    4.7270   -1.0170 H   0  0  0  0  0  0  0  0  0  0  0  0
   -3.2157    4.8044   -2.7721 H   0  0  0  0  0  0  0  0  0  0  0  0
   -3.2982    3.2419   -1.9370 H   0  0  0  0  0  0  0  0  0  0  0  0
   -0.6949    6.0439   -3.3292 N   0  0  0  0  0  0  0  0  0  0  0  0
   -0.1139    7.3454   -3.5628 C   0  0  0  0  0  0  0  0  0  0  0  0
   -1.1764    5.5942   -4.1022 H   0  0  0  0  0  0  0  0  0  0  0  0
   -0.8542    8.1251   -3.3302 H   0  0  0  0  0  0  0  0  0  0  0  0
    0.7685    7.4739   -2.9187 H   0  0  0  0  0  0  0  0  0  0  0  0
    0.1869    7.4285   -4.6176 H   0  0  0  0  0  0  0  0  0  0  0  0
  1  3  1  0  0  0  0
  1  7  1  0  0  0  0
  1  2  2  0  0  0  0
 37 38  1  0  0  0  0
 38 46  1  0  0  0  0
 38 39  2  0  0  0  0
  8  9  1  0  0  0  0
  9 17  1  0  0  0  0
  9 10  2  0  0  0  0
 18 19  1  0  0  0  0
 19 36  1  0  0  0  0
 19 20  2  0  0  0  0
 22 24  1  0  0  0  0
 37 40  1  0  0  0  0
  8 11  1  0  0  0  0
 21 23  1  0  0  0  0
 46 47  1  0  0  0  0
 21 22  1  0  0  0  0
 36 37  1  0  0  0  0
  7  8  1  0  0  0  0
 18 21  1  0  0  0  0
 17 18  1  0  0  0  0
  3  4  1  0  0  0  0
  3  5  1  0  0  0  0
  3  6  1  0  0  0  0
 24 33  1  0  0  0  0
 24 34  1  0  0  0  0
 24 35  1  0  0  0  0
 40 43  1  0  0  0  0
 40 44  1  0  0  0  0
 40 45  1  0  0  0  0
 11 14  1  0  0  0  0
 11 15  1  0  0  0  0
 11 16  1  0  0  0  0
 23 30  1  0  0  0  0
 23 31  1  0  0  0  0
 23 32  1  0  0  0  0
 47 49  1  0  0  0  0
 47 50  1  0  0  0  0
 47 51  1  0  0  0  0
 22 28  1  0  0  0  0
 22 29  1  0  0  0  0
 37 42  1  0  0  0  0
  8 13  1  0  0  0  0
 18 26  1  0  0  0  0
 21 27  1  0  0  0  0
 46 48  1  0  0  0  0
  7 12  1  0  0  0  0
 36 41  1  0  0  0  0
 17 25  1  0  0  0  0
M  END
$$$$

  -OEChem-05262214473D

 51 50  0     1  0  0  0  0  0999 V2000
    1.3524   -3.0009    1.4091 C   0  0  0  0  0  0  0  0  0  0  0  0
    1.8758   -1.9880    0.9598 O   0  0  0  0  0  0  0  0  0  0  0  0
    2.2030   -4.1782    1.7536 C   0  0  0  0  0  0  0  0  0  0  0  0
    2.3264   -4.8705    0.9053 H   0  0  0  0  0  0  0  0  0  0  0  0
    3.2257   -3.8876    2.0432 H   0  0  0  0  0  0  0  0  0  0  0  0
    1.8327   -4.8004    2.5839 H   0  0  0  0  0  0  0  0  0  0  0  0
    0.0005   -3.1873    1.6465 N   0  0  0  0  0  0  0  0  0  0  0  0
   -0.9949   -2.1807    1.3864 C   0  0  2  0  0  0  0  0  0  0  0  0
   -0.3083   -0.8216    1.4164 C   0  0  0  0  0  0  0  0  0  0  0  0
    0.7533   -0.6191    2.0022 O   0  0  0  0  0  0  0  0  0  0  0  0
   -2.1232   -2.2423    2.4042 C   0  0  0  0  0  0  0  0  0  0  0  0
   -0.3048   -4.0823    2.0245 H   0  0  0  0  0  0  0  0  0  0  0  0
   -1.3830   -2.3724    0.3801 H   0  0  0  0  0  0  0  0  0  0  0  0
   -1.7534   -2.0527    3.4185 H   0  0  0  0  0  0  0  0  0  0  0  0
   -2.8936   -1.4947    2.1882 H   0  0  0  0  0  0  0  0  0  0  0  0
   -2.5964   -3.2301    2.4022 H   0  0  0  0  0  0  0  0  0  0  0  0
   -1.0412    0.1517    0.7482 N   0  0  0  0  0  0  0  0  0  0  0  0
   -0.6079    1.5223    0.6467 C   0  0  2  0  0  0  0  0  0  0  0  0
   -1.4338    2.2034   -0.4437 C   0  0  0  0  0  0  0  0  0  0  0  0
   -2.6556    2.0926   -0.5233 O   0  0  0  0  0  0  0  0  0  0  0  0
    0.9153    1.6586    0.4081 C   0  0  2  0  0  0  0  0  0  0  0  0
    1.7439    1.0954    1.5840 C   0  0  0  0  0  0  0  0  0  0  0  0
    1.2748    3.1206    0.1116 C   0  0  0  0  0  0  0  0  0  0  0  0
    3.2300    0.9694    1.2739 C   0  0  0  0  0  0  0  0  0  0  0  0
   -1.9022   -0.1128    0.2753 H   0  0  0  0  0  0  0  0  0  0  0  0
   -0.8759    1.9930    1.6013 H   0  0  0  0  0  0  0  0  0  0  0  0
    1.1708    1.0775   -0.4880 H   0  0  0  0  0  0  0  0  0  0  0  0
    1.6410    1.7536    2.4544 H   0  0  0  0  0  0  0  0  0  0  0  0
    1.3631    0.1117    1.8835 H   0  0  0  0  0  0  0  0  0  0  0  0
    1.0438    3.7602    0.9702 H   0  0  0  0  0  0  0  0  0  0  0  0
    2.3442    3.2321   -0.0921 H   0  0  0  0  0  0  0  0  0  0  0  0
    0.7239    3.5020   -0.7544 H   0  0  0  0  0  0  0  0  0  0  0  0
    3.4080    0.3222    0.4105 H   0  0  0  0  0  0  0  0  0  0  0  0
    3.7544    0.5291    2.1284 H   0  0  0  0  0  0  0  0  0  0  0  0
    3.6744    1.9492    1.0731 H   0  0  0  0  0  0  0  0  0  0  0  0
   -0.6492    2.9720   -1.2918 N   0  0  0  0  0  0  0  0  0  0  0  0
   -1.1870    3.7355   -2.3948 C   0  0  2  0  0  0  0  0  0  0  0  0
   -0.2500    4.9072   -2.6567 C   0  0  0  0  0  0  0  0  0  0  0  0
    0.5200    5.3529   -1.8086 O   0  0  0  0  0  0  0  0  0  0  0  0
   -2.5962    4.2228   -2.0954 C   0  0  0  0  0  0  0  0  0  0  0  0
    0.3530    2.9993   -1.1294 H   0  0  0  0  0  0  0  0  0  0  0  0
   -1.1942    3.0710   -3.2657 H   0  0  0  0  0  0  0  0  0  0  0  0
   -2.6090    4.8899   -1.2258 H   0  0  0  0  0  0  0  0  0  0  0  0
   -3.0129    4.7767   -2.9430 H   0  0  0  0  0  0  0  0  0  0  0  0
   -3.2618    3.3805   -1.8780 H   0  0  0  0  0  0  0  0  0  0  0  0
   -0.4057    5.4242   -3.9353 N   0  0  0  0  0  0  0  0  0  0  0  0
    0.3609    6.5479   -4.4205 C   0  0  0  0  0  0  0  0  0  0  0  0
   -1.0543    4.9798   -4.5784 H   0  0  0  0  0  0  0  0  0  0  0  0
   -0.1940    7.4791   -4.2337 H   0  0  0  0  0  0  0  0  0  0  0  0
    1.3275    6.5858   -3.8967 H   0  0  0  0  0  0  0  0  0  0  0  0
    0.5336    6.4346   -5.5010 H   0  0  0  0  0  0  0  0  0  0  0  0
  1  3  1  0  0  0  0
  1  7  1  0  0  0  0
  1  2  2  0  0  0  0
 37 38  1  0  0  0  0
 38 46  1  0  0  0  0
 38 39  2  0  0  0  0
  8  9  1  0  0  0  0
  9 17  1  0  0  0  0
  9 10  2  0  0  0  0
 18 19  1  0  0  0  0
 19 36  1  0  0  0  0
 19 20  2  0  0  0  0
 22 24  1  0  0  0  0
 37 40  1  0  0  0  0
  8 11  1  0  0  0  0
 21 23  1  0  0  0  0
 46 47  1  0  0  0  0
 21 22  1  0  0  0  0
 36 37  1  0  0  0  0
  7  8  1  0  0  0  0
 18 21  1  0  0  0  0
 17 18  1  0  0  0  0
  3  4  1  0  0  0  0
  3  5  1  0  0  0  0
  3  6  1  0  0  0  0
 24 33  1  0  0  0  0
 24 34  1  0  0  0  0
 24 35  1  0  0  0  0
 40 43  1  0  0  0  0
 40 44  1  0  0  0  0
 40 45  1  0  0  0  0
 11 14  1  0  0  0  0
 11 15  1  0  0  0  0
 11 16  1  0  0  0  0
 23 30  1  0  0  0  0
 23 31  1  0  0  0  0
 23 32  1  0  0  0  0
 47 49  1  0  0  0  0
 47 50  1  0  0  0  0
 47 51  1  0  0  0  0
 22 28  1  0  0  0  0
 22 29  1  0  0  0  0
 37 42  1  0  0  0  0
  8 13  1  0  0  0  0
 18 26  1  0  0  0  0
 21 27  1  0  0  0  0
 46 48  1  0  0  0  0
  7 12  1  0  0  0  0
 36 41  1  0  0  0  0
 17 25  1  0  0  0  0
M  END
$$$$

  -OEChem-05262214473D

 51 50  0     1  0  0  0  0  0999 V2000
    1.3524   -3.0009    1.4091 C   0  0  0  0  0  0  0  0  0  0  0  0
    1.8758   -1.9880    0.9598 O   0  0  0  0  0  0  0  0  0  0  0  0
    2.2030   -4.1782    1.7536 C   0  0  0  0  0  0  0  0  0  0  0  0
    2.3264   -4.8705    0.9053 H   0  0  0  0  0  0  0  0  0  0  0  0
    3.2257   -3.8876    2.0432 H   0  0  0  0  0  0  0  0  0  0  0  0
    1.8327   -4.8004    2.5839 H   0  0  0  0  0  0  0  0  0  0  0  0
    0.0005   -3.1873    1.6465 N   0  0  0  0  0  0  0  0  0  0  0  0
   -0.9949   -2.1807    1.3864 C   0  0  2  0  0  0  0  0  0  0  0  0
   -0.3083   -0.8216    1.4164 C   0  0  0  0  0  0  0  0  0  0  0  0
    0.7533   -0.6191    2.0022 O   0  0  0  0  0  0  0  0  0  0  0  0
   -2.1232   -2.2423    2.4042 C   0  0  0  0  0  0  0  0  0  0  0  0
   -0.3048   -4.0823    2.0245 H   0  0  0  0  0  0  0  0  0  0  0  0
   -1.3830   -2.3724    0.3801 H   0  0  0  0  0  0  0  0  0  0  0  0
   -1.7534   -2.0527    3.4185 H   0  0  0  0  0  0  0  0  0  0  0  0
   -2.8936   -1.4947    2.1882 H   0  0  0  0  0  0  0  0  0  0  0  0
   -2.5964   -3.2301    2.4022 H   0  0  0  0  0  0  0  0  0  0  0  0
   -1.0412    0.1517    0.7482 N   0  0  0  0  0  0  0  0  0  0  0  0
   -0.6079    1.5223    0.6467 C   0  0  2  0  0  0  0  0  0  0  0  0
   -1.4338    2.2034   -0.4437 C   0  0  0  0  0  0  0  0  0  0  0  0
   -2.6559    2.3210   -0.3804 O   0  0  0  0  0  0  0  0  0  0  0  0
    0.9153    1.6586    0.4081 C   0  0  2  0  0  0  0  0  0  0  0  0
    1.7439    1.0954    1.5840 C   0  0  0  0  0  0  0  0  0  0  0  0
    1.2748    3.1206    0.1116 C   0  0  0  0  0  0  0  0  0  0  0  0
    3.2300    0.9694    1.2739 C   0  0  0  0  0  0  0  0  0  0  0  0
   -1.9022   -0.1128    0.2753 H   0  0  0  0  0  0  0  0  0  0  0  0
   -0.8759    1.9930    1.6013 H   0  0  0  0  0  0  0  0  0  0  0  0
    1.1708    1.0775   -0.4880 H   0  0  0  0  0  0  0  0  0  0  0  0
    1.6410    1.7536    2.4544 H   0  0  0  0  0  0  0  0  0  0  0  0
    1.3631    0.1117    1.8835 H   0  0  0  0  0  0  0  0  0  0  0  0
    1.0438    3.7602    0.9702 H   0  0  0  0  0  0  0  0  0  0  0  0
    2.3442    3.2321   -0.0921 H   0  0  0  0  0  0  0  0  0  0  0  0
    0.7239    3.5020   -0.7544 H   0  0  0  0  0  0  0  0  0  0  0  0
    3.4080    0.3222    0.4105 H   0  0  0  0  0  0  0  0  0  0  0  0
    3.7544    0.5291    2.1284 H   0  0  0  0  0  0  0  0  0  0  0  0
    3.6744    1.9492    1.0731 H   0  0  0  0  0  0  0  0  0  0  0  0
   -0.6415    2.6902   -1.4737 N   0  0  0  0  0  0  0  0  0  0  0  0
   -1.1733    3.3943   -2.6183 C   0  0  2  0  0  0  0  0  0  0  0  0
   -0.0858    4.3194   -3.1483 C   0  0  0  0  0  0  0  0  0  0  0  0
    0.8534    4.7139   -2.4601 O   0  0  0  0  0  0  0  0  0  0  0  0
   -2.4240    4.1787   -2.2533 C   0  0  0  0  0  0  0  0  0  0  0  0
    0.3623    2.5444   -1.4205 H   0  0  0  0  0  0  0  0  0  0  0  0
   -1.4095    2.6370   -3.3737 H   0  0  0  0  0  0  0  0  0  0  0  0
   -2.2070    4.9423   -1.4975 H   0  0  0  0  0  0  0  0  0  0  0  0
   -2.8418    4.6885   -3.1277 H   0  0  0  0  0  0  0  0  0  0  0  0
   -3.1943    3.5159   -1.8445 H   0  0  0  0  0  0  0  0  0  0  0  0
   -0.3107    4.6873   -4.4674 N   0  0  0  0  0  0  0  0  0  0  0  0
    0.5734    5.5698   -5.1923 C   0  0  0  0  0  0  0  0  0  0  0  0
   -1.1048    4.2972   -4.9665 H   0  0  0  0  0  0  0  0  0  0  0  0
    0.2202    6.6068   -5.0922 H   0  0  0  0  0  0  0  0  0  0  0  0
    1.5906    5.4879   -4.7818 H   0  0  0  0  0  0  0  0  0  0  0  0
    0.5831    5.2869   -6.2553 H   0  0  0  0  0  0  0  0  0  0  0  0
  1  3  1  0  0  0  0
  1  7  1  0  0  0  0
  1  2  2  0  0  0  0
 37 38  1  0  0  0  0
 38 46  1  0  0  0  0
 38 39  2  0  0  0  0
  8  9  1  0  0  0  0
  9 17  1  0  0  0  0
  9 10  2  0  0  0  0
 18 19  1  0  0  0  0
 19 36  1  0  0  0  0
 19 20  2  0  0  0  0
 22 24  1  0  0  0  0
 37 40  1  0  0  0  0
  8 11  1  0  0  0  0
 21 23  1  0  0  0  0
 46 47  1  0  0  0  0
 21 22  1  0  0  0  0
 36 37  1  0  0  0  0
  7  8  1  0  0  0  0
 18 21  1  0  0  0  0
 17 18  1  0  0  0  0
  3  4  1  0  0  0  0
  3  5  1  0  0  0  0
  3  6  1  0  0  0  0
 24 33  1  0  0  0  0
 24 34  1  0  0  0  0
 24 35  1  0  0  0  0
 40 43  1  0  0  0  0
 40 44  1  0  0  0  0
 40 45  1  0  0  0  0
 11 14  1  0  0  0  0
 11 15  1  0  0  0  0
 11 16  1  0  0  0  0
 23 30  1  0  0  0  0
 23 31  1  0  0  0  0
 23 32  1  0  0  0  0
 47 49  1  0  0  0  0
 47 50  1  0  0  0  0
 47 51  1  0  0  0  0
 22 28  1  0  0  0  0
 22 29  1  0  0  0  0
 37 42  1  0  0  0  0
  8 13  1  0  0  0  0
 18 26  1  0  0  0  0
 21 27  1  0  0  0  0
 46 48  1  0  0  0  0
  7 12  1  0  0  0  0
 36 41  1  0  0  0  0
 17 25  1  0  0  0  0
M  END
$$$$

  -OEChem-05262214473D

 51 50  0     1  0  0  0  0  0999 V2000
    1.3524   -3.0009    1.4091 C   0  0  0  0  0  0  0  0  0  0  0  0
    1.8758   -1.9880    0.9598 O   0  0  0  0  0  0  0  0  0  0  0  0
    2.2030   -4.1782    1.7536 C   0  0  0  0  0  0  0  0  0  0  0  0
    2.3264   -4.8705    0.9053 H   0  0  0  0  0  0  0  0  0  0  0  0
    3.2257   -3.8876    2.0432 H   0  0  0  0  0  0  0  0  0  0  0  0
    1.8327   -4.8004    2.5839 H   0  0  0  0  0  0  0  0  0  0  0  0
    0.0005   -3.1873    1.6465 N   0  0  0  0  0  0  0  0  0  0  0  0
   -0.9949   -2.1807    1.3864 C   0  0  2  0  0  0  0  0  0  0  0  0
   -0.3083   -0.8216    1.4164 C   0  0  0  0  0  0  0  0  0  0  0  0
    0.7533   -0.6191    2.0022 O   0  0  0  0  0  0  0  0  0  0  0  0
   -2.1232   -2.2423    2.4042 C   0  0  0  0  0  0  0  0  0  0  0  0
   -0.3048   -4.0823    2.0245 H   0  0  0  0  0  0  0  0  0  0  0  0
   -1.3830   -2.3724    0.3801 H   0  0  0  0  0  0  0  0  0  0  0  0
   -1.7534   -2.0527    3.4185 H   0  0  0  0  0  0  0  0  0  0  0  0
   -2.8936   -1.4947    2.1882 H   0  0  0  0  0  0  0  0  0  0  0  0
   -2.5964   -3.2301    2.4022 H   0  0  0  0  0  0  0  0  0  0  0  0
   -1.0412    0.1517    0.7482 N   0  0  0  0  0  0  0  0  0  0  0  0
   -0.6079    1.5223    0.6467 C   0  0  2  0  0  0  0  0  0  0  0  0
   -1.4338    2.2034   -0.4437 C   0  0  0  0  0  0  0  0  0  0  0  0
   -2.5976    2.5618   -0.2743 O   0  0  0  0  0  0  0  0  0  0  0  0
    0.9153    1.6586    0.4081 C   0  0  2  0  0  0  0  0  0  0  0  0
    1.7439    1.0954    1.5840 C   0  0  0  0  0  0  0  0  0  0  0  0
    1.2748    3.1206    0.1116 C   0  0  0  0  0  0  0  0  0  0  0  0
    3.2300    0.9694    1.2739 C   0  0  0  0  0  0  0  0  0  0  0  0
   -1.9022   -0.1128    0.2753 H   0  0  0  0  0  0  0  0  0  0  0  0
   -0.8759    1.9930    1.6013 H   0  0  0  0  0  0  0  0  0  0  0  0
    1.1708    1.0775   -0.4880 H   0  0  0  0  0  0  0  0  0  0  0  0
    1.6410    1.7536    2.4544 H   0  0  0  0  0  0  0  0  0  0  0  0
    1.3631    0.1117    1.8835 H   0  0  0  0  0  0  0  0  0  0  0  0
    1.0438    3.7602    0.9702 H   0  0  0  0  0  0  0  0  0  0  0  0
    2.3442    3.2321   -0.0921 H   0  0  0  0  0  0  0  0  0  0  0  0
    0.7239    3.5020   -0.7544 H   0  0  0  0  0  0  0  0  0  0  0  0
    3.4080    0.3222    0.4105 H   0  0  0  0  0  0  0  0  0  0  0  0
    3.7544    0.5291    2.1284 H   0  0  0  0  0  0  0  0  0  0  0  0
    3.6744    1.9492    1.0731 H   0  0  0  0  0  0  0  0  0  0  0  0
   -0.7071    2.3911   -1.6108 N   0  0  0  0  0  0  0  0  0  0  0  0
   -1.2488    3.0309   -2.7880 C   0  0  2  0  0  0  0  0  0  0  0  0
   -0.0924    3.6526   -3.5597 C   0  0  0  0  0  0  0  0  0  0  0  0
    0.9822    3.9439   -3.0386 O   0  0  0  0  0  0  0  0  0  0  0  0
   -2.2840    4.0823   -2.4196 C   0  0  0  0  0  0  0  0  0  0  0  0
    0.2536    2.0625   -1.6392 H   0  0  0  0  0  0  0  0  0  0  0  0
   -1.7100    2.2423   -3.3926 H   0  0  0  0  0  0  0  0  0  0  0  0
   -1.8404    4.8807   -1.8136 H   0  0  0  0  0  0  0  0  0  0  0  0
   -2.7142    4.5459   -3.3134 H   0  0  0  0  0  0  0  0  0  0  0  0
   -3.1002    3.6389   -1.8390 H   0  0  0  0  0  0  0  0  0  0  0  0
   -0.4165    3.8836   -4.8893 N   0  0  0  0  0  0  0  0  0  0  0  0
    0.5089    4.4779   -5.8255 C   0  0  0  0  0  0  0  0  0  0  0  0
   -1.3244    3.5929   -5.2401 H   0  0  0  0  0  0  0  0  0  0  0  0
    0.3601    5.5676   -5.8472 H   0  0  0  0  0  0  0  0  0  0  0  0
    1.5399    4.2549   -5.5134 H   0  0  0  0  0  0  0  0  0  0  0  0
    0.3318    4.0637   -6.8290 H   0  0  0  0  0  0  0  0  0  0  0  0
  1  3  1  0  0  0  0
  1  7  1  0  0  0  0
  1  2  2  0  0  0  0
 37 38  1  0  0  0  0
 38 46  1  0  0  0  0
 38 39  2  0  0  0  0
  8  9  1  0  0  0  0
  9 17  1  0  0  0  0
  9 10  2  0  0  0  0
 18 19  1  0  0  0  0
 19 36  1  0  0  0  0
 19 20  2  0  0  0  0
 22 24  1  0  0  0  0
 37 40  1  0  0  0  0
  8 11  1  0  0  0  0
 21 23  1  0  0  0  0
 46 47  1  0  0  0  0
 21 22  1  0  0  0  0
 36 37  1  0  0  0  0
  7  8  1  0  0  0  0
 18 21  1  0  0  0  0
 17 18  1  0  0  0  0
  3  4  1  0  0  0  0
  3  5  1  0  0  0  0
  3  6  1  0  0  0  0
 24 33  1  0  0  0  0
 24 34  1  0  0  0  0
 24 35  1  0  0  0  0
 40 43  1  0  0  0  0
 40 44  1  0  0  0  0
 40 45  1  0  0  0  0
 11 14  1  0  0  0  0
 11 15  1  0  0  0  0
 11 16  1  0  0  0  0
 23 30  1  0  0  0  0
 23 31  1  0  0  0  0
 23 32  1  0  0  0  0
 47 49  1  0  0  0  0
 47 50  1  0  0  0  0
 47 51  1  0  0  0  0
 22 28  1  0  0  0  0
 22 29  1  0  0  0  0
 37 42  1  0  0  0  0
  8 13  1  0  0  0  0
 18 26  1  0  0  0  0
 21 27  1  0  0  0  0
 46 48  1  0  0  0  0
  7 12  1  0  0  0  0
 36 41  1  0  0  0  0
 17 25  1  0  0  0  0
M  END
$$$$

  -OEChem-05262214473D

 51 50  0     1  0  0  0  0  0999 V2000
    1.3524   -3.0009    1.4091 C   0  0  0  0  0  0  0  0  0  0  0  0
    1.8758   -1.9880    0.9598 O   0  0  0  0  0  0  0  0  0  0  0  0
    2.2030   -4.1782    1.7536 C   0  0  0  0  0  0  0  0  0  0  0  0
    2.3264   -4.8705    0.9053 H   0  0  0  0  0  0  0  0  0  0  0  0
    3.2257   -3.8876    2.0432 H   0  0  0  0  0  0  0  0  0  0  0  0
    1.8327   -4.8004    2.5839 H   0  0  0  0  0  0  0  0  0  0  0  0
    0.0005   -3.1873    1.6465 N   0  0  0  0  0  0  0  0  0  0  0  0
   -0.9949   -2.1807    1.3864 C   0  0  2  0  0  0  0  0  0  0  0  0
   -0.3083   -0.8216    1.4164 C   0  0  0  0  0  0  0  0  0  0  0  0
    0.7533   -0.6191    2.0022 O   0  0  0  0  0  0  0  0  0  0  0  0
   -2.1232   -2.2423    2.4042 C   0  0  0  0  0  0  0  0  0  0  0  0
   -0.3048   -4.0823    2.0245 H   0  0  0  0  0  0  0  0  0  0  0  0
   -1.3830   -2.3724    0.3801 H   0  0  0  0  0  0  0  0  0  0  0  0
   -1.7534   -2.0527    3.4185 H   0  0  0  0  0  0  0  0  0  0  0  0
   -2.8936   -1.4947    2.1882 H   0  0  0  0  0  0  0  0  0  0  0  0
   -2.5964   -3.2301    2.4022 H   0  0  0  0  0  0  0  0  0  0  0  0
   -1.0412    0.1517    0.7482 N   0  0  0  0  0  0  0  0  0  0  0  0
   -0.6079    1.5223    0.6467 C   0  0  2  0  0  0  0  0  0  0  0  0
   -1.4338    2.2034   -0.4437 C   0  0  0  0  0  0  0  0  0  0  0  0
   -2.4845    2.7983   -0.2122 O   0  0  0  0  0  0  0  0  0  0  0  0
    0.9153    1.6586    0.4081 C   0  0  2  0  0  0  0  0  0  0  0  0
    1.7439    1.0954    1.5840 C   0  0  0  0  0  0  0  0  0  0  0  0
    1.2748    3.1206    0.1116 C   0  0  0  0  0  0  0  0  0  0  0  0
    3.2300    0.9694    1.2739 C   0  0  0  0  0  0  0  0  0  0  0  0
   -1.9022   -0.1128    0.2753 H   0  0  0  0  0  0  0  0  0  0  0  0
   -0.8759    1.9930    1.6013 H   0  0  0  0  0  0  0  0  0  0  0  0
    1.1708    1.0775   -0.4880 H   0  0  0  0  0  0  0  0  0  0  0  0
    1.6410    1.7536    2.4544 H   0  0  0  0  0  0  0  0  0  0  0  0
    1.3631    0.1117    1.8835 H   0  0  0  0  0  0  0  0  0  0  0  0
    1.0438    3.7602    0.9702 H   0  0  0  0  0  0  0  0  0  0  0  0
    2.3442    3.2321   -0.0921 H   0  0  0  0  0  0  0  0  0  0  0  0
    0.7239    3.5020   -0.7544 H   0  0  0  0  0  0  0  0  0  0  0  0
    3.4080    0.3222    0.4105 H   0  0  0  0  0  0  0  0  0  0  0  0
    3.7544    0.5291    2.1284 H   0  0  0  0  0  0  0  0  0  0  0  0
    3.6744    1.9492    1.0731 H   0  0  0  0  0  0  0  0  0  0  0  0
   -0.8414    2.0952   -1.6939 N   0  0  0  0  0  0  0  0  0  0  0  0
   -1.4085    2.6701   -2.8924 C   0  0  2  0  0  0  0  0  0  0  0  0
   -0.2694    2.9522   -3.8632 C   0  0  0  0  0  0  0  0  0  0  0  0
    0.8976    3.0955   -3.5045 O   0  0  0  0  0  0  0  0  0  0  0  0
   -2.1858    3.9400   -2.5828 C   0  0  0  0  0  0  0  0  0  0  0  0
    0.0344    1.5866   -1.7704 H   0  0  0  0  0  0  0  0  0  0  0  0
   -2.0754    1.9140   -3.3209 H   0  0  0  0  0  0  0  0  0  0  0  0
   -1.5341    4.7093   -2.1527 H   0  0  0  0  0  0  0  0  0  0  0  0
   -2.6386    4.3586   -3.4876 H   0  0  0  0  0  0  0  0  0  0  0  0
   -2.9859    3.7411   -1.8617 H   0  0  0  0  0  0  0  0  0  0  0  0
   -0.7158    3.0678   -5.1722 N   0  0  0  0  0  0  0  0  0  0  0  0
    0.1719    3.3466   -6.2769 C   0  0  0  0  0  0  0  0  0  0  0  0
   -1.6981    2.9149   -5.3805 H   0  0  0  0  0  0  0  0  0  0  0  0
    0.2162    4.4324   -6.4473 H   0  0  0  0  0  0  0  0  0  0  0  0
    1.1788    2.9711   -6.0418 H   0  0  0  0  0  0  0  0  0  0  0  0
   -0.2029    2.8483   -7.1831 H   0  0  0  0  0  0  0  0  0  0  0  0
  1  3  1  0  0  0  0
  1  7  1  0  0  0  0
  1  2  2  0  0  0  0
 37 38  1  0  0  0  0
 38 46  1  0  0  0  0
 38 39  2  0  0  0  0
  8  9  1  0  0  0  0
  9 17  1  0  0  0  0
  9 10  2  0  0  0  0
 18 19  1  0  0  0  0
 19 36  1  0  0  0  0
 19 20  2  0  0  0  0
 22 24  1  0  0  0  0
 37 40  1  0  0  0  0
  8 11  1  0  0  0  0
 21 23  1  0  0  0  0
 46 47  1  0  0  0  0
 21 22  1  0  0  0  0
 36 37  1  0  0  0  0
  7  8  1  0  0  0  0
 18 21  1  0  0  0  0
 17 18  1  0  0  0  0
  3  4  1  0  0  0  0
  3  5  1  0  0  0  0
  3  6  1  0  0  0  0
 24 33  1  0  0  0  0
 24 34  1  0  0  0  0
 24 35  1  0  0  0  0
 40 43  1  0  0  0  0
 40 44  1  0  0  0  0
 40 45  1  0  0  0  0
 11 14  1  0  0  0  0
 11 15  1  0  0  0  0
 11 16  1  0  0  0  0
 23 30  1  0  0  0  0
 23 31  1  0  0  0  0
 23 32  1  0  0  0  0
 47 49  1  0  0  0  0
 47 50  1  0  0  0  0
 47 51  1  0  0  0  0
 22 28  1  0  0  0  0
 22 29  1  0  0  0  0
 37 42  1  0  0  0  0
  8 13  1  0  0  0  0
 18 26  1  0  0  0  0
 21 27  1  0  0  0  0
 46 48  1  0  0  0  0
  7 12  1  0  0  0  0
 36 41  1  0  0  0  0
 17 25  1  0  0  0  0
M  END
$$$$

  -OEChem-05262214473D

 51 50  0     1  0  0  0  0  0999 V2000
    1.3524   -3.0009    1.4091 C   0  0  0  0  0  0  0  0  0  0  0  0
    1.8758   -1.9880    0.9598 O   0  0  0  0  0  0  0  0  0  0  0  0
    2.2030   -4.1782    1.7536 C   0  0  0  0  0  0  0  0  0  0  0  0
    2.3264   -4.8705    0.9053 H   0  0  0  0  0  0  0  0  0  0  0  0
    3.2257   -3.8876    2.0432 H   0  0  0  0  0  0  0  0  0  0  0  0
    1.8327   -4.8004    2.5839 H   0  0  0  0  0  0  0  0  0  0  0  0
    0.0005   -3.1873    1.6465 N   0  0  0  0  0  0  0  0  0  0  0  0
   -0.9949   -2.1807    1.3864 C   0  0  2  0  0  0  0  0  0  0  0  0
   -0.3083   -0.8216    1.4164 C   0  0  0  0  0  0  0  0  0  0  0  0
    0.7533   -0.6191    2.0022 O   0  0  0  0  0  0  0  0  0  0  0  0
   -2.1232   -2.2423    2.4042 C   0  0  0  0  0  0  0  0  0  0  0  0
   -0.3048   -4.0823    2.0245 H   0  0  0  0  0  0  0  0  0  0  0  0
   -1.3830   -2.3724    0.3801 H   0  0  0  0  0  0  0  0  0  0  0  0
   -1.7534   -2.0527    3.4185 H   0  0  0  0  0  0  0  0  0  0  0  0
   -2.8936   -1.4947    2.1882 H   0  0  0  0  0  0  0  0  0  0  0  0
   -2.5964   -3.2301    2.4022 H   0  0  0  0  0  0  0  0  0  0  0  0
   -1.0412    0.1517    0.7482 N   0  0  0  0  0  0  0  0  0  0  0  0
   -0.6079    1.5223    0.6467 C   0  0  2  0  0  0  0  0  0  0  0  0
   -1.4338    2.2034   -0.4437 C   0  0  0  0  0  0  0  0  0  0  0  0
   -2.3244    3.0147   -0.1983 O   0  0  0  0  0  0  0  0  0  0  0  0
    0.9153    1.6586    0.4081 C   0  0  2  0  0  0  0  0  0  0  0  0
    1.7439    1.0954    1.5840 C   0  0  0  0  0  0  0  0  0  0  0  0
    1.2748    3.1206    0.1116 C   0  0  0  0  0  0  0  0  0  0  0  0
    3.2300    0.9694    1.2739 C   0  0  0  0  0  0  0  0  0  0  0  0
   -1.9022   -0.1128    0.2753 H   0  0  0  0  0  0  0  0  0  0  0  0
   -0.8759    1.9930    1.6013 H   0  0  0  0  0  0  0  0  0  0  0  0
    1.1708    1.0775   -0.4880 H   0  0  0  0  0  0  0  0  0  0  0  0
    1.6410    1.7536    2.4544 H   0  0  0  0  0  0  0  0  0  0  0  0
    1.3631    0.1117    1.8835 H   0  0  0  0  0  0  0  0  0  0  0  0
    1.0438    3.7602    0.9702 H   0  0  0  0  0  0  0  0  0  0  0  0
    2.3442    3.2321   -0.0921 H   0  0  0  0  0  0  0  0  0  0  0  0
    0.7239    3.5020   -0.7544 H   0  0  0  0  0  0  0  0  0  0  0  0
    3.4080    0.3222    0.4105 H   0  0  0  0  0  0  0  0  0  0  0  0
    3.7544    0.5291    2.1284 H   0  0  0  0  0  0  0  0  0  0  0  0
    3.6744    1.9492    1.0731 H   0  0  0  0  0  0  0  0  0  0  0  0
   -1.0355    1.8226   -1.7172 N   0  0  0  0  0  0  0  0  0  0  0  0
   -1.6414    2.3365   -2.9244 C   0  0  2  0  0  0  0  0  0  0  0  0
   -0.6047    2.2658   -4.0379 C   0  0  0  0  0  0  0  0  0  0  0  0
    0.6055    2.2264   -3.8261 O   0  0  0  0  0  0  0  0  0  0  0  0
   -2.1360    3.7616   -2.7319 C   0  0  0  0  0  0  0  0  0  0  0  0
   -0.2803    1.1490   -1.8053 H   0  0  0  0  0  0  0  0  0  0  0  0
   -2.4807    1.6744   -3.1636 H   0  0  0  0  0  0  0  0  0  0  0  0
   -1.3090    4.4396   -2.4916 H   0  0  0  0  0  0  0  0  0  0  0  0
   -2.6203    4.1394   -3.6384 H   0  0  0  0  0  0  0  0  0  0  0  0
   -2.8593    3.8156   -1.9111 H   0  0  0  0  0  0  0  0  0  0  0  0
   -1.1881    2.2955   -5.2968 N   0  0  0  0  0  0  0  0  0  0  0  0
   -0.4146    2.2529   -6.5157 C   0  0  0  0  0  0  0  0  0  0  0  0
   -2.2005    2.3094   -5.3782 H   0  0  0  0  0  0  0  0  0  0  0  0
   -0.2016    3.2785   -6.8515 H   0  0  0  0  0  0  0  0  0  0  0  0
    0.5319    1.7237   -6.3309 H   0  0  0  0  0  0  0  0  0  0  0  0
   -0.9848    1.7236   -7.2934 H   0  0  0  0  0  0  0  0  0  0  0  0
  1  3  1  0  0  0  0
  1  7  1  0  0  0  0
  1  2  2  0  0  0  0
 37 38  1  0  0  0  0
 38 46  1  0  0  0  0
 38 39  2  0  0  0  0
  8  9  1  0  0  0  0
  9 17  1  0  0  0  0
  9 10  2  0  0  0  0
 18 19  1  0  0  0  0
 19 36  1  0  0  0  0
 19 20  2  0  0  0  0
 22 24  1  0  0  0  0
 37 40  1  0  0  0  0
  8 11  1  0  0  0  0
 21 23  1  0  0  0  0
 46 47  1  0  0  0  0
 21 22  1  0  0  0  0
 36 37  1  0  0  0  0
  7  8  1  0  0  0  0
 18 21  1  0  0  0  0
 17 18  1  0  0  0  0
  3  4  1  0  0  0  0
  3  5  1  0  0  0  0
  3  6  1  0  0  0  0
 24 33  1  0  0  0  0
 24 34  1  0  0  0  0
 24 35  1  0  0  0  0
 40 43  1  0  0  0  0
 40 44  1  0  0  0  0
 40 45  1  0  0  0  0
 11 14  1  0  0  0  0
 11 15  1  0  0  0  0
 11 16  1  0  0  0  0
 23 30  1  0  0  0  0
 23 31  1  0  0  0  0
 23 32  1  0  0  0  0
 47 49  1  0  0  0  0
 47 50  1  0  0  0  0
 47 51  1  0  0  0  0
 22 28  1  0  0  0  0
 22 29  1  0  0  0  0
 37 42  1  0  0  0  0
  8 13  1  0  0  0  0
 18 26  1  0  0  0  0
 21 27  1  0  0  0  0
 46 48  1  0  0  0  0
  7 12  1  0  0  0  0
 36 41  1  0  0  0  0
 17 25  1  0  0  0  0
M  END
$$$$

  -OEChem-05262214473D

 51 50  0     1  0  0  0  0  0999 V2000
    1.3524   -3.0009    1.4091 C   0  0  0  0  0  0  0  0  0  0  0  0
    1.8758   -1.9880    0.9598 O   0  0  0  0  0  0  0  0  0  0  0  0
    2.2030   -4.1782    1.7536 C   0  0  0  0  0  0  0  0  0  0  0  0
    2.3264   -4.8705    0.9053 H   0  0  0  0  0  0  0  0  0  0  0  0
    3.2257   -3.8876    2.0432 H   0  0  0  0  0  0  0  0  0  0  0  0
    1.8327   -4.8004    2.5839 H   0  0  0  0  0  0  0  0  0  0  0  0
    0.0005   -3.1873    1.6465 N   0  0  0  0  0  0  0  0  0  0  0  0
   -0.9949   -2.1807    1.3864 C   0  0  2  0  0  0  0  0  0  0  0  0
   -0.3083   -0.8216    1.4164 C   0  0  0  0  0  0  0  0  0  0  0  0
    0.7533   -0.6191    2.0022 O   0  0  0  0  0  0  0  0  0  0  0  0
   -2.1232   -2.2423    2.4042 C   0  0  0  0  0  0  0  0  0  0  0  0
   -0.3048   -4.0823    2.0245 H   0  0  0  0  0  0  0  0  0  0  0  0
   -1.3830   -2.3724    0.3801 H   0  0  0  0  0  0  0  0  0  0  0  0
   -1.7534   -2.0527    3.4185 H   0  0  0  0  0  0  0  0  0  0  0  0
   -2.8936   -1.4947    2.1882 H   0  0  0  0  0  0  0  0  0  0  0  0
   -2.5964   -3.2301    2.4022 H   0  0  0  0  0  0  0  0  0  0  0  0
   -1.0412    0.1517    0.7482 N   0  0  0  0  0  0  0  0  0  0  0  0
   -0.6079    1.5223    0.6467 C   0  0  2  0  0  0  0  0  0  0  0  0
   -1.4338    2.2034   -0.4437 C   0  0  0  0  0  0  0  0  0  0  0  0
   -2.1282    3.1960   -0.2337 O   0  0  0  0  0  0  0  0  0  0  0  0
    0.9153    1.6586    0.4081 C   0  0  2  0  0  0  0  0  0  0  0  0
    1.7439    1.0954    1.5840 C   0  0  0  0  0  0  0  0  0  0  0  0
    1.2748    3.1206    0.1116 C   0  0  0  0  0  0  0  0  0  0  0  0
    3.2300    0.9694    1.2739 C   0  0  0  0  0  0  0  0  0  0  0  0
   -1.9022   -0.1128    0.2753 H   0  0  0  0  0  0  0  0  0  0  0  0
   -0.8759    1.9930    1.6013 H   0  0  0  0  0  0  0  0  0  0  0  0
    1.1708    1.0775   -0.4880 H   0  0  0  0  0  0  0  0  0  0  0  0
    1.6410    1.7536    2.4544 H   0  0  0  0  0  0  0  0  0  0  0  0
    1.3631    0.1117    1.8835 H   0  0  0  0  0  0  0  0  0  0  0  0
    1.0438    3.7602    0.9702 H   0  0  0  0  0  0  0  0  0  0  0  0
    2.3442    3.2321   -0.0921 H   0  0  0  0  0  0  0  0  0  0  0  0
    0.7239    3.5020   -0.7544 H   0  0  0  0  0  0  0  0  0  0  0  0
    3.4080    0.3222    0.4105 H   0  0  0  0  0  0  0  0  0  0  0  0
    3.7544    0.5291    2.1284 H   0  0  0  0  0  0  0  0  0  0  0  0
    3.6744    1.9492    1.0731 H   0  0  0  0  0  0  0  0  0  0  0  0
   -1.2759    1.5918   -1.6792 N   0  0  0  0  0  0  0  0  0  0  0  0
   -1.9317    2.0528   -2.8818 C   0  0  2  0  0  0  0  0  0  0  0  0
   -1.0755    1.6404   -4.0719 C   0  0  0  0  0  0  0  0  0  0  0  0
    0.1258    1.3959   -3.9814 O   0  0  0  0  0  0  0  0  0  0  0  0
   -2.1381    3.5592   -2.8567 C   0  0  0  0  0  0  0  0  0  0  0  0
   -0.6692    0.7796   -1.7416 H   0  0  0  0  0  0  0  0  0  0  0  0
   -2.8984    1.5398   -2.9313 H   0  0  0  0  0  0  0  0  0  0  0  0
   -1.1805    4.0902   -2.8071 H   0  0  0  0  0  0  0  0  0  0  0  0
   -2.6605    3.9031   -3.7555 H   0  0  0  0  0  0  0  0  0  0  0  0
   -2.7290    3.8572   -1.9838 H   0  0  0  0  0  0  0  0  0  0  0  0
   -1.8014    1.6193   -5.2546 N   0  0  0  0  0  0  0  0  0  0  0  0
   -1.2107    1.2714   -6.5258 C   0  0  0  0  0  0  0  0  0  0  0  0
   -2.7974    1.8177   -5.2333 H   0  0  0  0  0  0  0  0  0  0  0  0
   -0.8650    2.1846   -7.0324 H   0  0  0  0  0  0  0  0  0  0  0  0
   -0.3567    0.5979   -6.3611 H   0  0  0  0  0  0  0  0  0  0  0  0
   -1.9605    0.7661   -7.1524 H   0  0  0  0  0  0  0  0  0  0  0  0
  1  3  1  0  0  0  0
  1  7  1  0  0  0  0
  1  2  2  0  0  0  0
 37 38  1  0  0  0  0
 38 46  1  0  0  0  0
 38 39  2  0  0  0  0
  8  9  1  0  0  0  0
  9 17  1  0  0  0  0
  9 10  2  0  0  0  0
 18 19  1  0  0  0  0
 19 36  1  0  0  0  0
 19 20  2  0  0  0  0
 22 24  1  0  0  0  0
 37 40  1  0  0  0  0
  8 11  1  0  0  0  0
 21 23  1  0  0  0  0
 46 47  1  0  0  0  0
 21 22  1  0  0  0  0
 36 37  1  0  0  0  0
  7  8  1  0  0  0  0
 18 21  1  0  0  0  0
 17 18  1  0  0  0  0
  3  4  1  0  0  0  0
  3  5  1  0  0  0  0
  3  6  1  0  0  0  0
 24 33  1  0  0  0  0
 24 34  1  0  0  0  0
 24 35  1  0  0  0  0
 40 43  1  0  0  0  0
 40 44  1  0  0  0  0
 40 45  1  0  0  0  0
 11 14  1  0  0  0  0
 11 15  1  0  0  0  0
 11 16  1  0  0  0  0
 23 30  1  0  0  0  0
 23 31  1  0  0  0  0
 23 32  1  0  0  0  0
 47 49  1  0  0  0  0
 47 50  1  0  0  0  0
 47 51  1  0  0  0  0
 22 28  1  0  0  0  0
 22 29  1  0  0  0  0
 37 42  1  0  0  0  0
  8 13  1  0  0  0  0
 18 26  1  0  0  0  0
 21 27  1  0  0  0  0
 46 48  1  0  0  0  0
  7 12  1  0  0  0  0
 36 41  1  0  0  0  0
 17 25  1  0  0  0  0
M  END
$$$$

  -OEChem-05262214473D

 51 50  0     1  0  0  0  0  0999 V2000
    1.3524   -3.0009    1.4091 C   0  0  0  0  0  0  0  0  0  0  0  0
    1.8758   -1.9880    0.9598 O   0  0  0  0  0  0  0  0  0  0  0  0
    2.2030   -4.1782    1.7536 C   0  0  0  0  0  0  0  0  0  0  0  0
    2.3264   -4.8705    0.9053 H   0  0  0  0  0  0  0  0  0  0  0  0
    3.2257   -3.8876    2.0432 H   0  0  0  0  0  0  0  0  0  0  0  0
    1.8327   -4.8004    2.5839 H   0  0  0  0  0  0  0  0  0  0  0  0
    0.0005   -3.1873    1.6465 N   0  0  0  0  0  0  0  0  0  0  0  0
   -0.9949   -2.1807    1.3864 C   0  0  2  0  0  0  0  0  0  0  0  0
   -0.3083   -0.8216    1.4164 C   0  0  0  0  0  0  0  0  0  0  0  0
    0.7533   -0.6191    2.0022 O   0  0  0  0  0  0  0  0  0  0  0  0
   -2.1232   -2.2423    2.4042 C   0  0  0  0  0  0  0  0  0  0  0  0
   -0.3048   -4.0823    2.0245 H   0  0  0  0  0  0  0  0  0  0  0  0
   -1.3830   -2.3724    0.3801 H   0  0  0  0  0  0  0  0  0  0  0  0
   -1.7534   -2.0527    3.4185 H   0  0  0  0  0  0  0  0  0  0  0  0
   -2.8936   -1.4947    2.1882 H   0  0  0  0  0  0  0  0  0  0  0  0
   -2.5964   -3.2301    2.4022 H   0  0  0  0  0  0  0  0  0  0  0  0
   -1.0412    0.1517    0.7482 N   0  0  0  0  0  0  0  0  0  0  0  0
   -0.6079    1.5223    0.6467 C   0  0  2  0  0  0  0  0  0  0  0  0
   -1.4338    2.2034   -0.4437 C   0  0  0  0  0  0  0  0  0  0  0  0
   -1.9093    3.3299   -0.3158 O   0  0  0  0  0  0  0  0  0  0  0  0
    0.9153    1.6586    0.4081 C   0  0  2  0  0  0  0  0  0  0  0  0
    1.7439    1.0954    1.5840 C   0  0  0  0  0  0  0  0  0  0  0  0
    1.2748    3.1206    0.1116 C   0  0  0  0  0  0  0  0  0  0  0  0
    3.2300    0.9694    1.2739 C   0  0  0  0  0  0  0  0  0  0  0  0
   -1.9022   -0.1128    0.2753 H   0  0  0  0  0  0  0  0  0  0  0  0
   -0.8759    1.9930    1.6013 H   0  0  0  0  0  0  0  0  0  0  0  0
    1.1708    1.0775   -0.4880 H   0  0  0  0  0  0  0  0  0  0  0  0
    1.6410    1.7536    2.4544 H   0  0  0  0  0  0  0  0  0  0  0  0
    1.3631    0.1117    1.8835 H   0  0  0  0  0  0  0  0  0  0  0  0
    1.0438    3.7602    0.9702 H   0  0  0  0  0  0  0  0  0  0  0  0
    2.3442    3.2321   -0.0921 H   0  0  0  0  0  0  0  0  0  0  0  0
    0.7239    3.5020   -0.7544 H   0  0  0  0  0  0  0  0  0  0  0  0
    3.4080    0.3222    0.4105 H   0  0  0  0  0  0  0  0  0  0  0  0
    3.7544    0.5291    2.1284 H   0  0  0  0  0  0  0  0  0  0  0  0
    3.6744    1.9492    1.0731 H   0  0  0  0  0  0  0  0  0  0  0  0
   -1.5464    1.4186   -1.5825 N   0  0  0  0  0  0  0  0  0  0  0  0
   -2.2596    1.8383   -2.7674 C   0  0  2  0  0  0  0  0  0  0  0  0
   -1.6498    1.1184   -3.9630 C   0  0  0  0  0  0  0  0  0  0  0  0
   -0.5090    0.6606   -3.9600 O   0  0  0  0  0  0  0  0  0  0  0  0
   -2.1919    3.3467   -2.9487 C   0  0  0  0  0  0  0  0  0  0  0  0
   -1.1057    0.5035   -1.5834 H   0  0  0  0  0  0  0  0  0  0  0  0
   -3.2998    1.5194   -2.6400 H   0  0  0  0  0  0  0  0  0  0  0  0
   -1.1573    3.6849   -3.0779 H   0  0  0  0  0  0  0  0  0  0  0  0
   -2.7565    3.6660   -3.8309 H   0  0  0  0  0  0  0  0  0  0  0  0
   -2.6038    3.8631   -2.0749 H   0  0  0  0  0  0  0  0  0  0  0  0
   -2.5138    1.0854   -5.0486 N   0  0  0  0  0  0  0  0  0  0  0  0
   -2.1621    0.4689   -6.3065 C   0  0  0  0  0  0  0  0  0  0  0  0
   -3.4480    1.4732   -4.9556 H   0  0  0  0  0  0  0  0  0  0  0  0
   -1.7287    1.2251   -6.9775 H   0  0  0  0  0  0  0  0  0  0  0  0
   -1.4264   -0.3296   -6.1303 H   0  0  0  0  0  0  0  0  0  0  0  0
   -3.0635    0.0413   -6.7698 H   0  0  0  0  0  0  0  0  0  0  0  0
  1  3  1  0  0  0  0
  1  7  1  0  0  0  0
  1  2  2  0  0  0  0
 37 38  1  0  0  0  0
 38 46  1  0  0  0  0
 38 39  2  0  0  0  0
  8  9  1  0  0  0  0
  9 17  1  0  0  0  0
  9 10  2  0  0  0  0
 18 19  1  0  0  0  0
 19 36  1  0  0  0  0
 19 20  2  0  0  0  0
 22 24  1  0  0  0  0
 37 40  1  0  0  0  0
  8 11  1  0  0  0  0
 21 23  1  0  0  0  0
 46 47  1  0  0  0  0
 21 22  1  0  0  0  0
 36 37  1  0  0  0  0
  7  8  1  0  0  0  0
 18 21  1  0  0  0  0
 17 18  1  0  0  0  0
  3  4  1  0  0  0  0
  3  5  1  0  0  0  0
  3  6  1  0  0  0  0
 24 33  1  0  0  0  0
 24 34  1  0  0  0  0
 24 35  1  0  0  0  0
 40 43  1  0  0  0  0
 40 44  1  0  0  0  0
 40 45  1  0  0  0  0
 11 14  1  0  0  0  0
 11 15  1  0  0  0  0
 11 16  1  0  0  0  0
 23 30  1  0  0  0  0
 23 31  1  0  0  0  0
 23 32  1  0  0  0  0
 47 49  1  0  0  0  0
 47 50  1  0  0  0  0
 47 51  1  0  0  0  0
 22 28  1  0  0  0  0
 22 29  1  0  0  0  0
 37 42  1  0  0  0  0
  8 13  1  0  0  0  0
 18 26  1  0  0  0  0
 21 27  1  0  0  0  0
 46 48  1  0  0  0  0
  7 12  1  0  0  0  0
 36 41  1  0  0  0  0
 17 25  1  0  0  0  0
M  END
$$$$

  -OEChem-05262214473D

 51 50  0     1  0  0  0  0  0999 V2000
    1.3524   -3.0009    1.4091 C   0  0  0  0  0  0  0  0  0  0  0  0
    1.8758   -1.9880    0.9598 O   0  0  0  0  0  0  0  0  0  0  0  0
    2.2030   -4.1782    1.7536 C   0  0  0  0  0  0  0  0  0  0  0  0
    2.3264   -4.8705    0.9053 H   0  0  0  0  0  0  0  0  0  0  0  0
    3.2257   -3.8876    2.0432 H   0  0  0  0  0  0  0  0  0  0  0  0
    1.8327   -4.8004    2.5839 H   0  0  0  0  0  0  0  0  0  0  0  0
    0.0005   -3.1873    1.6465 N   0  0  0  0  0  0  0  0  0  0  0  0
   -0.9949   -2.1807    1.3864 C   0  0  2  0  0  0  0  0  0  0  0  0
   -0.3083   -0.8216    1.4164 C   0  0  0  0  0  0  0  0  0  0  0  0
    0.7533   -0.6191    2.0022 O   0  0  0  0  0  0  0  0  0  0  0  0
   -2.1232   -2.2423    2.4042 C   0  0  0  0  0  0  0  0  0  0  0  0
   -0.3048   -4.0823    2.0245 H   0  0  0  0  0  0  0  0  0  0  0  0
   -1.3830   -2.3724    0.3801 H   0  0  0  0  0  0  0  0  0  0  0  0
   -1.7534   -2.0527    3.4185 H   0  0  0  0  0  0  0  0  0  0  0  0
   -2.8936   -1.4947    2.1882 H   0  0  0  0  0  0  0  0  0  0  0  0
   -2.5964   -3.2301    2.4022 H   0  0  0  0  0  0  0  0  0  0  0  0
   -1.0412    0.1517    0.7482 N   0  0  0  0  0  0  0  0  0  0  0  0
   -0.6079    1.5223    0.6467 C   0  0  2  0  0  0  0  0  0  0  0  0
   -1.4338    2.2034   -0.4437 C   0  0  0  0  0  0  0  0  0  0  0  0
   -1.6826    3.4074   -0.4391 O   0  0  0  0  0  0  0  0  0  0  0  0
    0.9153    1.6586    0.4081 C   0  0  2  0  0  0  0  0  0  0  0  0
    1.7439    1.0954    1.5840 C   0  0  0  0  0  0  0  0  0  0  0  0
    1.2748    3.1206    0.1116 C   0  0  0  0  0  0  0  0  0  0  0  0
    3.2300    0.9694    1.2739 C   0  0  0  0  0  0  0  0  0  0  0  0
   -1.9022   -0.1128    0.2753 H   0  0  0  0  0  0  0  0  0  0  0  0
   -0.8759    1.9930    1.6013 H   0  0  0  0  0  0  0  0  0  0  0  0
    1.1708    1.0775   -0.4880 H   0  0  0  0  0  0  0  0  0  0  0  0
    1.6410    1.7536    2.4544 H   0  0  0  0  0  0  0  0  0  0  0  0
    1.3631    0.1117    1.8835 H   0  0  0  0  0  0  0  0  0  0  0  0
    1.0438    3.7602    0.9702 H   0  0  0  0  0  0  0  0  0  0  0  0
    2.3442    3.2321   -0.0921 H   0  0  0  0  0  0  0  0  0  0  0  0
    0.7239    3.5020   -0.7544 H   0  0  0  0  0  0  0  0  0  0  0  0
    3.4080    0.3222    0.4105 H   0  0  0  0  0  0  0  0  0  0  0  0
    3.7544    0.5291    2.1284 H   0  0  0  0  0  0  0  0  0  0  0  0
    3.6744    1.9492    1.0731 H   0  0  0  0  0  0  0  0  0  0  0  0
   -1.8286    1.3148   -1.4337 N   0  0  0  0  0  0  0  0  0  0  0  0
   -2.6027    1.7077   -2.5891 C   0  0  2  0  0  0  0  0  0  0  0  0
   -2.2883    0.7356   -3.7186 C   0  0  0  0  0  0  0  0  0  0  0  0
   -1.2554    0.0705   -3.7632 O   0  0  0  0  0  0  0  0  0  0  0  0
   -2.2938    3.1385   -3.0017 C   0  0  0  0  0  0  0  0  0  0  0  0
   -1.5601    0.3396   -1.3417 H   0  0  0  0  0  0  0  0  0  0  0  0
   -3.6577    1.6146   -2.3095 H   0  0  0  0  0  0  0  0  0  0  0  0
   -1.2410    3.2512   -3.2854 H   0  0  0  0  0  0  0  0  0  0  0  0
   -2.9018    3.4441   -3.8595 H   0  0  0  0  0  0  0  0  0  0  0  0
   -2.4922    3.8330   -2.1782 H   0  0  0  0  0  0  0  0  0  0  0  0
   -3.2768    0.7300   -4.6927 N   0  0  0  0  0  0  0  0  0  0  0  0
   -3.2040   -0.0998   -5.8725 C   0  0  0  0  0  0  0  0  0  0  0  0
   -4.1081    1.2994   -4.5642 H   0  0  0  0  0  0  0  0  0  0  0  0
   -2.7338    0.4655   -6.6906 H   0  0  0  0  0  0  0  0  0  0  0  0
   -2.6043   -0.9957   -5.6541 H   0  0  0  0  0  0  0  0  0  0  0  0
   -4.2187   -0.4017   -6.1715 H   0  0  0  0  0  0  0  0  0  0  0  0
  1  3  1  0  0  0  0
  1  7  1  0  0  0  0
  1  2  2  0  0  0  0
 37 38  1  0  0  0  0
 38 46  1  0  0  0  0
 38 39  2  0  0  0  0
  8  9  1  0  0  0  0
  9 17  1  0  0  0  0
  9 10  2  0  0  0  0
 18 19  1  0  0  0  0
 19 36  1  0  0  0  0
 19 20  2  0  0  0  0
 22 24  1  0  0  0  0
 37 40  1  0  0  0  0
  8 11  1  0  0  0  0
 21 23  1  0  0  0  0
 46 47  1  0  0  0  0
 21 22  1  0  0  0  0
 36 37  1  0  0  0  0
  7  8  1  0  0  0  0
 18 21  1  0  0  0  0
 17 18  1  0  0  0  0
  3  4  1  0  0  0  0
  3  5  1  0  0  0  0
  3  6  1  0  0  0  0
 24 33  1  0  0  0  0
 24 34  1  0  0  0  0
 24 35  1  0  0  0  0
 40 43  1  0  0  0  0
 40 44  1  0  0  0  0
 40 45  1  0  0  0  0
 11 14  1  0  0  0  0
 11 15  1  0  0  0  0
 11 16  1  0  0  0  0
 23 30  1  0  0  0  0
 23 31  1  0  0  0  0
 23 32  1  0  0  0  0
 47 49  1  0  0  0  0
 47 50  1  0  0  0  0
 47 51  1  0  0  0  0
 22 28  1  0  0  0  0
 22 29  1  0  0  0  0
 37 42  1  0  0  0  0
  8 13  1  0  0  0  0
 18 26  1  0  0  0  0
 21 27  1  0  0  0  0
 46 48  1  0  0  0  0
  7 12  1  0  0  0  0
 36 41  1  0  0  0  0
 17 25  1  0  0  0  0
M  END
$$$$

  -OEChem-05262214473D

 51 50  0     1  0  0  0  0  0999 V2000
    1.3524   -3.0009    1.4091 C   0  0  0  0  0  0  0  0  0  0  0  0
    1.8758   -1.9880    0.9598 O   0  0  0  0  0  0  0  0  0  0  0  0
    2.2030   -4.1782    1.7536 C   0  0  0  0  0  0  0  0  0  0  0  0
    2.3264   -4.8705    0.9053 H   0  0  0  0  0  0  0  0  0  0  0  0
    3.2257   -3.8876    2.0432 H   0  0  0  0  0  0  0  0  0  0  0  0
    1.8327   -4.8004    2.5839 H   0  0  0  0  0  0  0  0  0  0  0  0
    0.0005   -3.1873    1.6465 N   0  0  0  0  0  0  0  0  0  0  0  0
   -0.9949   -2.1807    1.3864 C   0  0  2  0  0  0  0  0  0  0  0  0
   -0.3083   -0.8216    1.4164 C   0  0  0  0  0  0  0  0  0  0  0  0
    0.7533   -0.6191    2.0022 O   0  0  0  0  0  0  0  0  0  0  0  0
   -2.1232   -2.2423    2.4042 C   0  0  0  0  0  0  0  0  0  0  0  0
   -0.3048   -4.0823    2.0245 H   0  0  0  0  0  0  0  0  0  0  0  0
   -1.3830   -2.3724    0.3801 H   0  0  0  0  0  0  0  0  0  0  0  0
   -1.7534   -2.0527    3.4185 H   0  0  0  0  0  0  0  0  0  0  0  0
   -2.8936   -1.4947    2.1882 H   0  0  0  0  0  0  0  0  0  0  0  0
   -2.5964   -3.2301    2.4022 H   0  0  0  0  0  0  0  0  0  0  0  0
   -1.0412    0.1517    0.7482 N   0  0  0  0  0  0  0  0  0  0  0  0
   -0.6079    1.5223    0.6467 C   0  0  2  0  0  0  0  0  0  0  0  0
   -1.4338    2.2034   -0.4437 C   0  0  0  0  0  0  0  0  0  0  0  0
   -1.4635    3.4231   -0.5952 O   0  0  0  0  0  0  0  0  0  0  0  0
    0.9153    1.6586    0.4081 C   0  0  2  0  0  0  0  0  0  0  0  0
    1.7439    1.0954    1.5840 C   0  0  0  0  0  0  0  0  0  0  0  0
    1.2748    3.1206    0.1116 C   0  0  0  0  0  0  0  0  0  0  0  0
    3.2300    0.9694    1.2739 C   0  0  0  0  0  0  0  0  0  0  0  0
   -1.9022   -0.1128    0.2753 H   0  0  0  0  0  0  0  0  0  0  0  0
   -0.8759    1.9930    1.6013 H   0  0  0  0  0  0  0  0  0  0  0  0
    1.1708    1.0775   -0.4880 H   0  0  0  0  0  0  0  0  0  0  0  0
    1.6410    1.7536    2.4544 H   0  0  0  0  0  0  0  0  0  0  0  0
    1.3631    0.1117    1.8835 H   0  0  0  0  0  0  0  0  0  0  0  0
    1.0438    3.7602    0.9702 H   0  0  0  0  0  0  0  0  0  0  0  0
    2.3442    3.2321   -0.0921 H   0  0  0  0  0  0  0  0  0  0  0  0
    0.7239    3.5020   -0.7544 H   0  0  0  0  0  0  0  0  0  0  0  0
    3.4080    0.3222    0.4105 H   0  0  0  0  0  0  0  0  0  0  0  0
    3.7544    0.5291    2.1284 H   0  0  0  0  0  0  0  0  0  0  0  0
    3.6744    1.9492    1.0731 H   0  0  0  0  0  0  0  0  0  0  0  0
   -2.1031    1.2875   -1.2429 N   0  0  0  0  0  0  0  0  0  0  0  0
   -2.9376    1.6698   -2.3590 C   0  0  2  0  0  0  0  0  0  0  0  0
   -2.9475    0.5179   -3.3552 C   0  0  0  0  0  0  0  0  0  0  0  0
   -2.0627   -0.3340   -3.4044 O   0  0  0  0  0  0  0  0  0  0  0  0
   -2.4367    2.9487   -3.0119 C   0  0  0  0  0  0  0  0  0  0  0  0
   -2.0014    0.2989   -1.0328 H   0  0  0  0  0  0  0  0  0  0  0  0
   -3.9478    1.8190   -1.9622 H   0  0  0  0  0  0  0  0  0  0  0  0
   -1.4259    2.8187   -3.4155 H   0  0  0  0  0  0  0  0  0  0  0  0
   -3.0863    3.2526   -3.8393 H   0  0  0  0  0  0  0  0  0  0  0  0
   -2.4020    3.7688   -2.2867 H   0  0  0  0  0  0  0  0  0  0  0  0
   -4.0384    0.5774   -4.2112 N   0  0  0  0  0  0  0  0  0  0  0  0
   -4.2654   -0.3960   -5.2537 C   0  0  0  0  0  0  0  0  0  0  0  0
   -4.7326    1.3082   -4.0857 H   0  0  0  0  0  0  0  0  0  0  0  0
   -3.8119   -0.0424   -6.1914 H   0  0  0  0  0  0  0  0  0  0  0  0
   -3.8103   -1.3550   -4.9652 H   0  0  0  0  0  0  0  0  0  0  0  0
   -5.3473   -0.5325   -5.3984 H   0  0  0  0  0  0  0  0  0  0  0  0
  1  3  1  0  0  0  0
  1  7  1  0  0  0  0
  1  2  2  0  0  0  0
 37 38  1  0  0  0  0
 38 46  1  0  0  0  0
 38 39  2  0  0  0  0
  8  9  1  0  0  0  0
  9 17  1  0  0  0  0
  9 10  2  0  0  0  0
 18 19  1  0  0  0  0
 19 36  1  0  0  0  0
 19 20  2  0  0  0  0
 22 24  1  0  0  0  0
 37 40  1  0  0  0  0
  8 11  1  0  0  0  0
 21 23  1  0  0  0  0
 46 47  1  0  0  0  0
 21 22  1  0  0  0  0
 36 37  1  0  0  0  0
  7  8  1  0  0  0  0
 18 21  1  0  0  0  0
 17 18  1  0  0  0  0
  3  4  1  0  0  0  0
  3  5  1  0  0  0  0
  3  6  1  0  0  0  0
 24 33  1  0  0  0  0
 24 34  1  0  0  0  0
 24 35  1  0  0  0  0
 40 43  1  0  0  0  0
 40 44  1  0  0  0  0
 40 45  1  0  0  0  0
 11 14  1  0  0  0  0
 11 15  1  0  0  0  0
 11 16  1  0  0  0  0
 23 30  1  0  0  0  0
 23 31  1  0  0  0  0
 23 32  1  0  0  0  0
 47 49  1  0  0  0  0
 47 50  1  0  0  0  0
 47 51  1  0  0  0  0
 22 28  1  0  0  0  0
 22 29  1  0  0  0  0
 37 42  1  0  0  0  0
  8 13  1  0  0  0  0
 18 26  1  0  0  0  0
 21 27  1  0  0  0  0
 46 48  1  0  0  0  0
  7 12  1  0  0  0  0
 36 41  1  0  0  0  0
 17 25  1  0  0  0  0
M  END
$$$$

  -OEChem-05262214473D

 51 50  0     1  0  0  0  0  0999 V2000
    1.3524   -3.0009    1.4091 C   0  0  0  0  0  0  0  0  0  0  0  0
    1.8758   -1.9880    0.9598 O   0  0  0  0  0  0  0  0  0  0  0  0
    2.2030   -4.1782    1.7536 C   0  0  0  0  0  0  0  0  0  0  0  0
    2.3264   -4.8705    0.9053 H   0  0  0  0  0  0  0  0  0  0  0  0
    3.2257   -3.8876    2.0432 H   0  0  0  0  0  0  0  0  0  0  0  0
    1.8327   -4.8004    2.5839 H   0  0  0  0  0  0  0  0  0  0  0  0
    0.0005   -3.1873    1.6465 N   0  0  0  0  0  0  0  0  0  0  0  0
   -0.9949   -2.1807    1.3864 C   0  0  2  0  0  0  0  0  0  0  0  0
   -0.3083   -0.8216    1.4164 C   0  0  0  0  0  0  0  0  0  0  0  0
    0.7533   -0.6191    2.0022 O   0  0  0  0  0  0  0  0  0  0  0  0
   -2.1232   -2.2423    2.4042 C   0  0  0  0  0  0  0  0  0  0  0  0
   -0.3048   -4.0823    2.0245 H   0  0  0  0  0  0  0  0  0  0  0  0
   -1.3830   -2.3724    0.3801 H   0  0  0  0  0  0  0  0  0  0  0  0
   -1.7534   -2.0527    3.4185 H   0  0  0  0  0  0  0  0  0  0  0  0
   -2.8936   -1.4947    2.1882 H   0  0  0  0  0  0  0  0  0  0  0  0
   -2.5964   -3.2301    2.4022 H   0  0  0  0  0  0  0  0  0  0  0  0
   -1.0412    0.1517    0.7482 N   0  0  0  0  0  0  0  0  0  0  0  0
   -0.6079    1.5223    0.6467 C   0  0  2  0  0  0  0  0  0  0  0  0
   -1.4338    2.2034   -0.4437 C   0  0  0  0  0  0  0  0  0  0  0  0
   -1.2670    3.3760   -0.7735 O   0  0  0  0  0  0  0  0  0  0  0  0
    0.9153    1.6586    0.4081 C   0  0  2  0  0  0  0  0  0  0  0  0
    1.7439    1.0954    1.5840 C   0  0  0  0  0  0  0  0  0  0  0  0
    1.2748    3.1206    0.1116 C   0  0  0  0  0  0  0  0  0  0  0  0
    3.2300    0.9694    1.2739 C   0  0  0  0  0  0  0  0  0  0  0  0
   -1.9022   -0.1128    0.2753 H   0  0  0  0  0  0  0  0  0  0  0  0
   -0.8759    1.9930    1.6013 H   0  0  0  0  0  0  0  0  0  0  0  0
    1.1708    1.0775   -0.4880 H   0  0  0  0  0  0  0  0  0  0  0  0
    1.6410    1.7536    2.4544 H   0  0  0  0  0  0  0  0  0  0  0  0
    1.3631    0.1117    1.8835 H   0  0  0  0  0  0  0  0  0  0  0  0
    1.0438    3.7602    0.9702 H   0  0  0  0  0  0  0  0  0  0  0  0
    2.3442    3.2321   -0.0921 H   0  0  0  0  0  0  0  0  0  0  0  0
    0.7239    3.5020   -0.7544 H   0  0  0  0  0  0  0  0  0  0  0  0
    3.4080    0.3222    0.4105 H   0  0  0  0  0  0  0  0  0  0  0  0
    3.7544    0.5291    2.1284 H   0  0  0  0  0  0  0  0  0  0  0  0
    3.6744    1.9492    1.0731 H   0  0  0  0  0  0  0  0  0  0  0  0
   -2.3513    1.3385   -1.0230 N   0  0  0  0  0  0  0  0  0  0  0  0
   -3.2416    1.7273   -2.0929 C   0  0  2  0  0  0  0  0  0  0  0  0
   -3.5826    0.4802   -2.8978 C   0  0  0  0  0  0  0  0  0  0  0  0
   -2.8758   -0.5255   -2.9082 O   0  0  0  0  0  0  0  0  0  0  0  0
   -2.6110    2.7904   -2.9788 C   0  0  0  0  0  0  0  0  0  0  0  0
   -2.3995    0.3844   -0.6779 H   0  0  0  0  0  0  0  0  0  0  0  0
   -4.1501    2.1184   -1.6219 H   0  0  0  0  0  0  0  0  0  0  0  0
   -1.6994    2.4168   -3.4593 H   0  0  0  0  0  0  0  0  0  0  0  0
   -3.2976    3.1045   -3.7718 H   0  0  0  0  0  0  0  0  0  0  0  0
   -2.3392    3.6750   -2.3928 H   0  0  0  0  0  0  0  0  0  0  0  0
   -4.7466    0.6381   -3.6369 N   0  0  0  0  0  0  0  0  0  0  0  0
   -5.2740   -0.3995   -4.4920 C   0  0  0  0  0  0  0  0  0  0  0  0
   -5.2790    1.4990   -3.5527 H   0  0  0  0  0  0  0  0  0  0  0  0
   -4.8894   -0.2640   -5.5137 H   0  0  0  0  0  0  0  0  0  0  0  0
   -4.9619   -1.3828   -4.1103 H   0  0  0  0  0  0  0  0  0  0  0  0
   -6.3724   -0.3422   -4.5032 H   0  0  0  0  0  0  0  0  0  0  0  0
  1  3  1  0  0  0  0
  1  7  1  0  0  0  0
  1  2  2  0  0  0  0
 37 38  1  0  0  0  0
 38 46  1  0  0  0  0
 38 39  2  0  0  0  0
  8  9  1  0  0  0  0
  9 17  1  0  0  0  0
  9 10  2  0  0  0  0
 18 19  1  0  0  0  0
 19 36  1  0  0  0  0
 19 20  2  0  0  0  0
 22 24  1  0  0  0  0
 37 40  1  0  0  0  0
  8 11  1  0  0  0  0
 21 23  1  0  0  0  0
 46 47  1  0  0  0  0
 21 22  1  0  0  0  0
 36 37  1  0  0  0  0
  7  8  1  0  0  0  0
 18 21  1  0  0  0  0
 17 18  1  0  0  0  0
  3  4  1  0  0  0  0
  3  5  1  0  0  0  0
  3  6  1  0  0  0  0
 24 33  1  0  0  0  0
 24 34  1  0  0  0  0
 24 35  1  0  0  0  0
 40 43  1  0  0  0  0
 40 44  1  0  0  0  0
 40 45  1  0  0  0  0
 11 14  1  0  0  0  0
 11 15  1  0  0  0  0
 11 16  1  0  0  0  0
 23 30  1  0  0  0  0
 23 31  1  0  0  0  0
 23 32  1  0  0  0  0
 47 49  1  0  0  0  0
 47 50  1  0  0  0  0
 47 51  1  0  0  0  0
 22 28  1  0  0  0  0
 22 29  1  0  0  0  0
 37 42  1  0  0  0  0
  8 13  1  0  0  0  0
 18 26  1  0  0  0  0
 21 27  1  0  0  0  0
 46 48  1  0  0  0  0
  7 12  1  0  0  0  0
 36 41  1  0  0  0  0
 17 25  1  0  0  0  0
M  END
$$$$

  -OEChem-05262214473D

 51 50  0     1  0  0  0  0  0999 V2000
    1.3524   -3.0009    1.4091 C   0  0  0  0  0  0  0  0  0  0  0  0
    1.8758   -1.9880    0.9598 O   0  0  0  0  0  0  0  0  0  0  0  0
    2.2030   -4.1782    1.7536 C   0  0  0  0  0  0  0  0  0  0  0  0
    2.3264   -4.8705    0.9053 H   0  0  0  0  0  0  0  0  0  0  0  0
    3.2257   -3.8876    2.0432 H   0  0  0  0  0  0  0  0  0  0  0  0
    1.8327   -4.8004    2.5839 H   0  0  0  0  0  0  0  0  0  0  0  0
    0.0005   -3.1873    1.6465 N   0  0  0  0  0  0  0  0  0  0  0  0
   -0.9949   -2.1807    1.3864 C   0  0  2  0  0  0  0  0  0  0  0  0
   -0.3083   -0.8216    1.4164 C   0  0  0  0  0  0  0  0  0  0  0  0
    0.7533   -0.6191    2.0022 O   0  0  0  0  0  0  0  0  0  0  0  0
   -2.1232   -2.2423    2.4042 C   0  0  0  0  0  0  0  0  0  0  0  0
   -0.3048   -4.0823    2.0245 H   0  0  0  0  0  0  0  0  0  0  0  0
   -1.3830   -2.3724    0.3801 H   0  0  0  0  0  0  0  0  0  0  0  0
   -1.7534   -2.0527    3.4185 H   0  0  0  0  0  0  0  0  0  0  0  0
   -2.8936   -1.4947    2.1882 H   0  0  0  0  0  0  0  0  0  0  0  0
   -2.5964   -3.2301    2.4022 H   0  0  0  0  0  0  0  0  0  0  0  0
   -1.0412    0.1517    0.7482 N   0  0  0  0  0  0  0  0  0  0  0  0
   -0.6079    1.5223    0.6467 C   0  0  2  0  0  0  0  0  0  0  0  0
   -1.4338    2.2034   -0.4437 C   0  0  0  0  0  0  0  0  0  0  0  0
   -1.1064    3.2692   -0.9618 O   0  0  0  0  0  0  0  0  0  0  0  0
    0.9153    1.6586    0.4081 C   0  0  2  0  0  0  0  0  0  0  0  0
    1.7439    1.0954    1.5840 C   0  0  0  0  0  0  0  0  0  0  0  0
    1.2748    3.1206    0.1116 C   0  0  0  0  0  0  0  0  0  0  0  0
    3.2300    0.9694    1.2739 C   0  0  0  0  0  0  0  0  0  0  0  0
   -1.9022   -0.1128    0.2753 H   0  0  0  0  0  0  0  0  0  0  0  0
   -0.8759    1.9930    1.6013 H   0  0  0  0  0  0  0  0  0  0  0  0
    1.1708    1.0775   -0.4880 H   0  0  0  0  0  0  0  0  0  0  0  0
    1.6410    1.7536    2.4544 H   0  0  0  0  0  0  0  0  0  0  0  0
    1.3631    0.1117    1.8835 H   0  0  0  0  0  0  0  0  0  0  0  0
    1.0438    3.7602    0.9702 H   0  0  0  0  0  0  0  0  0  0  0  0
    2.3442    3.2321   -0.0921 H   0  0  0  0  0  0  0  0  0  0  0  0
    0.7239    3.5020   -0.7544 H   0  0  0  0  0  0  0  0  0  0  0  0
    3.4080    0.3222    0.4105 H   0  0  0  0  0  0  0  0  0  0  0  0
    3.7544    0.5291    2.1284 H   0  0  0  0  0  0  0  0  0  0  0  0
    3.6744    1.9492    1.0731 H   0  0  0  0  0  0  0  0  0  0  0  0
   -2.5562    1.4643   -0.7892 N   0  0  0  0  0  0  0  0  0  0  0  0
   -3.4940    1.8763   -1.8088 C   0  0  2  0  0  0  0  0  0  0  0  0
   -4.1503    0.6251   -2.3773 C   0  0  0  0  0  0  0  0  0  0  0  0
   -3.6393   -0.4908   -2.3083 O   0  0  0  0  0  0  0  0  0  0  0  0
   -2.8047    2.6743   -2.9045 C   0  0  0  0  0  0  0  0  0  0  0  0
   -2.7273    0.5901   -0.3011 H   0  0  0  0  0  0  0  0  0  0  0  0
   -4.2510    2.4927   -1.3118 H   0  0  0  0  0  0  0  0  0  0  0  0
   -2.0428    2.0731   -3.4139 H   0  0  0  0  0  0  0  0  0  0  0  0
   -3.5213    3.0100   -3.6614 H   0  0  0  0  0  0  0  0  0  0  0  0
   -2.3081    3.5580   -2.4895 H   0  0  0  0  0  0  0  0  0  0  0  0
   -5.3533    0.9078   -3.0089 N   0  0  0  0  0  0  0  0  0  0  0  0
   -6.1609   -0.1101   -3.6395 C   0  0  0  0  0  0  0  0  0  0  0  0
   -5.7101    1.8588   -3.0015 H   0  0  0  0  0  0  0  0  0  0  0  0
   -5.8930   -0.1843   -4.7038 H   0  0  0  0  0  0  0  0  0  0  0  0
   -5.9809   -1.0775   -3.1479 H   0  0  0  0  0  0  0  0  0  0  0  0
   -7.2242    0.1561   -3.5468 H   0  0  0  0  0  0  0  0  0  0  0  0
  1  3  1  0  0  0  0
  1  7  1  0  0  0  0
  1  2  2  0  0  0  0
 37 38  1  0  0  0  0
 38 46  1  0  0  0  0
 38 39  2  0  0  0  0
  8  9  1  0  0  0  0
  9 17  1  0  0  0  0
  9 10  2  0  0  0  0
 18 19  1  0  0  0  0
 19 36  1  0  0  0  0
 19 20  2  0  0  0  0
 22 24  1  0  0  0  0
 37 40  1  0  0  0  0
  8 11  1  0  0  0  0
 21 23  1  0  0  0  0
 46 47  1  0  0  0  0
 21 22  1  0  0  0  0
 36 37  1  0  0  0  0
  7  8  1  0  0  0  0
 18 21  1  0  0  0  0
 17 18  1  0  0  0  0
  3  4  1  0  0  0  0
  3  5  1  0  0  0  0
  3  6  1  0  0  0  0
 24 33  1  0  0  0  0
 24 34  1  0  0  0  0
 24 35  1  0  0  0  0
 40 43  1  0  0  0  0
 40 44  1  0  0  0  0
 40 45  1  0  0  0  0
 11 14  1  0  0  0  0
 11 15  1  0  0  0  0
 11 16  1  0  0  0  0
 23 30  1  0  0  0  0
 23 31  1  0  0  0  0
 23 32  1  0  0  0  0
 47 49  1  0  0  0  0
 47 50  1  0  0  0  0
 47 51  1  0  0  0  0
 22 28  1  0  0  0  0
 22 29  1  0  0  0  0
 37 42  1  0  0  0  0
  8 13  1  0  0  0  0
 18 26  1  0  0  0  0
 21 27  1  0  0  0  0
 46 48  1  0  0  0  0
  7 12  1  0  0  0  0
 36 41  1  0  0  0  0
 17 25  1  0  0  0  0
M  END
$$$$

  -OEChem-05262214473D

 51 50  0     1  0  0  0  0  0999 V2000
    1.3524   -3.0009    1.4091 C   0  0  0  0  0  0  0  0  0  0  0  0
    1.8758   -1.9880    0.9598 O   0  0  0  0  0  0  0  0  0  0  0  0
    2.2030   -4.1782    1.7536 C   0  0  0  0  0  0  0  0  0  0  0  0
    2.3264   -4.8705    0.9053 H   0  0  0  0  0  0  0  0  0  0  0  0
    3.2257   -3.8876    2.0432 H   0  0  0  0  0  0  0  0  0  0  0  0
    1.8327   -4.8004    2.5839 H   0  0  0  0  0  0  0  0  0  0  0  0
    0.0005   -3.1873    1.6465 N   0  0  0  0  0  0  0  0  0  0  0  0
   -0.9949   -2.1807    1.3864 C   0  0  2  0  0  0  0  0  0  0  0  0
   -0.3083   -0.8216    1.4164 C   0  0  0  0  0  0  0  0  0  0  0  0
    0.7533   -0.6191    2.0022 O   0  0  0  0  0  0  0  0  0  0  0  0
   -2.1232   -2.2423    2.4042 C   0  0  0  0  0  0  0  0  0  0  0  0
   -0.3048   -4.0823    2.0245 H   0  0  0  0  0  0  0  0  0  0  0  0
   -1.3830   -2.3724    0.3801 H   0  0  0  0  0  0  0  0  0  0  0  0
   -1.7534   -2.0527    3.4185 H   0  0  0  0  0  0  0  0  0  0  0  0
   -2.8936   -1.4947    2.1882 H   0  0  0  0  0  0  0  0  0  0  0  0
   -2.5964   -3.2301    2.4022 H   0  0  0  0  0  0  0  0  0  0  0  0
   -1.0412    0.1517    0.7482 N   0  0  0  0  0  0  0  0  0  0  0  0
   -0.6079    1.5223    0.6467 C   0  0  2  0  0  0  0  0  0  0  0  0
   -1.4338    2.2034   -0.4437 C   0  0  0  0  0  0  0  0  0  0  0  0
   -0.9928    3.1101   -1.1472 O   0  0  0  0  0  0  0  0  0  0  0  0
    0.9153    1.6586    0.4081 C   0  0  2  0  0  0  0  0  0  0  0  0
    1.7439    1.0954    1.5840 C   0  0  0  0  0  0  0  0  0  0  0  0
    1.2748    3.1206    0.1116 C   0  0  0  0  0  0  0  0  0  0  0  0
    3.2300    0.9694    1.2739 C   0  0  0  0  0  0  0  0  0  0  0  0
   -1.9022   -0.1128    0.2753 H   0  0  0  0  0  0  0  0  0  0  0  0
   -0.8759    1.9930    1.6013 H   0  0  0  0  0  0  0  0  0  0  0  0
    1.1708    1.0775   -0.4880 H   0  0  0  0  0  0  0  0  0  0  0  0
    1.6410    1.7536    2.4544 H   0  0  0  0  0  0  0  0  0  0  0  0
    1.3631    0.1117    1.8835 H   0  0  0  0  0  0  0  0  0  0  0  0
    1.0438    3.7602    0.9702 H   0  0  0  0  0  0  0  0  0  0  0  0
    2.3442    3.2321   -0.0921 H   0  0  0  0  0  0  0  0  0  0  0  0
    0.7239    3.5020   -0.7544 H   0  0  0  0  0  0  0  0  0  0  0  0
    3.4080    0.3222    0.4105 H   0  0  0  0  0  0  0  0  0  0  0  0
    3.7544    0.5291    2.1284 H   0  0  0  0  0  0  0  0  0  0  0  0
    3.6744    1.9492    1.0731 H   0  0  0  0  0  0  0  0  0  0  0  0
   -2.7040    1.6564   -0.5573 N   0  0  0  0  0  0  0  0  0  0  0  0
   -3.6774    2.1065   -1.5260 C   0  0  2  0  0  0  0  0  0  0  0  0
   -4.6118    0.9427   -1.8295 C   0  0  0  0  0  0  0  0  0  0  0  0
   -4.3012   -0.2324   -1.6456 O   0  0  0  0  0  0  0  0  0  0  0  0
   -3.0048    2.6084   -2.7942 C   0  0  0  0  0  0  0  0  0  0  0  0
   -2.9625    0.9021    0.0719 H   0  0  0  0  0  0  0  0  0  0  0  0
   -4.2435    2.9162   -1.0529 H   0  0  0  0  0  0  0  0  0  0  0  0
   -2.4328    1.8108   -3.2824 H   0  0  0  0  0  0  0  0  0  0  0  0
   -3.7421    2.9754   -3.5158 H   0  0  0  0  0  0  0  0  0  0  0  0
   -2.3108    3.4256   -2.5701 H   0  0  0  0  0  0  0  0  0  0  0  0
   -5.8170    1.3683   -2.3701 N   0  0  0  0  0  0  0  0  0  0  0  0
   -6.8659    0.4526   -2.7542 C   0  0  0  0  0  0  0  0  0  0  0  0
   -5.9964    2.3631   -2.4697 H   0  0  0  0  0  0  0  0  0  0  0  0
   -6.7543    0.1914   -3.8169 H   0  0  0  0  0  0  0  0  0  0  0  0
   -6.7978   -0.4597   -2.1434 H   0  0  0  0  0  0  0  0  0  0  0  0
   -7.8446    0.9286   -2.5945 H   0  0  0  0  0  0  0  0  0  0  0  0
  1  3  1  0  0  0  0
  1  7  1  0  0  0  0
  1  2  2  0  0  0  0
 37 38  1  0  0  0  0
 38 46  1  0  0  0  0
 38 39  2  0  0  0  0
  8  9  1  0  0  0  0
  9 17  1  0  0  0  0
  9 10  2  0  0  0  0
 18 19  1  0  0  0  0
 19 36  1  0  0  0  0
 19 20  2  0  0  0  0
 22 24  1  0  0  0  0
 37 40  1  0  0  0  0
  8 11  1  0  0  0  0
 21 23  1  0  0  0  0
 46 47  1  0  0  0  0
 21 22  1  0  0  0  0
 36 37  1  0  0  0  0
  7  8  1  0  0  0  0
 18 21  1  0  0  0  0
 17 18  1  0  0  0  0
  3  4  1  0  0  0  0
  3  5  1  0  0  0  0
  3  6  1  0  0  0  0
 24 33  1  0  0  0  0
 24 34  1  0  0  0  0
 24 35  1  0  0  0  0
 40 43  1  0  0  0  0
 40 44  1  0  0  0  0
 40 45  1  0  0  0  0
 11 14  1  0  0  0  0
 11 15  1  0  0  0  0
 11 16  1  0  0  0  0
 23 30  1  0  0  0  0
 23 31  1  0  0  0  0
 23 32  1  0  0  0  0
 47 49  1  0  0  0  0
 47 50  1  0  0  0  0
 47 51  1  0  0  0  0
 22 28  1  0  0  0  0
 22 29  1  0  0  0  0
 37 42  1  0  0  0  0
  8 13  1  0  0  0  0
 18 26  1  0  0  0  0
 21 27  1  0  0  0  0
 46 48  1  0  0  0  0
  7 12  1  0  0  0  0
 36 41  1  0  0  0  0
 17 25  1  0  0  0  0
M  END
$$$$

  -OEChem-05262214473D

 51 50  0     1  0  0  0  0  0999 V2000
    1.3524   -3.0009    1.4091 C   0  0  0  0  0  0  0  0  0  0  0  0
    1.8758   -1.9880    0.9598 O   0  0  0  0  0  0  0  0  0  0  0  0
    2.2030   -4.1782    1.7536 C   0  0  0  0  0  0  0  0  0  0  0  0
    2.3264   -4.8705    0.9053 H   0  0  0  0  0  0  0  0  0  0  0  0
    3.2257   -3.8876    2.0432 H   0  0  0  0  0  0  0  0  0  0  0  0
    1.8327   -4.8004    2.5839 H   0  0  0  0  0  0  0  0  0  0  0  0
    0.0005   -3.1873    1.6465 N   0  0  0  0  0  0  0  0  0  0  0  0
   -0.9949   -2.1807    1.3864 C   0  0  2  0  0  0  0  0  0  0  0  0
   -0.3083   -0.8216    1.4164 C   0  0  0  0  0  0  0  0  0  0  0  0
    0.7533   -0.6191    2.0022 O   0  0  0  0  0  0  0  0  0  0  0  0
   -2.1232   -2.2423    2.4042 C   0  0  0  0  0  0  0  0  0  0  0  0
   -0.3048   -4.0823    2.0245 H   0  0  0  0  0  0  0  0  0  0  0  0
   -1.3830   -2.3724    0.3801 H   0  0  0  0  0  0  0  0  0  0  0  0
   -1.7534   -2.0527    3.4185 H   0  0  0  0  0  0  0  0  0  0  0  0
   -2.8936   -1.4947    2.1882 H   0  0  0  0  0  0  0  0  0  0  0  0
   -2.5964   -3.2301    2.4022 H   0  0  0  0  0  0  0  0  0  0  0  0
   -1.0412    0.1517    0.7482 N   0  0  0  0  0  0  0  0  0  0  0  0
   -0.6079    1.5223    0.6467 C   0  0  2  0  0  0  0  0  0  0  0  0
   -1.4338    2.2034   -0.4437 C   0  0  0  0  0  0  0  0  0  0  0  0
   -0.9338    2.9095   -1.3172 O   0  0  0  0  0  0  0  0  0  0  0  0
    0.9153    1.6586    0.4081 C   0  0  2  0  0  0  0  0  0  0  0  0
    1.7439    1.0954    1.5840 C   0  0  0  0  0  0  0  0  0  0  0  0
    1.2748    3.1206    0.1116 C   0  0  0  0  0  0  0  0  0  0  0  0
    3.2300    0.9694    1.2739 C   0  0  0  0  0  0  0  0  0  0  0  0
   -1.9022   -0.1128    0.2753 H   0  0  0  0  0  0  0  0  0  0  0  0
   -0.8759    1.9930    1.6013 H   0  0  0  0  0  0  0  0  0  0  0  0
    1.1708    1.0775   -0.4880 H   0  0  0  0  0  0  0  0  0  0  0  0
    1.6410    1.7536    2.4544 H   0  0  0  0  0  0  0  0  0  0  0  0
    1.3631    0.1117    1.8835 H   0  0  0  0  0  0  0  0  0  0  0  0
    1.0438    3.7602    0.9702 H   0  0  0  0  0  0  0  0  0  0  0  0
    2.3442    3.2321   -0.0921 H   0  0  0  0  0  0  0  0  0  0  0  0
    0.7239    3.5020   -0.7544 H   0  0  0  0  0  0  0  0  0  0  0  0
    3.4080    0.3222    0.4105 H   0  0  0  0  0  0  0  0  0  0  0  0
    3.7544    0.5291    2.1284 H   0  0  0  0  0  0  0  0  0  0  0  0
    3.6744    1.9492    1.0731 H   0  0  0  0  0  0  0  0  0  0  0  0
   -2.7845    1.9017   -0.3431 N   0  0  0  0  0  0  0  0  0  0  0  0
   -3.7795    2.4022   -1.2640 C   0  0  2  0  0  0  0  0  0  0  0  0
   -4.9357    1.4113   -1.2914 C   0  0  0  0  0  0  0  0  0  0  0  0
   -4.8163    0.2321   -0.9653 O   0  0  0  0  0  0  0  0  0  0  0  0
   -3.1974    2.5970   -2.6554 C   0  0  0  0  0  0  0  0  0  0  0  0
   -3.0891    1.2991    0.4156 H   0  0  0  0  0  0  0  0  0  0  0  0
   -4.1282    3.3602   -0.8629 H   0  0  0  0  0  0  0  0  0  0  0  0
   -2.8427    1.6479   -3.0736 H   0  0  0  0  0  0  0  0  0  0  0  0
   -3.9449    3.0032   -3.3449 H   0  0  0  0  0  0  0  0  0  0  0  0
   -2.3472    3.2870   -2.6291 H   0  0  0  0  0  0  0  0  0  0  0  0
   -6.1062    1.9880   -1.7640 N   0  0  0  0  0  0  0  0  0  0  0  0
   -7.3407    1.2501   -1.8964 C   0  0  0  0  0  0  0  0  0  0  0  0
   -6.1185    2.9774   -1.9935 H   0  0  0  0  0  0  0  0  0  0  0  0
   -7.4145    0.8374   -2.9134 H   0  0  0  0  0  0  0  0  0  0  0  0
   -7.3568    0.4284   -1.1653 H   0  0  0  0  0  0  0  0  0  0  0  0
   -8.1914    1.9225   -1.7111 H   0  0  0  0  0  0  0  0  0  0  0  0
  1  3  1  0  0  0  0
  1  7  1  0  0  0  0
  1  2  2  0  0  0  0
 37 38  1  0  0  0  0
 38 46  1  0  0  0  0
 38 39  2  0  0  0  0
  8  9  1  0  0  0  0
  9 17  1  0  0  0  0
  9 10  2  0  0  0  0
 18 19  1  0  0  0  0
 19 36  1  0  0  0  0
 19 20  2  0  0  0  0
 22 24  1  0  0  0  0
 37 40  1  0  0  0  0
  8 11  1  0  0  0  0
 21 23  1  0  0  0  0
 46 47  1  0  0  0  0
 21 22  1  0  0  0  0
 36 37  1  0  0  0  0
  7  8  1  0  0  0  0
 18 21  1  0  0  0  0
 17 18  1  0  0  0  0
  3  4  1  0  0  0  0
  3  5  1  0  0  0  0
  3  6  1  0  0  0  0
 24 33  1  0  0  0  0
 24 34  1  0  0  0  0
 24 35  1  0  0  0  0
 40 43  1  0  0  0  0
 40 44  1  0  0  0  0
 40 45  1  0  0  0  0
 11 14  1  0  0  0  0
 11 15  1  0  0  0  0
 11 16  1  0  0  0  0
 23 30  1  0  0  0  0
 23 31  1  0  0  0  0
 23 32  1  0  0  0  0
 47 49  1  0  0  0  0
 47 50  1  0  0  0  0
 47 51  1  0  0  0  0
 22 28  1  0  0  0  0
 22 29  1  0  0  0  0
 37 42  1  0  0  0  0
  8 13  1  0  0  0  0
 18 26  1  0  0  0  0
 21 27  1  0  0  0  0
 46 48  1  0  0  0  0
  7 12  1  0  0  0  0
 36 41  1  0  0  0  0
 17 25  1  0  0  0  0
M  END
$$$$

  -OEChem-05262214473D

 51 50  0     1  0  0  0  0  0999 V2000
    1.3524   -3.0009    1.4091 C   0  0  0  0  0  0  0  0  0  0  0  0
    1.8758   -1.9880    0.9598 O   0  0  0  0  0  0  0  0  0  0  0  0
    2.2030   -4.1782    1.7536 C   0  0  0  0  0  0  0  0  0  0  0  0
    2.3264   -4.8705    0.9053 H   0  0  0  0  0  0  0  0  0  0  0  0
    3.2257   -3.8876    2.0432 H   0  0  0  0  0  0  0  0  0  0  0  0
    1.8327   -4.8004    2.5839 H   0  0  0  0  0  0  0  0  0  0  0  0
    0.0005   -3.1873    1.6465 N   0  0  0  0  0  0  0  0  0  0  0  0
   -0.9949   -2.1807    1.3864 C   0  0  2  0  0  0  0  0  0  0  0  0
   -0.3083   -0.8216    1.4164 C   0  0  0  0  0  0  0  0  0  0  0  0
    0.7533   -0.6191    2.0022 O   0  0  0  0  0  0  0  0  0  0  0  0
   -2.1232   -2.2423    2.4042 C   0  0  0  0  0  0  0  0  0  0  0  0
   -0.3048   -4.0823    2.0245 H   0  0  0  0  0  0  0  0  0  0  0  0
   -1.3830   -2.3724    0.3801 H   0  0  0  0  0  0  0  0  0  0  0  0
   -1.7534   -2.0527    3.4185 H   0  0  0  0  0  0  0  0  0  0  0  0
   -2.8936   -1.4947    2.1882 H   0  0  0  0  0  0  0  0  0  0  0  0
   -2.5964   -3.2301    2.4022 H   0  0  0  0  0  0  0  0  0  0  0  0
   -1.0412    0.1517    0.7482 N   0  0  0  0  0  0  0  0  0  0  0  0
   -0.6079    1.5223    0.6467 C   0  0  2  0  0  0  0  0  0  0  0  0
   -1.4338    2.2034   -0.4437 C   0  0  0  0  0  0  0  0  0  0  0  0
   -0.9335    2.6811   -1.4601 O   0  0  0  0  0  0  0  0  0  0  0  0
    0.9153    1.6586    0.4081 C   0  0  2  0  0  0  0  0  0  0  0  0
    1.7439    1.0954    1.5840 C   0  0  0  0  0  0  0  0  0  0  0  0
    1.2748    3.1206    0.1116 C   0  0  0  0  0  0  0  0  0  0  0  0
    3.2300    0.9694    1.2739 C   0  0  0  0  0  0  0  0  0  0  0  0
   -1.9022   -0.1128    0.2753 H   0  0  0  0  0  0  0  0  0  0  0  0
   -0.8759    1.9930    1.6013 H   0  0  0  0  0  0  0  0  0  0  0  0
    1.1708    1.0775   -0.4880 H   0  0  0  0  0  0  0  0  0  0  0  0
    1.6410    1.7536    2.4544 H   0  0  0  0  0  0  0  0  0  0  0  0
    1.3631    0.1117    1.8835 H   0  0  0  0  0  0  0  0  0  0  0  0
    1.0438    3.7602    0.9702 H   0  0  0  0  0  0  0  0  0  0  0  0
    2.3442    3.2321   -0.0921 H   0  0  0  0  0  0  0  0  0  0  0  0
    0.7239    3.5020   -0.7544 H   0  0  0  0  0  0  0  0  0  0  0  0
    3.4080    0.3222    0.4105 H   0  0  0  0  0  0  0  0  0  0  0  0
    3.7544    0.5291    2.1284 H   0  0  0  0  0  0  0  0  0  0  0  0
    3.6744    1.9492    1.0731 H   0  0  0  0  0  0  0  0  0  0  0  0
   -2.7922    2.1835   -0.1613 N   0  0  0  0  0  0  0  0  0  0  0  0
   -3.7932    2.7435   -1.0405 C   0  0  2  0  0  0  0  0  0  0  0  0
   -5.0999    1.9991   -0.7999 C   0  0  0  0  0  0  0  0  0  0  0  0
   -5.1497    0.8711   -0.3137 O   0  0  0  0  0  0  0  0  0  0  0  0
   -3.3696    2.6411   -2.4975 C   0  0  0  0  0  0  0  0  0  0  0  0
   -3.0983    1.7540    0.7068 H   0  0  0  0  0  0  0  0  0  0  0  0
   -3.9129    3.7942   -0.7549 H   0  0  0  0  0  0  0  0  0  0  0  0
   -3.2447    1.5955   -2.8019 H   0  0  0  0  0  0  0  0  0  0  0  0
   -4.1160    3.0914   -3.1602 H   0  0  0  0  0  0  0  0  0  0  0  0
   -2.4147    3.1516   -2.6625 H   0  0  0  0  0  0  0  0  0  0  0  0
   -6.2012    2.7249   -1.2319 N   0  0  0  0  0  0  0  0  0  0  0  0
   -7.5531    2.2281   -1.1246 C   0  0  0  0  0  0  0  0  0  0  0  0
   -6.0681    3.6600   -1.6054 H   0  0  0  0  0  0  0  0  0  0  0  0
   -7.8287    1.7097   -2.0548 H   0  0  0  0  0  0  0  0  0  0  0  0
   -7.6199    1.5263   -0.2803 H   0  0  0  0  0  0  0  0  0  0  0  0
   -8.2408    3.0702   -0.9568 H   0  0  0  0  0  0  0  0  0  0  0  0
  1  3  1  0  0  0  0
  1  7  1  0  0  0  0
  1  2  2  0  0  0  0
 37 38  1  0  0  0  0
 38 46  1  0  0  0  0
 38 39  2  0  0  0  0
  8  9  1  0  0  0  0
  9 17  1  0  0  0  0
  9 10  2  0  0  0  0
 18 19  1  0  0  0  0
 19 36  1  0  0  0  0
 19 20  2  0  0  0  0
 22 24  1  0  0  0  0
 37 40  1  0  0  0  0
  8 11  1  0  0  0  0
 21 23  1  0  0  0  0
 46 47  1  0  0  0  0
 21 22  1  0  0  0  0
 36 37  1  0  0  0  0
  7  8  1  0  0  0  0
 18 21  1  0  0  0  0
 17 18  1  0  0  0  0
  3  4  1  0  0  0  0
  3  5  1  0  0  0  0
  3  6  1  0  0  0  0
 24 33  1  0  0  0  0
 24 34  1  0  0  0  0
 24 35  1  0  0  0  0
 40 43  1  0  0  0  0
 40 44  1  0  0  0  0
 40 45  1  0  0  0  0
 11 14  1  0  0  0  0
 11 15  1  0  0  0  0
 11 16  1  0  0  0  0
 23 30  1  0  0  0  0
 23 31  1  0  0  0  0
 23 32  1  0  0  0  0
 47 49  1  0  0  0  0
 47 50  1  0  0  0  0
 47 51  1  0  0  0  0
 22 28  1  0  0  0  0
 22 29  1  0  0  0  0
 37 42  1  0  0  0  0
  8 13  1  0  0  0  0
 18 26  1  0  0  0  0
 21 27  1  0  0  0  0
 46 48  1  0  0  0  0
  7 12  1  0  0  0  0
 36 41  1  0  0  0  0
 17 25  1  0  0  0  0
M  END
$$$$

  -OEChem-05262214473D

 51 50  0     1  0  0  0  0  0999 V2000
    1.3524   -3.0009    1.4091 C   0  0  0  0  0  0  0  0  0  0  0  0
    1.8758   -1.9880    0.9598 O   0  0  0  0  0  0  0  0  0  0  0  0
    2.2030   -4.1782    1.7536 C   0  0  0  0  0  0  0  0  0  0  0  0
    2.3264   -4.8705    0.9053 H   0  0  0  0  0  0  0  0  0  0  0  0
    3.2257   -3.8876    2.0432 H   0  0  0  0  0  0  0  0  0  0  0  0
    1.8327   -4.8004    2.5839 H   0  0  0  0  0  0  0  0  0  0  0  0
    0.0005   -3.1873    1.6465 N   0  0  0  0  0  0  0  0  0  0  0  0
   -0.9949   -2.1807    1.3864 C   0  0  2  0  0  0  0  0  0  0  0  0
   -0.3083   -0.8216    1.4164 C   0  0  0  0  0  0  0  0  0  0  0  0
    0.7533   -0.6191    2.0022 O   0  0  0  0  0  0  0  0  0  0  0  0
   -2.1232   -2.2423    2.4042 C   0  0  0  0  0  0  0  0  0  0  0  0
   -0.3048   -4.0823    2.0245 H   0  0  0  0  0  0  0  0  0  0  0  0
   -1.3830   -2.3724    0.3801 H   0  0  0  0  0  0  0  0  0  0  0  0
   -1.7534   -2.0527    3.4185 H   0  0  0  0  0  0  0  0  0  0  0  0
   -2.8936   -1.4947    2.1882 H   0  0  0  0  0  0  0  0  0  0  0  0
   -2.5964   -3.2301    2.4022 H   0  0  0  0  0  0  0  0  0  0  0  0
   -1.0412    0.1517    0.7482 N   0  0  0  0  0  0  0  0  0  0  0  0
   -0.6079    1.5223    0.6467 C   0  0  2  0  0  0  0  0  0  0  0  0
   -1.4338    2.2034   -0.4437 C   0  0  0  0  0  0  0  0  0  0  0  0
   -0.9919    2.4403   -1.5662 O   0  0  0  0  0  0  0  0  0  0  0  0
    0.9153    1.6586    0.4081 C   0  0  2  0  0  0  0  0  0  0  0  0
    1.7439    1.0954    1.5840 C   0  0  0  0  0  0  0  0  0  0  0  0
    1.2748    3.1206    0.1116 C   0  0  0  0  0  0  0  0  0  0  0  0
    3.2300    0.9694    1.2739 C   0  0  0  0  0  0  0  0  0  0  0  0
   -1.9022   -0.1128    0.2753 H   0  0  0  0  0  0  0  0  0  0  0  0
   -0.8759    1.9930    1.6013 H   0  0  0  0  0  0  0  0  0  0  0  0
    1.1708    1.0775   -0.4880 H   0  0  0  0  0  0  0  0  0  0  0  0
    1.6410    1.7536    2.4544 H   0  0  0  0  0  0  0  0  0  0  0  0
    1.3631    0.1117    1.8835 H   0  0  0  0  0  0  0  0  0  0  0  0
    1.0438    3.7602    0.9702 H   0  0  0  0  0  0  0  0  0  0  0  0
    2.3442    3.2321   -0.0921 H   0  0  0  0  0  0  0  0  0  0  0  0
    0.7239    3.5020   -0.7544 H   0  0  0  0  0  0  0  0  0  0  0  0
    3.4080    0.3222    0.4105 H   0  0  0  0  0  0  0  0  0  0  0  0
    3.7544    0.5291    2.1284 H   0  0  0  0  0  0  0  0  0  0  0  0
    3.6744    1.9492    1.0731 H   0  0  0  0  0  0  0  0  0  0  0  0
   -2.7267    2.4826   -0.0241 N   0  0  0  0  0  0  0  0  0  0  0  0
   -3.7177    3.1068   -0.8707 C   0  0  2  0  0  0  0  0  0  0  0  0
   -5.0933    2.6659   -0.3884 C   0  0  0  0  0  0  0  0  0  0  0  0
   -5.2785    1.6411    0.2648 O   0  0  0  0  0  0  0  0  0  0  0  0
   -3.5096    2.7375   -2.3312 C   0  0  0  0  0  0  0  0  0  0  0  0
   -2.9896    2.2358    0.9254 H   0  0  0  0  0  0  0  0  0  0  0  0
   -3.6123    4.1889   -0.7360 H   0  0  0  0  0  0  0  0  0  0  0  0
   -3.6113    1.6571   -2.4857 H   0  0  0  0  0  0  0  0  0  0  0  0
   -4.2436    3.2340   -2.9745 H   0  0  0  0  0  0  0  0  0  0  0  0
   -2.5088    3.0286   -2.6681 H   0  0  0  0  0  0  0  0  0  0  0  0
   -6.0955    3.5286   -0.8100 N   0  0  0  0  0  0  0  0  0  0  0  0
   -7.4887    3.3200   -0.4915 C   0  0  0  0  0  0  0  0  0  0  0  0
   -5.8485    4.3643   -1.3318 H   0  0  0  0  0  0  0  0  0  0  0  0
   -7.9686    2.7488   -1.2998 H   0  0  0  0  0  0  0  0  0  0  0  0
   -7.5692    2.7592    0.4514 H   0  0  0  0  0  0  0  0  0  0  0  0
   -7.9896    4.2934   -0.3831 H   0  0  0  0  0  0  0  0  0  0  0  0
  1  3  1  0  0  0  0
  1  7  1  0  0  0  0
  1  2  2  0  0  0  0
 37 38  1  0  0  0  0
 38 46  1  0  0  0  0
 38 39  2  0  0  0  0
  8  9  1  0  0  0  0
  9 17  1  0  0  0  0
  9 10  2  0  0  0  0
 18 19  1  0  0  0  0
 19 36  1  0  0  0  0
 19 20  2  0  0  0  0
 22 24  1  0  0  0  0
 37 40  1  0  0  0  0
  8 11  1  0  0  0  0
 21 23  1  0  0  0  0
 46 47  1  0  0  0  0
 21 22  1  0  0  0  0
 36 37  1  0  0  0  0
  7  8  1  0  0  0  0
 18 21  1  0  0  0  0
 17 18  1  0  0  0  0
  3  4  1  0  0  0  0
  3  5  1  0  0  0  0
  3  6  1  0  0  0  0
 24 33  1  0  0  0  0
 24 34  1  0  0  0  0
 24 35  1  0  0  0  0
 40 43  1  0  0  0  0
 40 44  1  0  0  0  0
 40 45  1  0  0  0  0
 11 14  1  0  0  0  0
 11 15  1  0  0  0  0
 11 16  1  0  0  0  0
 23 30  1  0  0  0  0
 23 31  1  0  0  0  0
 23 32  1  0  0  0  0
 47 49  1  0  0  0  0
 47 50  1  0  0  0  0
 47 51  1  0  0  0  0
 22 28  1  0  0  0  0
 22 29  1  0  0  0  0
 37 42  1  0  0  0  0
  8 13  1  0  0  0  0
 18 26  1  0  0  0  0
 21 27  1  0  0  0  0
 46 48  1  0  0  0  0
  7 12  1  0  0  0  0
 36 41  1  0  0  0  0
 17 25  1  0  0  0  0
M  END
$$$$

  -OEChem-05262214473D

 51 50  0     1  0  0  0  0  0999 V2000
    1.3524   -3.0009    1.4091 C   0  0  0  0  0  0  0  0  0  0  0  0
    1.8758   -1.9880    0.9598 O   0  0  0  0  0  0  0  0  0  0  0  0
    2.2030   -4.1782    1.7536 C   0  0  0  0  0  0  0  0  0  0  0  0
    2.3264   -4.8705    0.9053 H   0  0  0  0  0  0  0  0  0  0  0  0
    3.2257   -3.8876    2.0432 H   0  0  0  0  0  0  0  0  0  0  0  0
    1.8327   -4.8004    2.5839 H   0  0  0  0  0  0  0  0  0  0  0  0
    0.0005   -3.1873    1.6465 N   0  0  0  0  0  0  0  0  0  0  0  0
   -0.9949   -2.1807    1.3864 C   0  0  2  0  0  0  0  0  0  0  0  0
   -0.3083   -0.8216    1.4164 C   0  0  0  0  0  0  0  0  0  0  0  0
    0.7533   -0.6191    2.0022 O   0  0  0  0  0  0  0  0  0  0  0  0
   -2.1232   -2.2423    2.4042 C   0  0  0  0  0  0  0  0  0  0  0  0
   -0.3048   -4.0823    2.0245 H   0  0  0  0  0  0  0  0  0  0  0  0
   -1.3830   -2.3724    0.3801 H   0  0  0  0  0  0  0  0  0  0  0  0
   -1.7534   -2.0527    3.4185 H   0  0  0  0  0  0  0  0  0  0  0  0
   -2.8936   -1.4947    2.1882 H   0  0  0  0  0  0  0  0  0  0  0  0
   -2.5964   -3.2301    2.4022 H   0  0  0  0  0  0  0  0  0  0  0  0
   -1.0412    0.1517    0.7482 N   0  0  0  0  0  0  0  0  0  0  0  0
   -0.6079    1.5223    0.6467 C   0  0  2  0  0  0  0  0  0  0  0  0
   -1.4338    2.2034   -0.4437 C   0  0  0  0  0  0  0  0  0  0  0  0
   -1.1050    2.2038   -1.6284 O   0  0  0  0  0  0  0  0  0  0  0  0
    0.9153    1.6586    0.4081 C   0  0  2  0  0  0  0  0  0  0  0  0
    1.7439    1.0954    1.5840 C   0  0  0  0  0  0  0  0  0  0  0  0
    1.2748    3.1206    0.1116 C   0  0  0  0  0  0  0  0  0  0  0  0
    3.2300    0.9694    1.2739 C   0  0  0  0  0  0  0  0  0  0  0  0
   -1.9022   -0.1128    0.2753 H   0  0  0  0  0  0  0  0  0  0  0  0
   -0.8759    1.9930    1.6013 H   0  0  0  0  0  0  0  0  0  0  0  0
    1.1708    1.0775   -0.4880 H   0  0  0  0  0  0  0  0  0  0  0  0
    1.6410    1.7536    2.4544 H   0  0  0  0  0  0  0  0  0  0  0  0
    1.3631    0.1117    1.8835 H   0  0  0  0  0  0  0  0  0  0  0  0
    1.0438    3.7602    0.9702 H   0  0  0  0  0  0  0  0  0  0  0  0
    2.3442    3.2321   -0.0921 H   0  0  0  0  0  0  0  0  0  0  0  0
    0.7239    3.5020   -0.7544 H   0  0  0  0  0  0  0  0  0  0  0  0
    3.4080    0.3222    0.4105 H   0  0  0  0  0  0  0  0  0  0  0  0
    3.7544    0.5291    2.1284 H   0  0  0  0  0  0  0  0  0  0  0  0
    3.6744    1.9492    1.0731 H   0  0  0  0  0  0  0  0  0  0  0  0
   -2.5923    2.7785    0.0589 N   0  0  0  0  0  0  0  0  0  0  0  0
   -3.5580    3.4676   -0.7663 C   0  0  2  0  0  0  0  0  0  0  0  0
   -4.9163    3.3663   -0.0850 C   0  0  0  0  0  0  0  0  0  0  0  0
   -5.1939    2.4895    0.7307 O   0  0  0  0  0  0  0  0  0  0  0  0
   -3.6078    2.8798   -2.1680 C   0  0  0  0  0  0  0  0  0  0  0  0
   -2.7705    2.7117    1.0566 H   0  0  0  0  0  0  0  0  0  0  0  0
   -3.2469    4.5172   -0.8077 H   0  0  0  0  0  0  0  0  0  0  0  0
   -3.9176    1.8286   -2.1467 H   0  0  0  0  0  0  0  0  0  0  0  0
   -4.3192    3.4213   -2.8003 H   0  0  0  0  0  0  0  0  0  0  0  0
   -2.6231    2.9264   -2.6454 H   0  0  0  0  0  0  0  0  0  0  0  0
   -5.7962    4.3444   -0.5271 N   0  0  0  0  0  0  0  0  0  0  0  0
   -7.1517    4.4514   -0.0401 C   0  0  0  0  0  0  0  0  0  0  0  0
   -5.4748    5.0423   -1.1914 H   0  0  0  0  0  0  0  0  0  0  0  0
   -7.8247    3.8841   -0.6998 H   0  0  0  0  0  0  0  0  0  0  0  0
   -7.2081    4.0431    0.9798 H   0  0  0  0  0  0  0  0  0  0  0  0
   -7.4548    5.5088   -0.0290 H   0  0  0  0  0  0  0  0  0  0  0  0
  1  3  1  0  0  0  0
  1  7  1  0  0  0  0
  1  2  2  0  0  0  0
 37 38  1  0  0  0  0
 38 46  1  0  0  0  0
 38 39  2  0  0  0  0
  8  9  1  0  0  0  0
  9 17  1  0  0  0  0
  9 10  2  0  0  0  0
 18 19  1  0  0  0  0
 19 36  1  0  0  0  0
 19 20  2  0  0  0  0
 22 24  1  0  0  0  0
 37 40  1  0  0  0  0
  8 11  1  0  0  0  0
 21 23  1  0  0  0  0
 46 47  1  0  0  0  0
 21 22  1  0  0  0  0
 36 37  1  0  0  0  0
  7  8  1  0  0  0  0
 18 21  1  0  0  0  0
 17 18  1  0  0  0  0
  3  4  1  0  0  0  0
  3  5  1  0  0  0  0
  3  6  1  0  0  0  0
 24 33  1  0  0  0  0
 24 34  1  0  0  0  0
 24 35  1  0  0  0  0
 40 43  1  0  0  0  0
 40 44  1  0  0  0  0
 40 45  1  0  0  0  0
 11 14  1  0  0  0  0
 11 15  1  0  0  0  0
 11 16  1  0  0  0  0
 23 30  1  0  0  0  0
 23 31  1  0  0  0  0
 23 32  1  0  0  0  0
 47 49  1  0  0  0  0
 47 50  1  0  0  0  0
 47 51  1  0  0  0  0
 22 28  1  0  0  0  0
 22 29  1  0  0  0  0
 37 42  1  0  0  0  0
  8 13  1  0  0  0  0
 18 26  1  0  0  0  0
 21 27  1  0  0  0  0
 46 48  1  0  0  0  0
  7 12  1  0  0  0  0
 36 41  1  0  0  0  0
 17 25  1  0  0  0  0
M  END
$$$$

  -OEChem-05262214473D

 51 50  0     1  0  0  0  0  0999 V2000
    1.3524   -3.0009    1.4091 C   0  0  0  0  0  0  0  0  0  0  0  0
    1.8758   -1.9880    0.9598 O   0  0  0  0  0  0  0  0  0  0  0  0
    2.2030   -4.1782    1.7536 C   0  0  0  0  0  0  0  0  0  0  0  0
    2.3264   -4.8705    0.9053 H   0  0  0  0  0  0  0  0  0  0  0  0
    3.2257   -3.8876    2.0432 H   0  0  0  0  0  0  0  0  0  0  0  0
    1.8327   -4.8004    2.5839 H   0  0  0  0  0  0  0  0  0  0  0  0
    0.0005   -3.1873    1.6465 N   0  0  0  0  0  0  0  0  0  0  0  0
   -0.9949   -2.1807    1.3864 C   0  0  2  0  0  0  0  0  0  0  0  0
   -0.3083   -0.8216    1.4164 C   0  0  0  0  0  0  0  0  0  0  0  0
    0.7533   -0.6191    2.0022 O   0  0  0  0  0  0  0  0  0  0  0  0
   -2.1232   -2.2423    2.4042 C   0  0  0  0  0  0  0  0  0  0  0  0
   -0.3048   -4.0823    2.0245 H   0  0  0  0  0  0  0  0  0  0  0  0
   -1.3830   -2.3724    0.3801 H   0  0  0  0  0  0  0  0  0  0  0  0
   -1.7534   -2.0527    3.4185 H   0  0  0  0  0  0  0  0  0  0  0  0
   -2.8936   -1.4947    2.1882 H   0  0  0  0  0  0  0  0  0  0  0  0
   -2.5964   -3.2301    2.4022 H   0  0  0  0  0  0  0  0  0  0  0  0
   -1.0412    0.1517    0.7482 N   0  0  0  0  0  0  0  0  0  0  0  0
   -0.6079    1.5223    0.6467 C   0  0  2  0  0  0  0  0  0  0  0  0
   -1.4338    2.2034   -0.4437 C   0  0  0  0  0  0  0  0  0  0  0  0
   -1.2651    1.9874   -1.6422 O   0  0  0  0  0  0  0  0  0  0  0  0
    0.9153    1.6586    0.4081 C   0  0  2  0  0  0  0  0  0  0  0  0
    1.7439    1.0954    1.5840 C   0  0  0  0  0  0  0  0  0  0  0  0
    1.2748    3.1206    0.1116 C   0  0  0  0  0  0  0  0  0  0  0  0
    3.2300    0.9694    1.2739 C   0  0  0  0  0  0  0  0  0  0  0  0
   -1.9022   -0.1128    0.2753 H   0  0  0  0  0  0  0  0  0  0  0  0
   -0.8759    1.9930    1.6013 H   0  0  0  0  0  0  0  0  0  0  0  0
    1.1708    1.0775   -0.4880 H   0  0  0  0  0  0  0  0  0  0  0  0
    1.6410    1.7536    2.4544 H   0  0  0  0  0  0  0  0  0  0  0  0
    1.3631    0.1117    1.8835 H   0  0  0  0  0  0  0  0  0  0  0  0
    1.0438    3.7602    0.9702 H   0  0  0  0  0  0  0  0  0  0  0  0
    2.3442    3.2321   -0.0921 H   0  0  0  0  0  0  0  0  0  0  0  0
    0.7239    3.5020   -0.7544 H   0  0  0  0  0  0  0  0  0  0  0  0
    3.4080    0.3222    0.4105 H   0  0  0  0  0  0  0  0  0  0  0  0
    3.7544    0.5291    2.1284 H   0  0  0  0  0  0  0  0  0  0  0  0
    3.6744    1.9492    1.0731 H   0  0  0  0  0  0  0  0  0  0  0  0
   -2.3983    3.0511    0.0823 N   0  0  0  0  0  0  0  0  0  0  0  0
   -3.3251    3.8013   -0.7343 C   0  0  2  0  0  0  0  0  0  0  0  0
   -4.5810    4.0527    0.0897 C   0  0  0  0  0  0  0  0  0  0  0  0
   -4.9018    3.3586    1.0522 O   0  0  0  0  0  0  0  0  0  0  0  0
   -3.6576    3.0582   -2.0189 C   0  0  0  0  0  0  0  0  0  0  0  0
   -2.4557    3.1493    1.0916 H   0  0  0  0  0  0  0  0  0  0  0  0
   -2.8416    4.7568   -0.9650 H   0  0  0  0  0  0  0  0  0  0  0  0
   -4.1427    2.0982   -1.8078 H   0  0  0  0  0  0  0  0  0  0  0  0
   -4.3375    3.6405   -2.6495 H   0  0  0  0  0  0  0  0  0  0  0  0
   -2.7497    2.8520   -2.5960 H   0  0  0  0  0  0  0  0  0  0  0  0
   -5.3238    5.1167   -0.4025 N   0  0  0  0  0  0  0  0  0  0  0  0
   -6.5652    5.5451    0.1988 C   0  0  0  0  0  0  0  0  0  0  0  0
   -4.9724    5.6478   -1.1937 H   0  0  0  0  0  0  0  0  0  0  0  0
   -7.4069    5.0380   -0.2955 H   0  0  0  0  0  0  0  0  0  0  0  0
   -6.5612    5.2905    1.2689 H   0  0  0  0  0  0  0  0  0  0  0  0
   -6.6729    6.6335    0.0813 H   0  0  0  0  0  0  0  0  0  0  0  0
  1  3  1  0  0  0  0
  1  7  1  0  0  0  0
  1  2  2  0  0  0  0
 37 38  1  0  0  0  0
 38 46  1  0  0  0  0
 38 39  2  0  0  0  0
  8  9  1  0  0  0  0
  9 17  1  0  0  0  0
  9 10  2  0  0  0  0
 18 19  1  0  0  0  0
 19 36  1  0  0  0  0
 19 20  2  0  0  0  0
 22 24  1  0  0  0  0
 37 40  1  0  0  0  0
  8 11  1  0  0  0  0
 21 23  1  0  0  0  0
 46 47  1  0  0  0  0
 21 22  1  0  0  0  0
 36 37  1  0  0  0  0
  7  8  1  0  0  0  0
 18 21  1  0  0  0  0
 17 18  1  0  0  0  0
  3  4  1  0  0  0  0
  3  5  1  0  0  0  0
  3  6  1  0  0  0  0
 24 33  1  0  0  0  0
 24 34  1  0  0  0  0
 24 35  1  0  0  0  0
 40 43  1  0  0  0  0
 40 44  1  0  0  0  0
 40 45  1  0  0  0  0
 11 14  1  0  0  0  0
 11 15  1  0  0  0  0
 11 16  1  0  0  0  0
 23 30  1  0  0  0  0
 23 31  1  0  0  0  0
 23 32  1  0  0  0  0
 47 49  1  0  0  0  0
 47 50  1  0  0  0  0
 47 51  1  0  0  0  0
 22 28  1  0  0  0  0
 22 29  1  0  0  0  0
 37 42  1  0  0  0  0
  8 13  1  0  0  0  0
 18 26  1  0  0  0  0
 21 27  1  0  0  0  0
 46 48  1  0  0  0  0
  7 12  1  0  0  0  0
 36 41  1  0  0  0  0
 17 25  1  0  0  0  0
M  END
$$$$

  -OEChem-05262214473D

 51 50  0     1  0  0  0  0  0999 V2000
    1.3524   -3.0009    1.4091 C   0  0  0  0  0  0  0  0  0  0  0  0
    1.8758   -1.9880    0.9598 O   0  0  0  0  0  0  0  0  0  0  0  0
    2.2030   -4.1782    1.7536 C   0  0  0  0  0  0  0  0  0  0  0  0
    2.3264   -4.8705    0.9053 H   0  0  0  0  0  0  0  0  0  0  0  0
    3.2257   -3.8876    2.0432 H   0  0  0  0  0  0  0  0  0  0  0  0
    1.8327   -4.8004    2.5839 H   0  0  0  0  0  0  0  0  0  0  0  0
    0.0005   -3.1873    1.6465 N   0  0  0  0  0  0  0  0  0  0  0  0
   -0.9949   -2.1807    1.3864 C   0  0  2  0  0  0  0  0  0  0  0  0
   -0.3083   -0.8216    1.4164 C   0  0  0  0  0  0  0  0  0  0  0  0
    0.7533   -0.6191    2.0022 O   0  0  0  0  0  0  0  0  0  0  0  0
   -2.1232   -2.2423    2.4042 C   0  0  0  0  0  0  0  0  0  0  0  0
   -0.3048   -4.0823    2.0245 H   0  0  0  0  0  0  0  0  0  0  0  0
   -1.3830   -2.3724    0.3801 H   0  0  0  0  0  0  0  0  0  0  0  0
   -1.7534   -2.0527    3.4185 H   0  0  0  0  0  0  0  0  0  0  0  0
   -2.8936   -1.4947    2.1882 H   0  0  0  0  0  0  0  0  0  0  0  0
   -2.5964   -3.2301    2.4022 H   0  0  0  0  0  0  0  0  0  0  0  0
   -1.0412    0.1517    0.7482 N   0  0  0  0  0  0  0  0  0  0  0  0
   -0.6079    1.5223    0.6467 C   0  0  2  0  0  0  0  0  0  0  0  0
   -1.4338    2.2034   -0.4437 C   0  0  0  0  0  0  0  0  0  0  0  0
   -1.4612    1.8061   -1.6069 O   0  0  0  0  0  0  0  0  0  0  0  0
    0.9153    1.6586    0.4081 C   0  0  2  0  0  0  0  0  0  0  0  0
    1.7439    1.0954    1.5840 C   0  0  0  0  0  0  0  0  0  0  0  0
    1.2748    3.1206    0.1116 C   0  0  0  0  0  0  0  0  0  0  0  0
    3.2300    0.9694    1.2739 C   0  0  0  0  0  0  0  0  0  0  0  0
   -1.9022   -0.1128    0.2753 H   0  0  0  0  0  0  0  0  0  0  0  0
   -0.8759    1.9930    1.6013 H   0  0  0  0  0  0  0  0  0  0  0  0
    1.1708    1.0775   -0.4880 H   0  0  0  0  0  0  0  0  0  0  0  0
    1.6410    1.7536    2.4544 H   0  0  0  0  0  0  0  0  0  0  0  0
    1.3631    0.1117    1.8835 H   0  0  0  0  0  0  0  0  0  0  0  0
    1.0438    3.7602    0.9702 H   0  0  0  0  0  0  0  0  0  0  0  0
    2.3442    3.2321   -0.0921 H   0  0  0  0  0  0  0  0  0  0  0  0
    0.7239    3.5020   -0.7544 H   0  0  0  0  0  0  0  0  0  0  0  0
    3.4080    0.3222    0.4105 H   0  0  0  0  0  0  0  0  0  0  0  0
    3.7544    0.5291    2.1284 H   0  0  0  0  0  0  0  0  0  0  0  0
    3.6744    1.9492    1.0731 H   0  0  0  0  0  0  0  0  0  0  0  0
   -2.1578    3.2819    0.0443 N   0  0  0  0  0  0  0  0  0  0  0  0
   -3.0348    4.0850   -0.7770 C   0  0  2  0  0  0  0  0  0  0  0  0
   -4.1102    4.6781    0.1238 C   0  0  0  0  0  0  0  0  0  0  0  0
   -4.4221    4.1891    1.2076 O   0  0  0  0  0  0  0  0  0  0  0  0
   -3.6555    3.2606   -1.8941 C   0  0  0  0  0  0  0  0  0  0  0  0
   -2.0668    3.5187    1.0278 H   0  0  0  0  0  0  0  0  0  0  0  0
   -2.4240    4.8914   -1.1973 H   0  0  0  0  0  0  0  0  0  0  0  0
   -4.2712    2.4476   -1.4923 H   0  0  0  0  0  0  0  0  0  0  0  0
   -4.2972    3.8767   -2.5324 H   0  0  0  0  0  0  0  0  0  0  0  0
   -2.8800    2.8104   -2.5232 H   0  0  0  0  0  0  0  0  0  0  0  0
   -4.7105    5.7929   -0.4446 N   0  0  0  0  0  0  0  0  0  0  0  0
   -5.7691    6.5266    0.2089 C   0  0  0  0  0  0  0  0  0  0  0  0
   -4.3755    6.1396   -1.3386 H   0  0  0  0  0  0  0  0  0  0  0  0
   -6.7435    6.1319   -0.1147 H   0  0  0  0  0  0  0  0  0  0  0  0
   -5.6726    6.4163    1.2991 H   0  0  0  0  0  0  0  0  0  0  0  0
   -5.6972    7.5909   -0.0597 H   0  0  0  0  0  0  0  0  0  0  0  0
  1  3  1  0  0  0  0
  1  7  1  0  0  0  0
  1  2  2  0  0  0  0
 37 38  1  0  0  0  0
 38 46  1  0  0  0  0
 38 39  2  0  0  0  0
  8  9  1  0  0  0  0
  9 17  1  0  0  0  0
  9 10  2  0  0  0  0
 18 19  1  0  0  0  0
 19 36  1  0  0  0  0
 19 20  2  0  0  0  0
 22 24  1  0  0  0  0
 37 40  1  0  0  0  0
  8 11  1  0  0  0  0
 21 23  1  0  0  0  0
 46 47  1  0  0  0  0
 21 22  1  0  0  0  0
 36 37  1  0  0  0  0
  7  8  1  0  0  0  0
 18 21  1  0  0  0  0
 17 18  1  0  0  0  0
  3  4  1  0  0  0  0
  3  5  1  0  0  0  0
  3  6  1  0  0  0  0
 24 33  1  0  0  0  0
 24 34  1  0  0  0  0
 24 35  1  0  0  0  0
 40 43  1  0  0  0  0
 40 44  1  0  0  0  0
 40 45  1  0  0  0  0
 11 14  1  0  0  0  0
 11 15  1  0  0  0  0
 11 16  1  0  0  0  0
 23 30  1  0  0  0  0
 23 31  1  0  0  0  0
 23 32  1  0  0  0  0
 47 49  1  0  0  0  0
 47 50  1  0  0  0  0
 47 51  1  0  0  0  0
 22 28  1  0  0  0  0
 22 29  1  0  0  0  0
 37 42  1  0  0  0  0
  8 13  1  0  0  0  0
 18 26  1  0  0  0  0
 21 27  1  0  0  0  0
 46 48  1  0  0  0  0
  7 12  1  0  0  0  0
 36 41  1  0  0  0  0
 17 25  1  0  0  0  0
M  END
$$$$

  -OEChem-05262214473D

 51 50  0     1  0  0  0  0  0999 V2000
    1.3524   -3.0009    1.4091 C   0  0  0  0  0  0  0  0  0  0  0  0
    1.8758   -1.9880    0.9598 O   0  0  0  0  0  0  0  0  0  0  0  0
    2.2030   -4.1782    1.7536 C   0  0  0  0  0  0  0  0  0  0  0  0
    2.3264   -4.8705    0.9053 H   0  0  0  0  0  0  0  0  0  0  0  0
    3.2257   -3.8876    2.0432 H   0  0  0  0  0  0  0  0  0  0  0  0
    1.8327   -4.8004    2.5839 H   0  0  0  0  0  0  0  0  0  0  0  0
    0.0005   -3.1873    1.6465 N   0  0  0  0  0  0  0  0  0  0  0  0
   -0.9949   -2.1807    1.3864 C   0  0  2  0  0  0  0  0  0  0  0  0
   -0.3083   -0.8216    1.4164 C   0  0  0  0  0  0  0  0  0  0  0  0
    0.7533   -0.6191    2.0022 O   0  0  0  0  0  0  0  0  0  0  0  0
   -2.1232   -2.2423    2.4042 C   0  0  0  0  0  0  0  0  0  0  0  0
   -0.3048   -4.0823    2.0245 H   0  0  0  0  0  0  0  0  0  0  0  0
   -1.3830   -2.3724    0.3801 H   0  0  0  0  0  0  0  0  0  0  0  0
   -1.7534   -2.0527    3.4185 H   0  0  0  0  0  0  0  0  0  0  0  0
   -2.8936   -1.4947    2.1882 H   0  0  0  0  0  0  0  0  0  0  0  0
   -2.5964   -3.2301    2.4022 H   0  0  0  0  0  0  0  0  0  0  0  0
   -1.0412    0.1517    0.7482 N   0  0  0  0  0  0  0  0  0  0  0  0
   -0.6079    1.5223    0.6467 C   0  0  2  0  0  0  0  0  0  0  0  0
   -1.4338    2.2034   -0.4437 C   0  0  0  0  0  0  0  0  0  0  0  0
   -1.6802    1.6722   -1.5247 O   0  0  0  0  0  0  0  0  0  0  0  0
    0.9153    1.6586    0.4081 C   0  0  2  0  0  0  0  0  0  0  0  0
    1.7439    1.0954    1.5840 C   0  0  0  0  0  0  0  0  0  0  0  0
    1.2748    3.1206    0.1116 C   0  0  0  0  0  0  0  0  0  0  0  0
    3.2300    0.9694    1.2739 C   0  0  0  0  0  0  0  0  0  0  0  0
   -1.9022   -0.1128    0.2753 H   0  0  0  0  0  0  0  0  0  0  0  0
   -0.8759    1.9930    1.6013 H   0  0  0  0  0  0  0  0  0  0  0  0
    1.1708    1.0775   -0.4880 H   0  0  0  0  0  0  0  0  0  0  0  0
    1.6410    1.7536    2.4544 H   0  0  0  0  0  0  0  0  0  0  0  0
    1.3631    0.1117    1.8835 H   0  0  0  0  0  0  0  0  0  0  0  0
    1.0438    3.7602    0.9702 H   0  0  0  0  0  0  0  0  0  0  0  0
    2.3442    3.2321   -0.0921 H   0  0  0  0  0  0  0  0  0  0  0  0
    0.7239    3.5020   -0.7544 H   0  0  0  0  0  0  0  0  0  0  0  0
    3.4080    0.3222    0.4105 H   0  0  0  0  0  0  0  0  0  0  0  0
    3.7544    0.5291    2.1284 H   0  0  0  0  0  0  0  0  0  0  0  0
    3.6744    1.9492    1.0731 H   0  0  0  0  0  0  0  0  0  0  0  0
   -1.8873    3.4551   -0.0524 N   0  0  0  0  0  0  0  0  0  0  0  0
   -2.7070    4.2994   -0.8914 C   0  0  2  0  0  0  0  0  0  0  0  0
   -3.5359    5.2001    0.0148 C   0  0  0  0  0  0  0  0  0  0  0  0
   -3.7873    4.9244    1.1861 O   0  0  0  0  0  0  0  0  0  0  0  0
   -3.6017    3.4731   -1.8021 C   0  0  0  0  0  0  0  0  0  0  0  0
   -1.6304    3.7948    0.8696 H   0  0  0  0  0  0  0  0  0  0  0  0
   -2.0226    4.9118   -1.4886 H   0  0  0  0  0  0  0  0  0  0  0  0
   -4.2944    2.8530   -1.2215 H   0  0  0  0  0  0  0  0  0  0  0  0
   -4.2012    4.1139   -2.4570 H   0  0  0  0  0  0  0  0  0  0  0  0
   -3.0052    2.8045   -2.4321 H   0  0  0  0  0  0  0  0  0  0  0  0
   -3.9981    6.3268   -0.6507 N   0  0  0  0  0  0  0  0  0  0  0  0
   -4.8176    7.3291   -0.0105 C   0  0  0  0  0  0  0  0  0  0  0  0
   -3.7248    6.4841   -1.6163 H   0  0  0  0  0  0  0  0  0  0  0  0
   -5.8798    7.0914   -0.1696 H   0  0  0  0  0  0  0  0  0  0  0  0
   -4.6029    7.3438    1.0683 H   0  0  0  0  0  0  0  0  0  0  0  0
   -4.5942    8.3158   -0.4423 H   0  0  0  0  0  0  0  0  0  0  0  0
  1  3  1  0  0  0  0
  1  7  1  0  0  0  0
  1  2  2  0  0  0  0
 37 38  1  0  0  0  0
 38 46  1  0  0  0  0
 38 39  2  0  0  0  0
  8  9  1  0  0  0  0
  9 17  1  0  0  0  0
  9 10  2  0  0  0  0
 18 19  1  0  0  0  0
 19 36  1  0  0  0  0
 19 20  2  0  0  0  0
 22 24  1  0  0  0  0
 37 40  1  0  0  0  0
  8 11  1  0  0  0  0
 21 23  1  0  0  0  0
 46 47  1  0  0  0  0
 21 22  1  0  0  0  0
 36 37  1  0  0  0  0
  7  8  1  0  0  0  0
 18 21  1  0  0  0  0
 17 18  1  0  0  0  0
  3  4  1  0  0  0  0
  3  5  1  0  0  0  0
  3  6  1  0  0  0  0
 24 33  1  0  0  0  0
 24 34  1  0  0  0  0
 24 35  1  0  0  0  0
 40 43  1  0  0  0  0
 40 44  1  0  0  0  0
 40 45  1  0  0  0  0
 11 14  1  0  0  0  0
 11 15  1  0  0  0  0
 11 16  1  0  0  0  0
 23 30  1  0  0  0  0
 23 31  1  0  0  0  0
 23 32  1  0  0  0  0
 47 49  1  0  0  0  0
 47 50  1  0  0  0  0
 47 51  1  0  0  0  0
 22 28  1  0  0  0  0
 22 29  1  0  0  0  0
 37 42  1  0  0  0  0
  8 13  1  0  0  0  0
 18 26  1  0  0  0  0
 21 27  1  0  0  0  0
 46 48  1  0  0  0  0
  7 12  1  0  0  0  0
 36 41  1  0  0  0  0
 17 25  1  0  0  0  0
M  END
$$$$

  -OEChem-05262214473D

 51 50  0     1  0  0  0  0  0999 V2000
    1.3524   -3.0009    1.4091 C   0  0  0  0  0  0  0  0  0  0  0  0
    1.8758   -1.9880    0.9598 O   0  0  0  0  0  0  0  0  0  0  0  0
    2.2030   -4.1782    1.7536 C   0  0  0  0  0  0  0  0  0  0  0  0
    2.3264   -4.8705    0.9053 H   0  0  0  0  0  0  0  0  0  0  0  0
    3.2257   -3.8876    2.0432 H   0  0  0  0  0  0  0  0  0  0  0  0
    1.8327   -4.8004    2.5839 H   0  0  0  0  0  0  0  0  0  0  0  0
    0.0005   -3.1873    1.6465 N   0  0  0  0  0  0  0  0  0  0  0  0
   -0.9949   -2.1807    1.3864 C   0  0  2  0  0  0  0  0  0  0  0  0
   -0.3083   -0.8216    1.4164 C   0  0  0  0  0  0  0  0  0  0  0  0
    0.7533   -0.6191    2.0022 O   0  0  0  0  0  0  0  0  0  0  0  0
   -2.1232   -2.2423    2.4042 C   0  0  0  0  0  0  0  0  0  0  0  0
   -0.3048   -4.0823    2.0245 H   0  0  0  0  0  0  0  0  0  0  0  0
   -1.3830   -2.3724    0.3801 H   0  0  0  0  0  0  0  0  0  0  0  0
   -1.7534   -2.0527    3.4185 H   0  0  0  0  0  0  0  0  0  0  0  0
   -2.8936   -1.4947    2.1882 H   0  0  0  0  0  0  0  0  0  0  0  0
   -2.5964   -3.2301    2.4022 H   0  0  0  0  0  0  0  0  0  0  0  0
   -1.0412    0.1517    0.7482 N   0  0  0  0  0  0  0  0  0  0  0  0
   -0.6079    1.5223    0.6467 C   0  0  2  0  0  0  0  0  0  0  0  0
   -1.4338    2.2034   -0.4437 C   0  0  0  0  0  0  0  0  0  0  0  0
   -1.9069    1.5947   -1.4014 O   0  0  0  0  0  0  0  0  0  0  0  0
    0.9153    1.6586    0.4081 C   0  0  2  0  0  0  0  0  0  0  0  0
    1.7439    1.0954    1.5840 C   0  0  0  0  0  0  0  0  0  0  0  0
    1.2748    3.1206    0.1116 C   0  0  0  0  0  0  0  0  0  0  0  0
    3.2300    0.9694    1.2739 C   0  0  0  0  0  0  0  0  0  0  0  0
   -1.9022   -0.1128    0.2753 H   0  0  0  0  0  0  0  0  0  0  0  0
   -0.8759    1.9930    1.6013 H   0  0  0  0  0  0  0  0  0  0  0  0
    1.1708    1.0775   -0.4880 H   0  0  0  0  0  0  0  0  0  0  0  0
    1.6410    1.7536    2.4544 H   0  0  0  0  0  0  0  0  0  0  0  0
    1.3631    0.1117    1.8835 H   0  0  0  0  0  0  0  0  0  0  0  0
    1.0438    3.7602    0.9702 H   0  0  0  0  0  0  0  0  0  0  0  0
    2.3442    3.2321   -0.0921 H   0  0  0  0  0  0  0  0  0  0  0  0
    0.7239    3.5020   -0.7544 H   0  0  0  0  0  0  0  0  0  0  0  0
    3.4080    0.3222    0.4105 H   0  0  0  0  0  0  0  0  0  0  0  0
    3.7544    0.5291    2.1284 H   0  0  0  0  0  0  0  0  0  0  0  0
    3.6744    1.9492    1.0731 H   0  0  0  0  0  0  0  0  0  0  0  0
   -1.6052    3.5589   -0.2013 N   0  0  0  0  0  0  0  0  0  0  0  0
   -2.3639    4.4300   -1.0696 C   0  0  2  0  0  0  0  0  0  0  0  0
   -2.8974    5.5829   -0.2296 C   0  0  0  0  0  0  0  0  0  0  0  0
   -3.0409    5.5145    0.9893 O   0  0  0  0  0  0  0  0  0  0  0  0
   -3.4998    3.6813   -1.7491 C   0  0  0  0  0  0  0  0  0  0  0  0
   -1.1760    3.9588    0.6279 H   0  0  0  0  0  0  0  0  0  0  0  0
   -1.6646    4.8166   -1.8191 H   0  0  0  0  0  0  0  0  0  0  0  0
   -4.2107    3.2867   -1.0140 H   0  0  0  0  0  0  0  0  0  0  0  0
   -4.0560    4.3358   -2.4284 H   0  0  0  0  0  0  0  0  0  0  0  0
   -3.1168    2.8346   -2.3288 H   0  0  0  0  0  0  0  0  0  0  0  0
   -3.2351    6.6822   -1.0066 N   0  0  0  0  0  0  0  0  0  0  0  0
   -3.7757    7.8978   -0.4444 C   0  0  0  0  0  0  0  0  0  0  0  0
   -3.0648    6.6578   -2.0077 H   0  0  0  0  0  0  0  0  0  0  0  0
   -4.8747    7.8509   -0.4564 H   0  0  0  0  0  0  0  0  0  0  0  0
   -3.4250    8.0099    0.5921 H   0  0  0  0  0  0  0  0  0  0  0  0
   -3.4390    8.7587   -1.0406 H   0  0  0  0  0  0  0  0  0  0  0  0
  1  3  1  0  0  0  0
  1  7  1  0  0  0  0
  1  2  2  0  0  0  0
 37 38  1  0  0  0  0
 38 46  1  0  0  0  0
 38 39  2  0  0  0  0
  8  9  1  0  0  0  0
  9 17  1  0  0  0  0
  9 10  2  0  0  0  0
 18 19  1  0  0  0  0
 19 36  1  0  0  0  0
 19 20  2  0  0  0  0
 22 24  1  0  0  0  0
 37 40  1  0  0  0  0
  8 11  1  0  0  0  0
 21 23  1  0  0  0  0
 46 47  1  0  0  0  0
 21 22  1  0  0  0  0
 36 37  1  0  0  0  0
  7  8  1  0  0  0  0
 18 21  1  0  0  0  0
 17 18  1  0  0  0  0
  3  4  1  0  0  0  0
  3  5  1  0  0  0  0
  3  6  1  0  0  0  0
 24 33  1  0  0  0  0
 24 34  1  0  0  0  0
 24 35  1  0  0  0  0
 40 43  1  0  0  0  0
 40 44  1  0  0  0  0
 40 45  1  0  0  0  0
 11 14  1  0  0  0  0
 11 15  1  0  0  0  0
 11 16  1  0  0  0  0
 23 30  1  0  0  0  0
 23 31  1  0  0  0  0
 23 32  1  0  0  0  0
 47 49  1  0  0  0  0
 47 50  1  0  0  0  0
 47 51  1  0  0  0  0
 22 28  1  0  0  0  0
 22 29  1  0  0  0  0
 37 42  1  0  0  0  0
  8 13  1  0  0  0  0
 18 26  1  0  0  0  0
 21 27  1  0  0  0  0
 46 48  1  0  0  0  0
  7 12  1  0  0  0  0
 36 41  1  0  0  0  0
 17 25  1  0  0  0  0
M  END
$$$$

  -OEChem-05262214473D

 51 50  0     1  0  0  0  0  0999 V2000
    1.3524   -3.0009    1.4091 C   0  0  0  0  0  0  0  0  0  0  0  0
    1.8758   -1.9880    0.9598 O   0  0  0  0  0  0  0  0  0  0  0  0
    2.2030   -4.1782    1.7536 C   0  0  0  0  0  0  0  0  0  0  0  0
    2.3264   -4.8705    0.9053 H   0  0  0  0  0  0  0  0  0  0  0  0
    3.2257   -3.8876    2.0432 H   0  0  0  0  0  0  0  0  0  0  0  0
    1.8327   -4.8004    2.5839 H   0  0  0  0  0  0  0  0  0  0  0  0
    0.0005   -3.1873    1.6465 N   0  0  0  0  0  0  0  0  0  0  0  0
   -0.9949   -2.1807    1.3864 C   0  0  2  0  0  0  0  0  0  0  0  0
   -0.3083   -0.8216    1.4164 C   0  0  0  0  0  0  0  0  0  0  0  0
    0.7533   -0.6191    2.0022 O   0  0  0  0  0  0  0  0  0  0  0  0
   -2.1232   -2.2423    2.4042 C   0  0  0  0  0  0  0  0  0  0  0  0
   -0.3048   -4.0823    2.0245 H   0  0  0  0  0  0  0  0  0  0  0  0
   -1.3830   -2.3724    0.3801 H   0  0  0  0  0  0  0  0  0  0  0  0
   -1.7534   -2.0527    3.4185 H   0  0  0  0  0  0  0  0  0  0  0  0
   -2.8936   -1.4947    2.1882 H   0  0  0  0  0  0  0  0  0  0  0  0
   -2.5964   -3.2301    2.4022 H   0  0  0  0  0  0  0  0  0  0  0  0
   -1.0412    0.1517    0.7482 N   0  0  0  0  0  0  0  0  0  0  0  0
   -0.6079    1.5223    0.6467 C   0  0  2  0  0  0  0  0  0  0  0  0
   -1.4338    2.2034   -0.4437 C   0  0  0  0  0  0  0  0  0  0  0  0
   -2.1260    1.5790   -1.2453 O   0  0  0  0  0  0  0  0  0  0  0  0
    0.9153    1.6586    0.4081 C   0  0  2  0  0  0  0  0  0  0  0  0
    1.7439    1.0954    1.5840 C   0  0  0  0  0  0  0  0  0  0  0  0
    1.2748    3.1206    0.1116 C   0  0  0  0  0  0  0  0  0  0  0  0
    3.2300    0.9694    1.2739 C   0  0  0  0  0  0  0  0  0  0  0  0
   -1.9022   -0.1128    0.2753 H   0  0  0  0  0  0  0  0  0  0  0  0
   -0.8759    1.9930    1.6013 H   0  0  0  0  0  0  0  0  0  0  0  0
    1.1708    1.0775   -0.4880 H   0  0  0  0  0  0  0  0  0  0  0  0
    1.6410    1.7536    2.4544 H   0  0  0  0  0  0  0  0  0  0  0  0
    1.3631    0.1117    1.8835 H   0  0  0  0  0  0  0  0  0  0  0  0
    1.0438    3.7602    0.9702 H   0  0  0  0  0  0  0  0  0  0  0  0
    2.3442    3.2321   -0.0921 H   0  0  0  0  0  0  0  0  0  0  0  0
    0.7239    3.5020   -0.7544 H   0  0  0  0  0  0  0  0  0  0  0  0
    3.4080    0.3222    0.4105 H   0  0  0  0  0  0  0  0  0  0  0  0
    3.7544    0.5291    2.1284 H   0  0  0  0  0  0  0  0  0  0  0  0
    3.6744    1.9492    1.0731 H   0  0  0  0  0  0  0  0  0  0  0  0
   -1.3307    3.5862   -0.3921 N   0  0  0  0  0  0  0  0  0  0  0  0
   -2.0289    4.4679   -1.2997 C   0  0  2  0  0  0  0  0  0  0  0  0
   -2.2382    5.8006   -0.5930 C   0  0  0  0  0  0  0  0  0  0  0  0
   -2.2336    5.9190    0.6306 O   0  0  0  0  0  0  0  0  0  0  0  0
   -3.3569    3.8711   -1.7389 C   0  0  0  0  0  0  0  0  0  0  0  0
   -0.7347    3.9994    0.3191 H   0  0  0  0  0  0  0  0  0  0  0  0
   -1.3746    4.6122   -2.1664 H   0  0  0  0  0  0  0  0  0  0  0  0
   -4.0258    3.7192   -0.8839 H   0  0  0  0  0  0  0  0  0  0  0  0
   -3.8715    4.5273   -2.4486 H   0  0  0  0  0  0  0  0  0  0  0  0
   -3.2070    2.8987   -2.2204 H   0  0  0  0  0  0  0  0  0  0  0  0
   -2.4736    6.8348   -1.4881 N   0  0  0  0  0  0  0  0  0  0  0  0
   -2.7143    8.1940   -1.0633 C   0  0  0  0  0  0  0  0  0  0  0  0
   -2.4402    6.6490   -2.4862 H   0  0  0  0  0  0  0  0  0  0  0  0
   -3.7966    8.3588   -0.9557 H   0  0  0  0  0  0  0  0  0  0  0  0
   -2.2191    8.3691   -0.0968 H   0  0  0  0  0  0  0  0  0  0  0  0
   -2.3104    8.8896   -1.8137 H   0  0  0  0  0  0  0  0  0  0  0  0
  1  3  1  0  0  0  0
  1  7  1  0  0  0  0
  1  2  2  0  0  0  0
 37 38  1  0  0  0  0
 38 46  1  0  0  0  0
 38 39  2  0  0  0  0
  8  9  1  0  0  0  0
  9 17  1  0  0  0  0
  9 10  2  0  0  0  0
 18 19  1  0  0  0  0
 19 36  1  0  0  0  0
 19 20  2  0  0  0  0
 22 24  1  0  0  0  0
 37 40  1  0  0  0  0
  8 11  1  0  0  0  0
 21 23  1  0  0  0  0
 46 47  1  0  0  0  0
 21 22  1  0  0  0  0
 36 37  1  0  0  0  0
  7  8  1  0  0  0  0
 18 21  1  0  0  0  0
 17 18  1  0  0  0  0
  3  4  1  0  0  0  0
  3  5  1  0  0  0  0
  3  6  1  0  0  0  0
 24 33  1  0  0  0  0
 24 34  1  0  0  0  0
 24 35  1  0  0  0  0
 40 43  1  0  0  0  0
 40 44  1  0  0  0  0
 40 45  1  0  0  0  0
 11 14  1  0  0  0  0
 11 15  1  0  0  0  0
 11 16  1  0  0  0  0
 23 30  1  0  0  0  0
 23 31  1  0  0  0  0
 23 32  1  0  0  0  0
 47 49  1  0  0  0  0
 47 50  1  0  0  0  0
 47 51  1  0  0  0  0
 22 28  1  0  0  0  0
 22 29  1  0  0  0  0
 37 42  1  0  0  0  0
  8 13  1  0  0  0  0
 18 26  1  0  0  0  0
 21 27  1  0  0  0  0
 46 48  1  0  0  0  0
  7 12  1  0  0  0  0
 36 41  1  0  0  0  0
 17 25  1  0  0  0  0
M  END
$$$$
